MODEL        1
REMARK 921   NORMALIZED FREE ENERGY PREDICTED BY IDOCK:   -7.98 KCAL/MOL
REMARK 922        TOTAL FREE ENERGY PREDICTED BY IDOCK:  -12.05 KCAL/MOL
REMARK 923 INTER-LIGAND FREE ENERGY PREDICTED BY IDOCK:  -10.77 KCAL/MOL
REMARK 924 INTRA-LIGAND FREE ENERGY PREDICTED BY IDOCK:   -1.28 KCAL/MOL
REMARK 927      BINDING AFFINITY PREDICTED BY RF-SCORE:    0.00 PKD
ROOT
HETATM    1  C   UNL     1     -10.497  19.493  65.850  1.00  0.00    -0.585 C  
HETATM    2  C   UNL     1     -10.469  18.651  67.114  1.00  0.00    -0.461 C  
ENDROOT
BRANCH   2   3
HETATM    3  C   UNL     1     -10.701  17.156  66.999  1.00  0.00    -0.149 A  
HETATM    4  C   UNL     1     -11.061  16.459  68.189  1.00  0.00    -0.320 A  
HETATM    5  C   UNL     1     -11.659  15.201  68.090  1.00  0.00    -0.358 A  
HETATM    6  C   UNL     1     -10.480  16.403  65.828  1.00  0.00    -0.369 A  
HETATM    7  C   UNL     1     -10.768  15.042  65.869  1.00  0.00    -0.337 A  
HETATM    8  C   UNL     1     -11.568  14.528  66.891  1.00  0.00    -0.399 A  
HETATM    9  C   UNL     1     -11.685  13.043  66.760  1.00  0.00    -0.440 C  
HETATM   10  C   UNL     1     -10.197  12.814  66.446  1.00  0.00    -0.253 C  
HETATM   11  C   UNL     1     -10.009  13.854  65.249  1.00  0.00    -0.266 C  
BRANCH   4  12
HETATM   12  C   UNL     1     -10.576  16.978  69.533  1.00  0.00    -0.168 C  
HETATM   13  C   UNL     1     -11.168  16.319  70.779  1.00  0.00    -0.293 C  
ENDBRANCH   4  12
BRANCH  10  14
HETATM   14  N   UNL     1      -9.787  11.395  66.429  1.00  0.00    -0.206 NA 
HETATM   15  H   UNL     1      -8.793  11.277  66.622  1.00  0.00     0.000 HD 
BRANCH  14  16
HETATM   16  C   UNL     1     -10.653  10.611  67.388  1.00  0.00    -0.256 C  
BRANCH  16  17
HETATM   17  C   UNL     1     -10.082  10.396  68.817  1.00  0.00    -0.187 C  
HETATM   18  H   UNL     1      -8.716   9.251  69.609  1.00  0.00     0.000 HD 
HETATM   19  O   UNL     1      -9.065   9.382  68.735  1.00  0.00    -0.131 OA 
BRANCH  17  20
HETATM   20  C   UNL     1     -11.123  10.011  69.887  1.00  0.00    -0.336 A  
HETATM   21  C   UNL     1     -11.906  10.969  70.576  1.00  0.00    -0.464 A  
HETATM   22  C   UNL     1     -11.939  12.390  70.204  1.00  0.00    -0.376 C  
HETATM   23  C   UNL     1     -12.638  13.286  70.915  1.00  0.00    -0.386 C  
HETATM   24  C   UNL     1     -13.385  12.881  72.134  1.00  0.00    -0.515 C  
HETATM   25  N   UNL     1     -13.399  11.548  72.433  1.00  0.00    -0.437 N  
HETATM   26  O   UNL     1     -13.963  13.708  72.820  1.00  0.00    -0.725 OA 
HETATM   27  H   UNL     1     -13.936  11.243  73.244  1.00  0.00     0.000 HD 
HETATM   28  C   UNL     1     -12.713  10.571  71.682  1.00  0.00    -0.445 A  
HETATM   29  C   UNL     1     -12.793   9.227  72.053  1.00  0.00    -0.415 A  
HETATM   30  C   UNL     1     -12.083   8.271  71.344  1.00  0.00    -0.331 A  
HETATM   31  O   UNL     1     -13.562   8.777  73.093  1.00  0.00    -0.970 OA 
HETATM   32  C   UNL     1     -11.266   8.656  70.273  1.00  0.00    -0.196 A  
HETATM   33  H   UNL     1     -13.615   7.863  73.346  1.00  0.00     0.000 HD 
ENDBRANCH  17  20
ENDBRANCH  16  17
ENDBRANCH  14  16
ENDBRANCH  10  14
ENDBRANCH   2   3
TORSDOF 6
ENDMDL
MODEL        2
REMARK 921   NORMALIZED FREE ENERGY PREDICTED BY IDOCK:   -7.97 KCAL/MOL
REMARK 922        TOTAL FREE ENERGY PREDICTED BY IDOCK:  -12.04 KCAL/MOL
REMARK 923 INTER-LIGAND FREE ENERGY PREDICTED BY IDOCK:  -10.63 KCAL/MOL
REMARK 924 INTRA-LIGAND FREE ENERGY PREDICTED BY IDOCK:   -1.42 KCAL/MOL
REMARK 927      BINDING AFFINITY PREDICTED BY RF-SCORE:    0.00 PKD
ROOT
HETATM    1  C   UNL     1     -14.190   8.690  71.762  1.00  0.00    -0.490 C  
HETATM    2  C   UNL     1     -13.013   9.541  72.211  1.00  0.00    -0.466 C  
ENDROOT
BRANCH   2   3
HETATM    3  C   UNL     1     -12.678  10.794  71.424  1.00  0.00    -0.544 A  
HETATM    4  C   UNL     1     -11.973  10.624  70.198  1.00  0.00    -0.417 A  
HETATM    5  C   UNL     1     -11.980  11.654  69.256  1.00  0.00    -0.382 A  
HETATM    6  C   UNL     1     -12.922  12.107  71.875  1.00  0.00    -0.419 A  
HETATM    7  C   UNL     1     -12.585  13.156  71.026  1.00  0.00    -0.397 A  
HETATM    8  C   UNL     1     -12.362  12.912  69.669  1.00  0.00    -0.083 A  
HETATM    9  C   UNL     1     -11.957  14.174  68.976  1.00  0.00    -0.376 C  
HETATM   10  C   UNL     1     -10.991  14.635  70.079  1.00  0.00    -0.112 C  
HETATM   11  C   UNL     1     -11.955  14.524  71.348  1.00  0.00    -0.382 C  
BRANCH   4  12
HETATM   12  C   UNL     1     -11.034   9.438  70.036  1.00  0.00    -0.267 C  
HETATM   13  C   UNL     1      -9.570   9.757  69.733  1.00  0.00    -0.256 C  
ENDBRANCH   4  12
BRANCH  10  14
HETATM   14  N   UNL     1     -10.169  15.809  69.721  1.00  0.00    -0.287 NA 
HETATM   15  H   UNL     1     -10.265  16.568  70.394  1.00  0.00     0.000 HD 
BRANCH  14  16
HETATM   16  C   UNL     1      -8.730  15.379  69.546  1.00  0.00    -0.210 C  
BRANCH  16  17
HETATM   17  C   UNL     1      -8.310  14.935  68.117  1.00  0.00    -0.144 C  
HETATM   18  H   UNL     1      -6.780  15.265  66.954  1.00  0.00     0.000 HD 
HETATM   19  O   UNL     1      -7.037  15.537  67.828  1.00  0.00    -0.129 OA 
BRANCH  17  20
HETATM   20  C   UNL     1      -9.320  15.279  67.003  1.00  0.00    -0.238 A  
HETATM   21  C   UNL     1      -9.933  14.293  66.192  1.00  0.00    -0.330 A  
HETATM   22  C   UNL     1      -9.817  12.853  66.460  1.00  0.00    -0.254 C  
HETATM   23  C   UNL     1     -10.353  11.941  65.638  1.00  0.00    -0.285 C  
HETATM   24  C   UNL     1     -11.063  12.350  64.399  1.00  0.00    -0.333 C  
HETATM   25  N   UNL     1     -11.221  13.691  64.194  1.00  0.00    -0.577 N  
HETATM   26  O   UNL     1     -11.491  11.518  63.616  1.00  0.00    -0.412 OA 
HETATM   27  H   UNL     1     -11.737  13.995  63.369  1.00  0.00     0.000 HD 
HETATM   28  C   UNL     1     -10.710  14.679  65.061  1.00  0.00    -0.430 A  
HETATM   29  C   UNL     1     -10.928  16.031  64.780  1.00  0.00    -0.356 A  
HETATM   30  C   UNL     1     -10.388  17.004  65.604  1.00  0.00    -0.226 A  
HETATM   31  O   UNL     1     -11.677  16.467  63.720  1.00  0.00    -1.548 OA 
HETATM   32  C   UNL     1      -9.601  16.635  66.703  1.00  0.00    -0.280 A  
HETATM   33  H   UNL     1     -11.826  17.386  63.529  1.00  0.00     0.000 HD 
ENDBRANCH  17  20
ENDBRANCH  16  17
ENDBRANCH  14  16
ENDBRANCH  10  14
ENDBRANCH   2   3
TORSDOF 6
ENDMDL
MODEL        3
REMARK 921   NORMALIZED FREE ENERGY PREDICTED BY IDOCK:   -7.59 KCAL/MOL
REMARK 922        TOTAL FREE ENERGY PREDICTED BY IDOCK:  -11.53 KCAL/MOL
REMARK 923 INTER-LIGAND FREE ENERGY PREDICTED BY IDOCK:  -10.17 KCAL/MOL
REMARK 924 INTRA-LIGAND FREE ENERGY PREDICTED BY IDOCK:   -1.36 KCAL/MOL
REMARK 927      BINDING AFFINITY PREDICTED BY RF-SCORE:    0.00 PKD
ROOT
HETATM    1  C   UNL     1     -14.094   8.630  72.143  1.00  0.00    -0.511 C  
HETATM    2  C   UNL     1     -12.902   9.532  72.415  1.00  0.00    -0.361 C  
ENDROOT
BRANCH   2   3
HETATM    3  C   UNL     1     -12.616  10.672  71.456  1.00  0.00    -0.517 A  
HETATM    4  C   UNL     1     -11.888  10.359  70.271  1.00  0.00    -0.399 A  
HETATM    5  C   UNL     1     -11.932  11.240  69.189  1.00  0.00    -0.405 A  
HETATM    6  C   UNL     1     -12.926  12.024  71.709  1.00  0.00    -0.445 A  
HETATM    7  C   UNL     1     -12.629  12.953  70.717  1.00  0.00    -0.314 A  
HETATM    8  C   UNL     1     -12.377  12.525  69.412  1.00  0.00     0.043 A  
HETATM    9  C   UNL     1     -12.023  13.691  68.544  1.00  0.00    -0.396 C  
HETATM   10  C   UNL     1     -11.093  14.353  69.574  1.00  0.00    -0.231 C  
HETATM   11  C   UNL     1     -12.067  14.382  70.839  1.00  0.00    -0.414 C  
BRANCH   4  12
HETATM   12  C   UNL     1     -10.894   9.209  70.289  1.00  0.00    -0.282 C  
HETATM   13  C   UNL     1      -9.431   9.561  70.019  1.00  0.00    -0.265 C  
ENDBRANCH   4  12
BRANCH  10  14
HETATM   14  N   UNL     1     -10.322  15.501  69.052  1.00  0.00    -0.223 NA 
HETATM   15  H   UNL     1      -9.326  15.297  68.982  1.00  0.00     0.000 HD 
BRANCH  14  16
HETATM   16  C   UNL     1     -10.910  15.940  67.731  1.00  0.00    -0.324 C  
BRANCH  16  17
HETATM   17  C   UNL     1     -10.140  15.505  66.453  1.00  0.00    -0.288 C  
HETATM   18  H   UNL     1      -9.488  16.405  64.851  1.00  0.00     0.000 HD 
HETATM   19  O   UNL     1      -9.959  16.672  65.632  1.00  0.00    -0.519 OA 
BRANCH  17  20
HETATM   20  C   UNL     1     -10.811  14.384  65.634  1.00  0.00    -0.320 A  
HETATM   21  C   UNL     1     -10.374  13.038  65.674  1.00  0.00    -0.294 A  
HETATM   22  C   UNL     1      -9.376  12.549  66.635  1.00  0.00    -0.236 C  
HETATM   23  C   UNL     1      -8.934  11.285  66.606  1.00  0.00    -0.180 C  
HETATM   24  C   UNL     1      -9.413  10.329  65.575  1.00  0.00    -0.223 C  
HETATM   25  N   UNL     1     -10.387  10.775  64.728  1.00  0.00    -0.327 N  
HETATM   26  O   UNL     1      -8.958   9.200  65.506  1.00  0.00    -0.180 OA 
HETATM   27  H   UNL     1     -10.758  10.125  64.035  1.00  0.00     0.000 HD 
HETATM   28  C   UNL     1     -10.910  12.085  64.758  1.00  0.00    -0.306 A  
HETATM   29  C   UNL     1     -11.915  12.453  63.860  1.00  0.00    -0.486 A  
HETATM   30  C   UNL     1     -12.397  13.752  63.857  1.00  0.00    -0.346 A  
HETATM   31  O   UNL     1     -12.483  11.584  62.968  1.00  0.00    -0.982 OA 
HETATM   32  C   UNL     1     -11.859  14.702  64.735  1.00  0.00    -0.444 A  
HETATM   33  H   UNL     1     -13.166  11.834  62.357  1.00  0.00     0.000 HD 
ENDBRANCH  17  20
ENDBRANCH  16  17
ENDBRANCH  14  16
ENDBRANCH  10  14
ENDBRANCH   2   3
TORSDOF 6
ENDMDL
MODEL        4
REMARK 921   NORMALIZED FREE ENERGY PREDICTED BY IDOCK:   -7.58 KCAL/MOL
REMARK 922        TOTAL FREE ENERGY PREDICTED BY IDOCK:  -11.51 KCAL/MOL
REMARK 923 INTER-LIGAND FREE ENERGY PREDICTED BY IDOCK:   -9.76 KCAL/MOL
REMARK 924 INTRA-LIGAND FREE ENERGY PREDICTED BY IDOCK:   -1.75 KCAL/MOL
REMARK 927      BINDING AFFINITY PREDICTED BY RF-SCORE:    0.00 PKD
ROOT
HETATM    1  C   UNL     1     -11.015   5.894  71.601  1.00  0.00    -0.327 C  
HETATM    2  C   UNL     1     -11.917   6.937  70.963  1.00  0.00    -0.422 C  
ENDROOT
BRANCH   2   3
HETATM    3  C   UNL     1     -11.279   8.090  70.211  1.00  0.00    -0.192 A  
HETATM    4  C   UNL     1     -11.629   9.409  70.622  1.00  0.00    -0.330 A  
HETATM    5  C   UNL     1     -10.809  10.479  70.258  1.00  0.00    -0.241 A  
HETATM    6  C   UNL     1     -10.456   7.943  69.076  1.00  0.00    -0.210 A  
HETATM    7  C   UNL     1      -9.919   9.096  68.512  1.00  0.00    -0.192 A  
HETATM    8  C   UNL     1      -9.899  10.287  69.242  1.00  0.00    -0.244 A  
HETATM    9  C   UNL     1      -9.334  11.394  68.410  1.00  0.00    -0.194 C  
HETATM   10  C   UNL     1     -10.106  11.018  67.135  1.00  0.00    -0.193 C  
HETATM   11  C   UNL     1      -9.721   9.471  67.031  1.00  0.00    -0.229 C  
BRANCH   4  12
HETATM   12  C   UNL     1     -12.998   9.660  71.234  1.00  0.00    -0.446 C  
HETATM   13  C   UNL     1     -13.240  11.047  71.830  1.00  0.00    -0.505 C  
ENDBRANCH   4  12
BRANCH  10  14
HETATM   14  N   UNL     1     -10.001  12.008  66.043  1.00  0.00    -0.229 NA 
HETATM   15  H   UNL     1      -9.302  11.744  65.348  1.00  0.00     0.000 HD 
BRANCH  14  16
HETATM   16  C   UNL     1     -11.365  12.222  65.428  1.00  0.00    -0.343 C  
BRANCH  16  17
HETATM   17  C   UNL     1     -12.239  13.341  66.058  1.00  0.00    -0.424 C  
HETATM   18  H   UNL     1     -13.688  14.489  65.436  1.00  0.00     0.000 HD 
HETATM   19  O   UNL     1     -13.153  13.804  65.050  1.00  0.00    -0.751 OA 
BRANCH  17  20
HETATM   20  C   UNL     1     -11.453  14.533  66.643  1.00  0.00    -0.373 A  
HETATM   21  C   UNL     1     -11.439  14.839  68.025  1.00  0.00    -0.351 A  
HETATM   22  C   UNL     1     -12.006  13.948  69.047  1.00  0.00    -0.402 C  
HETATM   23  C   UNL     1     -12.036  14.293  70.341  1.00  0.00    -0.409 C  
HETATM   24  C   UNL     1     -11.526  15.613  70.793  1.00  0.00    -0.379 C  
HETATM   25  N   UNL     1     -10.943  16.406  69.846  1.00  0.00    -0.361 N  
HETATM   26  O   UNL     1     -11.617  15.955  71.961  1.00  0.00    -0.423 OA 
HETATM   27  H   UNL     1     -10.553  17.300  70.140  1.00  0.00     0.000 HD 
HETATM   28  C   UNL     1     -10.852  16.055  68.482  1.00  0.00    -0.304 A  
HETATM   29  C   UNL     1     -10.228  16.923  67.582  1.00  0.00    -0.306 A  
HETATM   30  C   UNL     1     -10.178  16.602  66.235  1.00  0.00    -0.344 A  
HETATM   31  O   UNL     1      -9.632  18.096  67.958  1.00  0.00    -0.281 OA 
HETATM   32  C   UNL     1     -10.775  15.422  65.773  1.00  0.00    -0.360 A  
HETATM   33  H   UNL     1      -9.208  18.686  67.346  1.00  0.00     0.000 HD 
ENDBRANCH  17  20
ENDBRANCH  16  17
ENDBRANCH  14  16
ENDBRANCH  10  14
ENDBRANCH   2   3
TORSDOF 6
ENDMDL
MODEL        5
REMARK 921   NORMALIZED FREE ENERGY PREDICTED BY IDOCK:   -7.52 KCAL/MOL
REMARK 922        TOTAL FREE ENERGY PREDICTED BY IDOCK:  -11.43 KCAL/MOL
REMARK 923 INTER-LIGAND FREE ENERGY PREDICTED BY IDOCK:   -9.28 KCAL/MOL
REMARK 924 INTRA-LIGAND FREE ENERGY PREDICTED BY IDOCK:   -2.15 KCAL/MOL
REMARK 927      BINDING AFFINITY PREDICTED BY RF-SCORE:    0.00 PKD
ROOT
HETATM    1  C   UNL     1     -10.315   5.333  69.630  1.00  0.00    -0.348 C  
HETATM    2  C   UNL     1     -10.948   6.714  69.680  1.00  0.00    -0.367 C  
ENDROOT
BRANCH   2   3
HETATM    3  C   UNL     1     -10.236   7.867  68.999  1.00  0.00    -0.216 A  
HETATM    4  C   UNL     1      -9.294   8.602  69.775  1.00  0.00    -0.165 A  
HETATM    5  C   UNL     1      -8.342   9.393  69.128  1.00  0.00    -0.125 A  
HETATM    6  C   UNL     1     -10.521   8.321  67.695  1.00  0.00    -0.303 A  
HETATM    7  C   UNL     1      -9.761   9.373  67.195  1.00  0.00    -0.225 A  
HETATM    8  C   UNL     1      -8.551   9.713  67.805  1.00  0.00    -0.125 A  
HETATM    9  C   UNL     1      -7.950  10.906  67.132  1.00  0.00    -0.127 C  
HETATM   10  C   UNL     1      -9.270  11.688  67.028  1.00  0.00    -0.183 C  
HETATM   11  C   UNL     1     -10.187  10.579  66.336  1.00  0.00    -0.296 C  
BRANCH   4  12
HETATM   12  C   UNL     1      -9.488   8.707  71.280  1.00  0.00    -0.289 C  
HETATM   13  C   UNL     1      -8.389   8.110  72.158  1.00  0.00    -0.209 C  
ENDBRANCH   4  12
BRANCH  10  14
HETATM   14  N   UNL     1      -9.118  13.086  66.576  1.00  0.00    -0.407 NA 
HETATM   15  H   UNL     1      -9.416  13.215  65.610  1.00  0.00     0.000 HD 
BRANCH  14  16
HETATM   16  C   UNL     1      -9.852  14.003  67.528  1.00  0.00    -0.236 C  
BRANCH  16  17
HETATM   17  C   UNL     1     -11.346  13.670  67.792  1.00  0.00    -0.306 C  
HETATM   18  H   UNL     1     -13.054  14.289  67.082  1.00  0.00     0.000 HD 
HETATM   19  O   UNL     1     -12.140  14.492  66.920  1.00  0.00    -0.399 OA 
BRANCH  17  20
HETATM   20  C   UNL     1     -11.809  13.853  69.252  1.00  0.00    -0.394 A  
HETATM   21  C   UNL     1     -12.185  12.768  70.080  1.00  0.00    -0.320 A  
HETATM   22  C   UNL     1     -11.988  11.364  69.696  1.00  0.00    -0.416 C  
HETATM   23  C   UNL     1     -12.413  10.357  70.471  1.00  0.00    -0.403 C  
HETATM   24  C   UNL     1     -13.135  10.622  71.742  1.00  0.00    -0.466 C  
HETATM   25  N   UNL     1     -13.256  11.929  72.121  1.00  0.00    -0.508 N  
HETATM   26  O   UNL     1     -13.583   9.707  72.413  1.00  0.00    -0.433 OA 
HETATM   27  H   UNL     1     -13.715  12.133  73.008  1.00  0.00     0.000 HD 
HETATM   28  C   UNL     1     -12.780  13.012  71.353  1.00  0.00    -0.281 A  
HETATM   29  C   UNL     1     -12.936  14.319  71.823  1.00  0.00    -0.354 A  
HETATM   30  C   UNL     1     -12.511  15.387  71.049  1.00  0.00    -0.469 A  
HETATM   31  O   UNL     1     -13.483  14.620  73.041  1.00  0.00    -0.544 OA 
HETATM   32  C   UNL     1     -11.950  15.158  69.787  1.00  0.00    -0.367 A  
HETATM   33  H   UNL     1     -13.589  15.508  73.361  1.00  0.00     0.000 HD 
ENDBRANCH  17  20
ENDBRANCH  16  17
ENDBRANCH  14  16
ENDBRANCH  10  14
ENDBRANCH   2   3
TORSDOF 6
ENDMDL
MODEL        6
REMARK 921   NORMALIZED FREE ENERGY PREDICTED BY IDOCK:   -7.47 KCAL/MOL
REMARK 922        TOTAL FREE ENERGY PREDICTED BY IDOCK:  -11.37 KCAL/MOL
REMARK 923 INTER-LIGAND FREE ENERGY PREDICTED BY IDOCK:  -10.73 KCAL/MOL
REMARK 924 INTRA-LIGAND FREE ENERGY PREDICTED BY IDOCK:   -0.63 KCAL/MOL
REMARK 927      BINDING AFFINITY PREDICTED BY RF-SCORE:    0.00 PKD
ROOT
HETATM    1  C   UNL     1      -6.438  18.628  66.336  1.00  0.00    -0.225 C  
HETATM    2  C   UNL     1      -7.652  18.261  67.173  1.00  0.00    -0.227 C  
ENDROOT
BRANCH   2   3
HETATM    3  C   UNL     1      -8.468  17.044  66.780  1.00  0.00    -0.265 A  
HETATM    4  C   UNL     1      -9.790  17.273  66.300  1.00  0.00    -0.299 A  
HETATM    5  C   UNL     1     -10.435  16.273  65.570  1.00  0.00    -0.383 A  
HETATM    6  C   UNL     1      -8.047  15.711  66.960  1.00  0.00    -0.276 A  
HETATM    7  C   UNL     1      -8.896  14.699  66.522  1.00  0.00    -0.190 A  
HETATM    8  C   UNL     1      -9.930  14.992  65.631  1.00  0.00    -0.387 A  
HETATM    9  C   UNL     1     -10.739  13.765  65.355  1.00  0.00    -0.320 C  
HETATM   10  C   UNL     1     -10.786  13.297  66.819  1.00  0.00    -0.276 C  
HETATM   11  C   UNL     1      -9.227  13.340  67.166  1.00  0.00    -0.235 C  
BRANCH   4  12
HETATM   12  C   UNL     1     -10.561  18.489  66.788  1.00  0.00    -0.395 C  
HETATM   13  C   UNL     1     -10.785  19.613  65.776  1.00  0.00    -0.493 C  
ENDBRANCH   4  12
BRANCH  10  14
HETATM   14  N   UNL     1     -11.694  12.159  67.068  1.00  0.00    -0.548 NA 
HETATM   15  H   UNL     1     -12.338  12.002  66.293  1.00  0.00     0.000 HD 
BRANCH  14  16
HETATM   16  C   UNL     1     -10.879  10.928  67.392  1.00  0.00    -0.279 C  
BRANCH  16  17
HETATM   17  C   UNL     1     -10.346  10.815  68.847  1.00  0.00    -0.202 C  
HETATM   18  H   UNL     1      -8.979   9.755  69.748  1.00  0.00     0.000 HD 
HETATM   19  O   UNL     1      -9.304   9.824  68.857  1.00  0.00    -0.148 OA 
BRANCH  17  20
HETATM   20  C   UNL     1     -11.411  10.471  69.908  1.00  0.00    -0.380 A  
HETATM   21  C   UNL     1     -12.156  11.458  70.597  1.00  0.00    -0.469 A  
HETATM   22  C   UNL     1     -12.126  12.881  70.232  1.00  0.00    -0.377 C  
HETATM   23  C   UNL     1     -12.790  13.802  70.942  1.00  0.00    -0.341 C  
HETATM   24  C   UNL     1     -13.562  13.424  72.155  1.00  0.00    -0.567 C  
HETATM   25  N   UNL     1     -13.636  12.092  72.447  1.00  0.00    -0.518 N  
HETATM   26  O   UNL     1     -14.109  14.272  72.841  1.00  0.00    -0.525 OA 
HETATM   27  H   UNL     1     -14.191  11.806  73.253  1.00  0.00     0.000 HD 
HETATM   28  C   UNL     1     -12.987  11.090  71.695  1.00  0.00    -0.456 A  
HETATM   29  C   UNL     1     -13.127   9.748  72.059  1.00  0.00    -0.452 A  
HETATM   30  C   UNL     1     -12.454   8.766  71.351  1.00  0.00    -0.348 A  
HETATM   31  O   UNL     1     -13.922   9.328  73.092  1.00  0.00    -1.037 OA 
HETATM   32  C   UNL     1     -11.614   9.121  70.287  1.00  0.00    -0.116 A  
HETATM   33  H   UNL     1     -14.016   8.416  73.340  1.00  0.00     0.000 HD 
ENDBRANCH  17  20
ENDBRANCH  16  17
ENDBRANCH  14  16
ENDBRANCH  10  14
ENDBRANCH   2   3
TORSDOF 6
ENDMDL
MODEL        7
REMARK 921   NORMALIZED FREE ENERGY PREDICTED BY IDOCK:   -7.43 KCAL/MOL
REMARK 922        TOTAL FREE ENERGY PREDICTED BY IDOCK:  -11.31 KCAL/MOL
REMARK 923 INTER-LIGAND FREE ENERGY PREDICTED BY IDOCK:   -9.28 KCAL/MOL
REMARK 924 INTRA-LIGAND FREE ENERGY PREDICTED BY IDOCK:   -2.02 KCAL/MOL
REMARK 927      BINDING AFFINITY PREDICTED BY RF-SCORE:    0.00 PKD
ROOT
HETATM    1  C   UNL     1     -10.316   5.060  69.609  1.00  0.00    -0.260 C  
HETATM    2  C   UNL     1     -11.079   6.339  69.308  1.00  0.00    -0.461 C  
ENDROOT
BRANCH   2   3
HETATM    3  C   UNL     1     -10.360   7.465  68.590  1.00  0.00    -0.215 A  
HETATM    4  C   UNL     1      -9.577   8.351  69.386  1.00  0.00    -0.170 A  
HETATM    5  C   UNL     1      -8.602   9.140  68.774  1.00  0.00    -0.131 A  
HETATM    6  C   UNL     1     -10.501   7.754  67.217  1.00  0.00    -0.392 A  
HETATM    7  C   UNL     1      -9.751   8.803  66.696  1.00  0.00    -0.309 A  
HETATM    8  C   UNL     1      -8.657   9.300  67.406  1.00  0.00    -0.122 A  
HETATM    9  C   UNL     1      -8.050  10.458  66.679  1.00  0.00    -0.122 C  
HETATM   10  C   UNL     1      -9.393  11.118  66.324  1.00  0.00    -0.195 C  
HETATM   11  C   UNL     1     -10.139   9.873  65.657  1.00  0.00    -0.307 C  
BRANCH   4  12
HETATM   12  C   UNL     1      -9.973   8.600  70.833  1.00  0.00    -0.257 C  
HETATM   13  C   UNL     1      -8.853   8.541  71.872  1.00  0.00    -0.284 C  
ENDBRANCH   4  12
BRANCH  10  14
HETATM   14  N   UNL     1      -9.273  12.468  65.736  1.00  0.00    -0.444 NA 
HETATM   15  H   UNL     1      -8.416  12.579  65.195  1.00  0.00     0.000 HD 
BRANCH  14  16
HETATM   16  C   UNL     1     -10.508  12.770  64.918  1.00  0.00    -0.321 C  
BRANCH  16  17
HETATM   17  C   UNL     1     -11.820  13.016  65.713  1.00  0.00    -0.404 C  
HETATM   18  H   UNL     1     -13.495  13.956  65.373  1.00  0.00     0.000 HD 
HETATM   19  O   UNL     1     -12.693  13.805  64.886  1.00  0.00    -0.637 OA 
BRANCH  17  20
HETATM   20  C   UNL     1     -11.636  13.698  67.084  1.00  0.00    -0.392 A  
HETATM   21  C   UNL     1     -11.827  13.018  68.311  1.00  0.00    -0.381 A  
HETATM   22  C   UNL     1     -12.027  11.565  68.397  1.00  0.00    -0.268 C  
HETATM   23  C   UNL     1     -12.271  10.958  69.566  1.00  0.00    -0.331 C  
HETATM   24  C   UNL     1     -12.383  11.738  70.826  1.00  0.00    -0.337 C  
HETATM   25  N   UNL     1     -12.131  13.078  70.744  1.00  0.00    -0.497 N  
HETATM   26  O   UNL     1     -12.673  11.194  71.878  1.00  0.00    -0.346 OA 
HETATM   27  H   UNL     1     -12.165  13.627  71.602  1.00  0.00     0.000 HD 
HETATM   28  C   UNL     1     -11.826  13.744  69.539  1.00  0.00    -0.339 A  
HETATM   29  C   UNL     1     -11.571  15.118  69.549  1.00  0.00    -0.319 A  
HETATM   30  C   UNL     1     -11.317  15.782  68.360  1.00  0.00    -0.372 A  
HETATM   31  O   UNL     1     -11.539  15.868  70.693  1.00  0.00    -0.344 OA 
HETATM   32  C   UNL     1     -11.342  15.082  67.147  1.00  0.00    -0.323 A  
HETATM   33  H   UNL     1     -11.367  16.802  70.700  1.00  0.00     0.000 HD 
ENDBRANCH  17  20
ENDBRANCH  16  17
ENDBRANCH  14  16
ENDBRANCH  10  14
ENDBRANCH   2   3
TORSDOF 6
ENDMDL
MODEL        8
REMARK 921   NORMALIZED FREE ENERGY PREDICTED BY IDOCK:   -7.42 KCAL/MOL
REMARK 922        TOTAL FREE ENERGY PREDICTED BY IDOCK:  -11.30 KCAL/MOL
REMARK 923 INTER-LIGAND FREE ENERGY PREDICTED BY IDOCK:  -10.53 KCAL/MOL
REMARK 924 INTRA-LIGAND FREE ENERGY PREDICTED BY IDOCK:   -0.78 KCAL/MOL
REMARK 927      BINDING AFFINITY PREDICTED BY RF-SCORE:    0.00 PKD
ROOT
HETATM    1  C   UNL     1      -6.651  19.689  65.159  1.00  0.00    -0.299 C  
HETATM    2  C   UNL     1      -7.095  19.005  66.442  1.00  0.00    -0.248 C  
ENDROOT
BRANCH   2   3
HETATM    3  C   UNL     1      -8.168  17.936  66.364  1.00  0.00    -0.287 A  
HETATM    4  C   UNL     1      -9.518  18.376  66.238  1.00  0.00    -0.246 A  
HETATM    5  C   UNL     1     -10.487  17.485  65.776  1.00  0.00    -0.212 A  
HETATM    6  C   UNL     1      -7.930  16.555  66.517  1.00  0.00    -0.345 A  
HETATM    7  C   UNL     1      -9.015  15.693  66.390  1.00  0.00    -0.362 A  
HETATM    8  C   UNL     1     -10.194  16.139  65.788  1.00  0.00    -0.397 A  
HETATM    9  C   UNL     1     -11.231  15.061  65.821  1.00  0.00    -0.318 C  
HETATM   10  C   UNL     1     -10.949  14.641  67.273  1.00  0.00    -0.317 C  
HETATM   11  C   UNL     1      -9.368  14.426  67.190  1.00  0.00    -0.226 C  
BRANCH   4  12
HETATM   12  C   UNL     1      -9.923  19.717  66.830  1.00  0.00    -0.521 C  
HETATM   13  C   UNL     1     -10.157  19.759  68.340  1.00  0.00    -0.568 C  
ENDBRANCH   4  12
BRANCH  10  14
HETATM   14  N   UNL     1     -11.922  13.681  67.832  1.00  0.00    -0.363 NA 
HETATM   15  H   UNL     1     -12.216  12.986  67.147  1.00  0.00     0.000 HD 
BRANCH  14  16
HETATM   16  C   UNL     1     -11.344  13.047  69.077  1.00  0.00    -0.289 C  
BRANCH  16  17
HETATM   17  C   UNL     1     -11.221  11.498  69.069  1.00  0.00    -0.262 C  
HETATM   18  H   UNL     1     -11.777  10.066  67.868  1.00  0.00     0.000 HD 
HETATM   19  O   UNL     1     -11.853  11.014  67.872  1.00  0.00    -0.600 OA 
BRANCH  17  20
HETATM   20  C   UNL     1     -11.817  10.789  70.302  1.00  0.00    -0.438 A  
HETATM   21  C   UNL     1     -11.509   9.449  70.640  1.00  0.00    -0.344 A  
HETATM   22  C   UNL     1     -10.455   8.677  69.967  1.00  0.00    -0.229 C  
HETATM   23  C   UNL     1     -10.230   7.390  70.263  1.00  0.00    -0.203 C  
HETATM   24  C   UNL     1     -11.063   6.677  71.266  1.00  0.00    -0.267 C  
HETATM   25  N   UNL     1     -11.996   7.421  71.931  1.00  0.00    -0.293 N  
HETATM   26  O   UNL     1     -10.904   5.488  71.485  1.00  0.00    -0.244 OA 
HETATM   27  H   UNL     1     -12.555   6.962  72.650  1.00  0.00     0.000 HD 
HETATM   28  C   UNL     1     -12.230   8.789  71.678  1.00  0.00    -0.339 A  
HETATM   29  C   UNL     1     -13.199   9.476  72.415  1.00  0.00    -0.368 A  
HETATM   30  C   UNL     1     -13.462  10.808  72.137  1.00  0.00    -0.227 A  
HETATM   31  O   UNL     1     -13.913   8.907  73.434  1.00  0.00    -1.236 OA 
HETATM   32  C   UNL     1     -12.777  11.457  71.101  1.00  0.00    -0.479 A  
HETATM   33  H   UNL     1     -14.572   9.373  73.934  1.00  0.00     0.000 HD 
ENDBRANCH  17  20
ENDBRANCH  16  17
ENDBRANCH  14  16
ENDBRANCH  10  14
ENDBRANCH   2   3
TORSDOF 6
ENDMDL
MODEL        9
REMARK 921   NORMALIZED FREE ENERGY PREDICTED BY IDOCK:   -7.41 KCAL/MOL
REMARK 922        TOTAL FREE ENERGY PREDICTED BY IDOCK:  -11.29 KCAL/MOL
REMARK 923 INTER-LIGAND FREE ENERGY PREDICTED BY IDOCK:  -10.00 KCAL/MOL
REMARK 924 INTRA-LIGAND FREE ENERGY PREDICTED BY IDOCK:   -1.29 KCAL/MOL
REMARK 927      BINDING AFFINITY PREDICTED BY RF-SCORE:    0.00 PKD
ROOT
HETATM    1  C   UNL     1      -5.432  18.214  66.765  1.00  0.00    -0.168 C  
HETATM    2  C   UNL     1      -6.630  17.726  65.968  1.00  0.00    -0.305 C  
ENDROOT
BRANCH   2   3
HETATM    3  C   UNL     1      -7.881  17.305  66.716  1.00  0.00    -0.278 A  
HETATM    4  C   UNL     1      -9.028  18.140  66.590  1.00  0.00    -0.292 A  
HETATM    5  C   UNL     1     -10.286  17.628  66.912  1.00  0.00    -0.334 A  
HETATM    6  C   UNL     1      -7.947  16.212  67.604  1.00  0.00    -0.162 A  
HETATM    7  C   UNL     1      -9.176  15.932  68.194  1.00  0.00    -0.190 A  
HETATM    8  C   UNL     1     -10.347  16.471  67.659  1.00  0.00    -0.291 A  
HETATM    9  C   UNL     1     -11.525  16.082  68.494  1.00  0.00    -0.357 C  
HETATM   10  C   UNL     1     -10.832  16.341  69.842  1.00  0.00    -0.352 C  
HETATM   11  C   UNL     1      -9.501  15.483  69.631  1.00  0.00    -0.244 C  
BRANCH   4  12
HETATM   12  C   UNL     1      -8.843  19.629  66.344  1.00  0.00    -0.419 C  
HETATM   13  C   UNL     1      -9.744  20.575  67.138  1.00  0.00    -0.581 C  
ENDBRANCH   4  12
BRANCH  10  14
HETATM   14  N   UNL     1     -11.728  16.268  71.015  1.00  0.00    -0.599 NA 
HETATM   15  H   UNL     1     -12.672  16.587  70.799  1.00  0.00     0.000 HD 
BRANCH  14  16
HETATM   16  C   UNL     1     -11.712  14.863  71.572  1.00  0.00    -0.335 C  
BRANCH  16  17
HETATM   17  C   UNL     1     -12.908  13.952  71.181  1.00  0.00    -0.351 C  
HETATM   18  H   UNL     1     -14.670  13.576  71.928  1.00  0.00     0.000 HD 
HETATM   19  O   UNL     1     -13.939  14.134  72.167  1.00  0.00    -0.450 OA 
BRANCH  17  20
HETATM   20  C   UNL     1     -12.571  12.453  71.043  1.00  0.00    -0.349 A  
HETATM   21  C   UNL     1     -11.970  11.905  69.884  1.00  0.00    -0.398 A  
HETATM   22  C   UNL     1     -11.439  12.732  68.792  1.00  0.00    -0.347 C  
HETATM   23  C   UNL     1     -10.935  12.185  67.678  1.00  0.00    -0.289 C  
HETATM   24  C   UNL     1     -10.923  10.711  67.487  1.00  0.00    -0.310 C  
HETATM   25  N   UNL     1     -11.360   9.951  68.534  1.00  0.00    -0.514 N  
HETATM   26  O   UNL     1     -10.528  10.217  66.444  1.00  0.00    -0.208 OA 
HETATM   27  H   UNL     1     -11.326   8.936  68.439  1.00  0.00     0.000 HD 
HETATM   28  C   UNL     1     -11.854  10.491  69.739  1.00  0.00    -0.257 A  
HETATM   29  C   UNL     1     -12.269   9.638  70.765  1.00  0.00    -0.230 A  
HETATM   30  C   UNL     1     -12.799  10.166  71.931  1.00  0.00    -0.526 A  
HETATM   31  O   UNL     1     -12.170   8.274  70.695  1.00  0.00    -0.496 OA 
HETATM   32  C   UNL     1     -12.941  11.552  72.072  1.00  0.00    -0.373 A  
HETATM   33  H   UNL     1     -12.453   7.694  71.392  1.00  0.00     0.000 HD 
ENDBRANCH  17  20
ENDBRANCH  16  17
ENDBRANCH  14  16
ENDBRANCH  10  14
ENDBRANCH   2   3
TORSDOF 6
ENDMDL
MODEL       10
REMARK 921   NORMALIZED FREE ENERGY PREDICTED BY IDOCK:   -7.40 KCAL/MOL
REMARK 922        TOTAL FREE ENERGY PREDICTED BY IDOCK:  -11.27 KCAL/MOL
REMARK 923 INTER-LIGAND FREE ENERGY PREDICTED BY IDOCK:   -9.92 KCAL/MOL
REMARK 924 INTRA-LIGAND FREE ENERGY PREDICTED BY IDOCK:   -1.35 KCAL/MOL
REMARK 927      BINDING AFFINITY PREDICTED BY RF-SCORE:    0.00 PKD
ROOT
HETATM    1  C   UNL     1      -5.388  20.856  68.866  1.00  0.00    -0.390 C  
HETATM    2  C   UNL     1      -6.328  20.952  67.676  1.00  0.00    -0.385 C  
ENDROOT
BRANCH   2   3
HETATM    3  C   UNL     1      -7.096  19.715  67.252  1.00  0.00    -0.237 A  
HETATM    4  C   UNL     1      -6.462  18.841  66.322  1.00  0.00    -0.230 A  
HETATM    5  C   UNL     1      -6.920  17.529  66.195  1.00  0.00    -0.323 A  
HETATM    6  C   UNL     1      -8.425  19.433  67.631  1.00  0.00    -0.339 A  
HETATM    7  C   UNL     1      -8.985  18.241  67.184  1.00  0.00    -0.264 A  
HETATM    8  C   UNL     1      -8.164  17.220  66.700  1.00  0.00    -0.296 A  
HETATM    9  C   UNL     1      -8.993  16.070  66.225  1.00  0.00    -0.380 C  
HETATM   10  C   UNL     1     -10.037  16.939  65.504  1.00  0.00    -0.055 C  
HETATM   11  C   UNL     1     -10.412  17.947  66.684  1.00  0.00    -0.318 C  
BRANCH   4  12
HETATM   12  C   UNL     1      -5.469  19.411  65.321  1.00  0.00    -0.197 C  
HETATM   13  C   UNL     1      -6.055  20.101  64.089  1.00  0.00    -0.299 C  
ENDBRANCH   4  12
BRANCH  10  14
HETATM   14  N   UNL     1     -10.999  16.180  64.679  1.00  0.00    -0.857 NA 
HETATM   15  H   UNL     1     -10.984  16.471  63.702  1.00  0.00     0.000 HD 
BRANCH  14  16
HETATM   16  C   UNL     1     -10.738  14.699  64.838  1.00  0.00    -0.427 C  
BRANCH  16  17
HETATM   17  C   UNL     1     -11.853  13.872  65.536  1.00  0.00    -0.362 C  
HETATM   18  H   UNL     1     -13.801  13.939  65.595  1.00  0.00     0.000 HD 
HETATM   19  O   UNL     1     -13.119  14.445  65.167  1.00  0.00    -0.633 OA 
BRANCH  17  20
HETATM   20  C   UNL     1     -11.741  13.790  67.072  1.00  0.00    -0.420 A  
HETATM   21  C   UNL     1     -11.461  12.583  67.757  1.00  0.00    -0.378 A  
HETATM   22  C   UNL     1     -11.063  11.347  67.069  1.00  0.00    -0.364 C  
HETATM   23  C   UNL     1     -10.868  10.202  67.738  1.00  0.00    -0.346 C  
HETATM   24  C   UNL     1     -11.080  10.128  69.207  1.00  0.00    -0.225 C  
HETATM   25  N   UNL     1     -11.387  11.296  69.844  1.00  0.00    -0.415 N  
HETATM   26  O   UNL     1     -10.971   9.070  69.804  1.00  0.00    -0.231 OA 
HETATM   27  H   UNL     1     -11.500  11.276  70.857  1.00  0.00     0.000 HD 
HETATM   28  C   UNL     1     -11.555  12.529  69.179  1.00  0.00    -0.320 A  
HETATM   29  C   UNL     1     -11.857  13.679  69.913  1.00  0.00    -0.320 A  
HETATM   30  C   UNL     1     -12.068  14.881  69.257  1.00  0.00    -0.286 A  
HETATM   31  O   UNL     1     -11.945  13.698  71.279  1.00  0.00    -0.415 OA 
HETATM   32  C   UNL     1     -12.004  14.938  67.859  1.00  0.00    -0.206 A  
HETATM   33  H   UNL     1     -12.151  14.480  71.778  1.00  0.00     0.000 HD 
ENDBRANCH  17  20
ENDBRANCH  16  17
ENDBRANCH  14  16
ENDBRANCH  10  14
ENDBRANCH   2   3
TORSDOF 6
ENDMDL
MODEL       11
REMARK 921   NORMALIZED FREE ENERGY PREDICTED BY IDOCK:   -7.35 KCAL/MOL
REMARK 922        TOTAL FREE ENERGY PREDICTED BY IDOCK:  -11.20 KCAL/MOL
REMARK 923 INTER-LIGAND FREE ENERGY PREDICTED BY IDOCK:  -10.67 KCAL/MOL
REMARK 924 INTRA-LIGAND FREE ENERGY PREDICTED BY IDOCK:   -0.53 KCAL/MOL
REMARK 927      BINDING AFFINITY PREDICTED BY RF-SCORE:    0.00 PKD
ROOT
HETATM    1  C   UNL     1     -10.955   5.107  73.472  1.00  0.00    -0.370 C  
HETATM    2  C   UNL     1     -10.515   6.525  73.797  1.00  0.00    -0.335 C  
ENDROOT
BRANCH   2   3
HETATM    3  C   UNL     1     -10.885   7.640  72.837  1.00  0.00    -0.446 A  
HETATM    4  C   UNL     1      -9.820   8.274  72.134  1.00  0.00    -0.342 A  
HETATM    5  C   UNL     1     -10.104   9.008  70.981  1.00  0.00    -0.352 A  
HETATM    6  C   UNL     1     -12.188   8.157  72.680  1.00  0.00    -0.270 A  
HETATM    7  C   UNL     1     -12.375   9.162  71.736  1.00  0.00    -0.444 A  
HETATM    8  C   UNL     1     -11.409   9.387  70.753  1.00  0.00    -0.363 A  
HETATM    9  C   UNL     1     -11.801  10.550  69.899  1.00  0.00    -0.358 C  
HETATM   10  C   UNL     1     -12.259  11.435  71.070  1.00  0.00    -0.285 C  
HETATM   11  C   UNL     1     -13.256  10.424  71.801  1.00  0.00    -0.529 C  
BRANCH   4  12
HETATM   12  C   UNL     1      -8.443   8.345  72.773  1.00  0.00    -0.224 C  
HETATM   13  C   UNL     1      -7.247   8.413  71.823  1.00  0.00    -0.105 C  
ENDBRANCH   4  12
BRANCH  10  14
HETATM   14  N   UNL     1     -12.566  12.831  70.697  1.00  0.00    -0.225 NA 
HETATM   15  H   UNL     1     -12.373  13.485  71.455  1.00  0.00     0.000 HD 
BRANCH  14  16
HETATM   16  C   UNL     1     -11.821  13.188  69.432  1.00  0.00    -0.326 C  
BRANCH  16  17
HETATM   17  C   UNL     1     -11.317  14.653  69.317  1.00  0.00    -0.286 C  
HETATM   18  H   UNL     1     -11.932  16.388  69.960  1.00  0.00     0.000 HD 
HETATM   19  O   UNL     1     -12.241  15.492  70.031  1.00  0.00    -0.358 OA 
BRANCH  17  20
HETATM   20  C   UNL     1     -11.140  15.173  67.875  1.00  0.00    -0.322 A  
HETATM   21  C   UNL     1     -10.690  16.483  67.582  1.00  0.00    -0.311 A  
HETATM   22  C   UNL     1     -10.168  17.397  68.607  1.00  0.00    -0.361 C  
HETATM   23  C   UNL     1      -9.810  18.654  68.311  1.00  0.00    -0.410 C  
HETATM   24  C   UNL     1      -9.958  19.187  66.932  1.00  0.00    -0.345 C  
HETATM   25  N   UNL     1     -10.383  18.310  65.975  1.00  0.00    -0.401 N  
HETATM   26  O   UNL     1      -9.698  20.351  66.677  1.00  0.00    -0.413 OA 
HETATM   27  H   UNL     1     -10.457  18.644  65.014  1.00  0.00     0.000 HD 
HETATM   28  C   UNL     1     -10.725  16.968  66.241  1.00  0.00    -0.086 A  
HETATM   29  C   UNL     1     -11.140  16.136  65.198  1.00  0.00    -0.249 A  
HETATM   30  C   UNL     1     -11.521  14.831  65.465  1.00  0.00    -0.329 A  
HETATM   31  O   UNL     1     -11.181  16.535  63.889  1.00  0.00    -1.440 OA 
HETATM   32  C   UNL     1     -11.515  14.354  66.782  1.00  0.00    -0.381 A  
HETATM   33  H   UNL     1     -11.464  15.970  63.180  1.00  0.00     0.000 HD 
ENDBRANCH  17  20
ENDBRANCH  16  17
ENDBRANCH  14  16
ENDBRANCH  10  14
ENDBRANCH   2   3
TORSDOF 6
ENDMDL
MODEL       12
REMARK 921   NORMALIZED FREE ENERGY PREDICTED BY IDOCK:   -7.34 KCAL/MOL
REMARK 922        TOTAL FREE ENERGY PREDICTED BY IDOCK:  -11.19 KCAL/MOL
REMARK 923 INTER-LIGAND FREE ENERGY PREDICTED BY IDOCK:  -10.66 KCAL/MOL
REMARK 924 INTRA-LIGAND FREE ENERGY PREDICTED BY IDOCK:   -0.53 KCAL/MOL
REMARK 927      BINDING AFFINITY PREDICTED BY RF-SCORE:    0.00 PKD
ROOT
HETATM    1  C   UNL     1     -10.427  19.092  67.254  1.00  0.00    -0.549 C  
HETATM    2  C   UNL     1     -10.469  18.037  68.347  1.00  0.00    -0.326 C  
ENDROOT
BRANCH   2   3
HETATM    3  C   UNL     1     -10.791  16.604  67.964  1.00  0.00    -0.337 A  
HETATM    4  C   UNL     1     -11.427  15.794  68.949  1.00  0.00    -0.381 A  
HETATM    5  C   UNL     1     -12.091  14.632  68.554  1.00  0.00    -0.229 A  
HETATM    6  C   UNL     1     -10.409  15.999  66.749  1.00  0.00    -0.300 A  
HETATM    7  C   UNL     1     -10.805  14.683  66.530  1.00  0.00    -0.315 A  
HETATM    8  C   UNL     1     -11.824  14.122  67.302  1.00  0.00    -0.452 A  
HETATM    9  C   UNL     1     -12.029  12.689  66.925  1.00  0.00    -0.345 C  
HETATM   10  C   UNL     1     -10.531  12.349  66.851  1.00  0.00    -0.224 C  
HETATM   11  C   UNL     1     -10.036  13.517  65.880  1.00  0.00    -0.311 C  
BRANCH   4  12
HETATM   12  C   UNL     1     -11.169  16.071  70.422  1.00  0.00    -0.401 C  
HETATM   13  C   UNL     1     -12.305  15.744  71.392  1.00  0.00    -0.505 C  
ENDBRANCH   4  12
BRANCH  10  14
HETATM   14  N   UNL     1     -10.237  10.910  66.689  1.00  0.00    -0.226 NA 
HETATM   15  H   UNL     1      -9.247  10.734  66.525  1.00  0.00     0.000 HD 
BRANCH  14  16
HETATM   16  C   UNL     1     -10.762  10.154  67.888  1.00  0.00    -0.269 C  
BRANCH  16  17
HETATM   17  C   UNL     1     -10.420  10.746  69.282  1.00  0.00    -0.217 C  
HETATM   18  H   UNL     1      -8.843  10.776  70.430  1.00  0.00     0.000 HD 
HETATM   19  O   UNL     1      -9.052  10.413  69.577  1.00  0.00    -0.183 OA 
BRANCH  17  20
HETATM   20  C   UNL     1     -11.334  10.279  70.434  1.00  0.00    -0.410 A  
HETATM   21  C   UNL     1     -11.246   8.988  71.008  1.00  0.00    -0.361 A  
HETATM   22  C   UNL     1     -10.159   8.048  70.699  1.00  0.00    -0.203 C  
HETATM   23  C   UNL     1     -10.137   6.809  71.207  1.00  0.00    -0.203 C  
HETATM   24  C   UNL     1     -11.233   6.321  72.084  1.00  0.00    -0.282 C  
HETATM   25  N   UNL     1     -12.203   7.223  72.416  1.00  0.00    -0.502 N  
HETATM   26  O   UNL     1     -11.248   5.171  72.490  1.00  0.00    -0.226 OA 
HETATM   27  H   UNL     1     -12.946   6.921  73.047  1.00  0.00     0.000 HD 
HETATM   28  C   UNL     1     -12.235   8.549  71.937  1.00  0.00    -0.352 A  
HETATM   29  C   UNL     1     -13.260   9.410  72.339  1.00  0.00    -0.403 A  
HETATM   30  C   UNL     1     -13.319  10.698  71.833  1.00  0.00    -0.454 A  
HETATM   31  O   UNL     1     -14.229   9.056  73.238  1.00  0.00    -1.192 OA 
HETATM   32  C   UNL     1     -12.367  11.129  70.900  1.00  0.00    -0.500 A  
HETATM   33  H   UNL     1     -14.927   9.640  73.511  1.00  0.00     0.000 HD 
ENDBRANCH  17  20
ENDBRANCH  16  17
ENDBRANCH  14  16
ENDBRANCH  10  14
ENDBRANCH   2   3
TORSDOF 6
ENDMDL
MODEL       13
REMARK 921   NORMALIZED FREE ENERGY PREDICTED BY IDOCK:   -7.33 KCAL/MOL
REMARK 922        TOTAL FREE ENERGY PREDICTED BY IDOCK:  -11.18 KCAL/MOL
REMARK 923 INTER-LIGAND FREE ENERGY PREDICTED BY IDOCK:  -10.32 KCAL/MOL
REMARK 924 INTRA-LIGAND FREE ENERGY PREDICTED BY IDOCK:   -0.86 KCAL/MOL
REMARK 927      BINDING AFFINITY PREDICTED BY RF-SCORE:    0.00 PKD
ROOT
HETATM    1  C   UNL     1      -5.973  21.199  67.829  1.00  0.00    -0.415 C  
HETATM    2  C   UNL     1      -6.943  20.885  66.701  1.00  0.00    -0.285 C  
ENDROOT
BRANCH   2   3
HETATM    3  C   UNL     1      -7.509  19.482  66.597  1.00  0.00    -0.264 A  
HETATM    4  C   UNL     1      -8.922  19.339  66.717  1.00  0.00    -0.360 A  
HETATM    5  C   UNL     1      -9.534  18.174  66.251  1.00  0.00    -0.231 A  
HETATM    6  C   UNL     1      -6.728  18.312  66.500  1.00  0.00    -0.241 A  
HETATM    7  C   UNL     1      -7.395  17.097  66.381  1.00  0.00    -0.334 A  
HETATM    8  C   UNL     1      -8.742  17.072  66.014  1.00  0.00    -0.168 A  
HETATM    9  C   UNL     1      -9.252  15.666  66.013  1.00  0.00    -0.374 C  
HETATM   10  C   UNL     1      -8.570  15.269  67.333  1.00  0.00    -0.180 C  
HETATM   11  C   UNL     1      -7.074  15.729  67.013  1.00  0.00    -0.169 C  
BRANCH   4  12
HETATM   12  C   UNL     1      -9.703  20.336  67.558  1.00  0.00    -0.575 C  
HETATM   13  C   UNL     1     -10.177  19.856  68.930  1.00  0.00    -0.399 C  
ENDBRANCH   4  12
BRANCH  10  14
HETATM   14  N   UNL     1      -8.973  13.948  67.856  1.00  0.00    -0.181 NA 
HETATM   15  H   UNL     1      -8.963  13.917  68.875  1.00  0.00     0.000 HD 
BRANCH  14  16
HETATM   16  C   UNL     1     -10.321  13.572  67.286  1.00  0.00    -0.241 C  
BRANCH  16  17
HETATM   17  C   UNL     1     -11.046  12.373  67.958  1.00  0.00    -0.245 C  
HETATM   18  H   UNL     1     -12.446  11.123  67.428  1.00  0.00     0.000 HD 
HETATM   19  O   UNL     1     -12.003  11.857  67.017  1.00  0.00    -0.615 OA 
BRANCH  17  20
HETATM   20  C   UNL     1     -11.744  12.697  69.294  1.00  0.00    -0.379 A  
HETATM   21  C   UNL     1     -12.127  11.698  70.221  1.00  0.00    -0.443 A  
HETATM   22  C   UNL     1     -11.727  10.290  70.090  1.00  0.00    -0.364 C  
HETATM   23  C   UNL     1     -12.158   9.354  70.947  1.00  0.00    -0.327 C  
HETATM   24  C   UNL     1     -13.091   9.699  72.051  1.00  0.00    -0.445 C  
HETATM   25  N   UNL     1     -13.404  11.020  72.202  1.00  0.00    -0.585 N  
HETATM   26  O   UNL     1     -13.538   8.836  72.788  1.00  0.00    -0.357 OA 
HETATM   27  H   UNL     1     -14.013  11.284  72.976  1.00  0.00     0.000 HD 
HETATM   28  C   UNL     1     -12.933  12.038  71.348  1.00  0.00    -0.262 A  
HETATM   29  C   UNL     1     -13.295  13.367  71.584  1.00  0.00    -0.338 A  
HETATM   30  C   UNL     1     -12.871  14.362  70.719  1.00  0.00    -0.417 A  
HETATM   31  O   UNL     1     -14.051  13.761  72.654  1.00  0.00    -0.715 OA 
HETATM   32  C   UNL     1     -12.101  14.034  69.595  1.00  0.00    -0.408 A  
HETATM   33  H   UNL     1     -14.298  14.665  72.814  1.00  0.00     0.000 HD 
ENDBRANCH  17  20
ENDBRANCH  16  17
ENDBRANCH  14  16
ENDBRANCH  10  14
ENDBRANCH   2   3
TORSDOF 6
ENDMDL
MODEL       14
REMARK 921   NORMALIZED FREE ENERGY PREDICTED BY IDOCK:   -7.25 KCAL/MOL
REMARK 922        TOTAL FREE ENERGY PREDICTED BY IDOCK:  -11.07 KCAL/MOL
REMARK 923 INTER-LIGAND FREE ENERGY PREDICTED BY IDOCK:   -9.72 KCAL/MOL
REMARK 924 INTRA-LIGAND FREE ENERGY PREDICTED BY IDOCK:   -1.34 KCAL/MOL
REMARK 927      BINDING AFFINITY PREDICTED BY RF-SCORE:    0.00 PKD
ROOT
HETATM    1  C   UNL     1     -14.054   8.480  72.018  1.00  0.00    -0.516 C  
HETATM    2  C   UNL     1     -12.797   9.297  72.264  1.00  0.00    -0.459 C  
ENDROOT
BRANCH   2   3
HETATM    3  C   UNL     1     -12.553  10.532  71.417  1.00  0.00    -0.539 A  
HETATM    4  C   UNL     1     -11.679  10.393  70.299  1.00  0.00    -0.406 A  
HETATM    5  C   UNL     1     -11.718  11.344  69.279  1.00  0.00    -0.404 A  
HETATM    6  C   UNL     1     -13.042  11.818  71.723  1.00  0.00    -0.480 A  
HETATM    7  C   UNL     1     -12.759  12.847  70.831  1.00  0.00    -0.291 A  
HETATM    8  C   UNL     1     -12.331  12.551  69.535  1.00  0.00     0.009 A  
HETATM    9  C   UNL     1     -12.031  13.812  68.788  1.00  0.00    -0.400 C  
HETATM   10  C   UNL     1     -11.292  14.492  69.952  1.00  0.00    -0.241 C  
HETATM   11  C   UNL     1     -12.383  14.316  71.105  1.00  0.00    -0.440 C  
BRANCH   4  12
HETATM   12  C   UNL     1     -10.563   9.361  70.349  1.00  0.00    -0.316 C  
HETATM   13  C   UNL     1      -9.166   9.840  69.954  1.00  0.00    -0.263 C  
ENDBRANCH   4  12
BRANCH  10  14
HETATM   14  N   UNL     1     -10.613  15.753  69.592  1.00  0.00    -0.270 NA 
HETATM   15  H   UNL     1      -9.664  15.800  69.962  1.00  0.00     0.000 HD 
BRANCH  14  16
HETATM   16  C   UNL     1     -10.652  15.933  68.092  1.00  0.00    -0.280 C  
BRANCH  16  17
HETATM   17  C   UNL     1      -9.354  15.566  67.319  1.00  0.00    -0.212 C  
HETATM   18  H   UNL     1      -8.436  16.254  65.742  1.00  0.00     0.000 HD 
HETATM   19  O   UNL     1      -9.230  16.478  66.214  1.00  0.00    -0.271 OA 
BRANCH  17  20
HETATM   20  C   UNL     1      -9.285  14.112  66.810  1.00  0.00    -0.282 A  
HETATM   21  C   UNL     1     -10.170  13.598  65.832  1.00  0.00    -0.318 A  
HETATM   22  C   UNL     1     -11.103  14.443  65.075  1.00  0.00    -0.385 C  
HETATM   23  C   UNL     1     -11.975  13.921  64.203  1.00  0.00    -0.464 C  
HETATM   24  C   UNL     1     -12.056  12.452  63.988  1.00  0.00    -0.475 C  
HETATM   25  N   UNL     1     -11.142  11.682  64.648  1.00  0.00    -0.300 N  
HETATM   26  O   UNL     1     -12.897  11.972  63.246  1.00  0.00    -0.732 OA 
HETATM   27  H   UNL     1     -11.154  10.676  64.487  1.00  0.00     0.000 HD 
HETATM   28  C   UNL     1     -10.180  12.202  65.539  1.00  0.00    -0.265 A  
HETATM   29  C   UNL     1      -9.273  11.341  66.163  1.00  0.00    -0.206 A  
HETATM   30  C   UNL     1      -8.358  11.844  67.074  1.00  0.00    -0.178 A  
HETATM   31  O   UNL     1      -9.219   9.997  65.913  1.00  0.00    -0.151 OA 
HETATM   32  C   UNL     1      -8.358  13.209  67.388  1.00  0.00    -0.188 A  
HETATM   33  H   UNL     1      -8.603   9.411  66.338  1.00  0.00     0.000 HD 
ENDBRANCH  17  20
ENDBRANCH  16  17
ENDBRANCH  14  16
ENDBRANCH  10  14
ENDBRANCH   2   3
TORSDOF 6
ENDMDL
MODEL       15
REMARK 921   NORMALIZED FREE ENERGY PREDICTED BY IDOCK:   -7.23 KCAL/MOL
REMARK 922        TOTAL FREE ENERGY PREDICTED BY IDOCK:  -11.05 KCAL/MOL
REMARK 923 INTER-LIGAND FREE ENERGY PREDICTED BY IDOCK:  -10.04 KCAL/MOL
REMARK 924 INTRA-LIGAND FREE ENERGY PREDICTED BY IDOCK:   -1.01 KCAL/MOL
REMARK 927      BINDING AFFINITY PREDICTED BY RF-SCORE:    0.00 PKD
ROOT
HETATM    1  C   UNL     1      -5.488  21.021  68.815  1.00  0.00    -0.371 C  
HETATM    2  C   UNL     1      -6.429  21.012  67.621  1.00  0.00    -0.417 C  
ENDROOT
BRANCH   2   3
HETATM    3  C   UNL     1      -7.135  19.719  67.260  1.00  0.00    -0.250 A  
HETATM    4  C   UNL     1      -6.441  18.814  66.405  1.00  0.00    -0.223 A  
HETATM    5  C   UNL     1      -6.843  17.479  66.353  1.00  0.00    -0.308 A  
HETATM    6  C   UNL     1      -8.462  19.408  67.623  1.00  0.00    -0.339 A  
HETATM    7  C   UNL     1      -8.962  18.166  67.242  1.00  0.00    -0.248 A  
HETATM    8  C   UNL     1      -8.088  17.152  66.846  1.00  0.00    -0.247 A  
HETATM    9  C   UNL     1      -8.857  15.940  66.427  1.00  0.00    -0.368 C  
HETATM   10  C   UNL     1      -9.914  16.717  65.624  1.00  0.00    -0.167 C  
HETATM   11  C   UNL     1     -10.362  17.782  66.725  1.00  0.00    -0.343 C  
BRANCH   4  12
HETATM   12  C   UNL     1      -5.445  19.360  65.395  1.00  0.00    -0.193 C  
HETATM   13  C   UNL     1      -6.025  19.993  64.130  1.00  0.00    -0.313 C  
ENDBRANCH   4  12
BRANCH  10  14
HETATM   14  N   UNL     1     -10.822  15.867  64.826  1.00  0.00    -0.738 NA 
HETATM   15  H   UNL     1     -10.787  16.091  63.832  1.00  0.00     0.000 HD 
BRANCH  14  16
HETATM   16  C   UNL     1     -10.512  14.412  65.095  1.00  0.00    -0.415 C  
BRANCH  16  17
HETATM   17  C   UNL     1     -11.725  13.497  65.424  1.00  0.00    -0.332 C  
HETATM   18  H   UNL     1     -13.660  13.730  65.498  1.00  0.00     0.000 HD 
HETATM   19  O   UNL     1     -12.918  14.289  65.297  1.00  0.00    -0.679 OA 
BRANCH  17  20
HETATM   20  C   UNL     1     -11.682  12.829  66.813  1.00  0.00    -0.459 A  
HETATM   21  C   UNL     1     -11.709  13.567  68.021  1.00  0.00    -0.394 A  
HETATM   22  C   UNL     1     -11.974  15.012  68.069  1.00  0.00    -0.167 C  
HETATM   23  C   UNL     1     -11.929  15.696  69.220  1.00  0.00    -0.338 C  
HETATM   24  C   UNL     1     -11.575  15.024  70.497  1.00  0.00    -0.298 C  
HETATM   25  N   UNL     1     -11.395  13.671  70.451  1.00  0.00    -0.471 N  
HETATM   26  O   UNL     1     -11.466  15.660  71.533  1.00  0.00    -0.368 OA 
HETATM   27  H   UNL     1     -11.188  13.183  71.323  1.00  0.00     0.000 HD 
HETATM   28  C   UNL     1     -11.480  12.911  69.266  1.00  0.00    -0.282 A  
HETATM   29  C   UNL     1     -11.293  11.527  69.313  1.00  0.00    -0.288 A  
HETATM   30  C   UNL     1     -11.329  10.785  68.144  1.00  0.00    -0.377 A  
HETATM   31  O   UNL     1     -11.085  10.835  70.475  1.00  0.00    -0.448 OA 
HETATM   32  C   UNL     1     -11.528  11.424  66.913  1.00  0.00    -0.198 A  
HETATM   33  H   UNL     1     -10.957   9.894  70.508  1.00  0.00     0.000 HD 
ENDBRANCH  17  20
ENDBRANCH  16  17
ENDBRANCH  14  16
ENDBRANCH  10  14
ENDBRANCH   2   3
TORSDOF 6
ENDMDL
MODEL       16
REMARK 921   NORMALIZED FREE ENERGY PREDICTED BY IDOCK:   -7.23 KCAL/MOL
REMARK 922        TOTAL FREE ENERGY PREDICTED BY IDOCK:  -11.05 KCAL/MOL
REMARK 923 INTER-LIGAND FREE ENERGY PREDICTED BY IDOCK:  -10.09 KCAL/MOL
REMARK 924 INTRA-LIGAND FREE ENERGY PREDICTED BY IDOCK:   -0.96 KCAL/MOL
REMARK 927      BINDING AFFINITY PREDICTED BY RF-SCORE:    0.00 PKD
ROOT
HETATM    1  C   UNL     1     -11.402   5.853  72.582  1.00  0.00    -0.337 C  
HETATM    2  C   UNL     1     -12.227   6.816  71.744  1.00  0.00    -0.402 C  
ENDROOT
BRANCH   2   3
HETATM    3  C   UNL     1     -11.521   7.669  70.707  1.00  0.00    -0.295 A  
HETATM    4  C   UNL     1     -11.659   9.082  70.823  1.00  0.00    -0.313 A  
HETATM    5  C   UNL     1     -10.748   9.914  70.169  1.00  0.00    -0.361 A  
HETATM    6  C   UNL     1     -10.837   7.156  69.586  1.00  0.00    -0.254 A  
HETATM    7  C   UNL     1     -10.213   8.065  68.738  1.00  0.00    -0.220 A  
HETATM    8  C   UNL     1      -9.971   9.371  69.169  1.00  0.00    -0.184 A  
HETATM    9  C   UNL     1      -9.351  10.173  68.069  1.00  0.00    -0.149 C  
HETATM   10  C   UNL     1     -10.283   9.642  66.967  1.00  0.00    -0.244 C  
HETATM   11  C   UNL     1     -10.112   8.071  67.201  1.00  0.00    -0.334 C  
BRANCH   4  12
HETATM   12  C   UNL     1     -12.919   9.660  71.446  1.00  0.00    -0.474 C  
HETATM   13  C   UNL     1     -12.993  11.183  71.562  1.00  0.00    -0.542 C  
ENDBRANCH   4  12
BRANCH  10  14
HETATM   14  N   UNL     1     -10.158  10.341  65.672  1.00  0.00    -0.281 NA 
HETATM   15  H   UNL     1     -10.779   9.953  64.962  1.00  0.00     0.000 HD 
BRANCH  14  16
HETATM   16  C   UNL     1     -10.378  11.822  65.877  1.00  0.00    -0.241 C  
BRANCH  16  17
HETATM   17  C   UNL     1     -11.745  12.238  66.488  1.00  0.00    -0.352 C  
HETATM   18  H   UNL     1     -13.493  12.730  65.776  1.00  0.00     0.000 HD 
HETATM   19  O   UNL     1     -12.657  12.475  65.402  1.00  0.00    -0.656 OA 
BRANCH  17  20
HETATM   20  C   UNL     1     -11.699  13.470  67.414  1.00  0.00    -0.419 A  
HETATM   21  C   UNL     1     -11.296  14.752  66.968  1.00  0.00    -0.358 A  
HETATM   22  C   UNL     1     -11.071  15.070  65.551  1.00  0.00    -0.358 C  
HETATM   23  C   UNL     1     -10.627  16.273  65.163  1.00  0.00    -0.327 C  
HETATM   24  C   UNL     1     -10.310  17.330  66.159  1.00  0.00    -0.317 C  
HETATM   25  N   UNL     1     -10.583  17.045  67.466  1.00  0.00    -0.331 N  
HETATM   26  O   UNL     1      -9.839  18.400  65.810  1.00  0.00    -0.503 OA 
HETATM   27  H   UNL     1     -10.408  17.769  68.163  1.00  0.00     0.000 HD 
HETATM   28  C   UNL     1     -11.094  15.806  67.906  1.00  0.00    -0.326 A  
HETATM   29  C   UNL     1     -11.356  15.605  69.264  1.00  0.00    -0.345 A  
HETATM   30  C   UNL     1     -11.814  14.374  69.704  1.00  0.00    -0.372 A  
HETATM   31  O   UNL     1     -11.199  16.579  70.213  1.00  0.00    -0.464 OA 
HETATM   32  C   UNL     1     -11.990  13.325  68.793  1.00  0.00    -0.335 A  
HETATM   33  H   UNL     1     -11.377  16.443  71.136  1.00  0.00     0.000 HD 
ENDBRANCH  17  20
ENDBRANCH  16  17
ENDBRANCH  14  16
ENDBRANCH  10  14
ENDBRANCH   2   3
TORSDOF 6
ENDMDL
MODEL       17
REMARK 921   NORMALIZED FREE ENERGY PREDICTED BY IDOCK:   -7.23 KCAL/MOL
REMARK 922        TOTAL FREE ENERGY PREDICTED BY IDOCK:  -11.04 KCAL/MOL
REMARK 923 INTER-LIGAND FREE ENERGY PREDICTED BY IDOCK:  -10.02 KCAL/MOL
REMARK 924 INTRA-LIGAND FREE ENERGY PREDICTED BY IDOCK:   -1.02 KCAL/MOL
REMARK 927      BINDING AFFINITY PREDICTED BY RF-SCORE:    0.00 PKD
ROOT
HETATM    1  C   UNL     1      -7.485   5.460  73.971  1.00  0.00    -0.090 C  
HETATM    2  C   UNL     1      -8.673   6.277  74.452  1.00  0.00    -0.144 C  
ENDROOT
BRANCH   2   3
HETATM    3  C   UNL     1      -9.419   7.137  73.450  1.00  0.00    -0.234 A  
HETATM    4  C   UNL     1     -10.733   6.723  73.086  1.00  0.00    -0.326 A  
HETATM    5  C   UNL     1     -11.602   7.644  72.498  1.00  0.00    -0.382 A  
HETATM    6  C   UNL     1      -8.862   8.247  72.782  1.00  0.00    -0.310 A  
HETATM    7  C   UNL     1      -9.683   8.957  71.911  1.00  0.00    -0.349 A  
HETATM    8  C   UNL     1     -11.069   8.802  71.975  1.00  0.00    -0.441 A  
HETATM    9  C   UNL     1     -11.731   9.614  70.908  1.00  0.00    -0.412 C  
HETATM   10  C   UNL     1     -10.733   9.230  69.802  1.00  0.00    -0.231 C  
HETATM   11  C   UNL     1      -9.362   9.583  70.541  1.00  0.00    -0.296 C  
BRANCH   4  12
HETATM   12  C   UNL     1     -11.084   5.244  73.119  1.00  0.00    -0.384 C  
HETATM   13  C   UNL     1     -10.370   4.346  72.109  1.00  0.00    -0.213 C  
ENDBRANCH   4  12
BRANCH  10  14
HETATM   14  N   UNL     1     -11.122   9.673  68.447  1.00  0.00    -0.481 NA 
HETATM   15  H   UNL     1     -12.124   9.581  68.284  1.00  0.00     0.000 HD 
BRANCH  14  16
HETATM   16  C   UNL     1     -10.634  11.086  68.222  1.00  0.00    -0.187 C  
BRANCH  16  17
HETATM   17  C   UNL     1     -11.727  12.165  67.986  1.00  0.00    -0.344 C  
HETATM   18  H   UNL     1     -12.696  12.843  66.436  1.00  0.00     0.000 HD 
HETATM   19  O   UNL     1     -12.028  12.183  66.580  1.00  0.00    -0.616 OA 
BRANCH  17  20
HETATM   20  C   UNL     1     -11.359  13.584  68.464  1.00  0.00    -0.327 A  
HETATM   21  C   UNL     1     -11.841  14.135  69.676  1.00  0.00    -0.379 A  
HETATM   22  C   UNL     1     -12.572  13.346  70.678  1.00  0.00    -0.325 C  
HETATM   23  C   UNL     1     -13.073  13.908  71.785  1.00  0.00    -0.458 C  
HETATM   24  C   UNL     1     -12.938  15.368  72.032  1.00  0.00    -0.401 C  
HETATM   25  N   UNL     1     -12.202  16.079  71.127  1.00  0.00    -0.560 N  
HETATM   26  O   UNL     1     -13.454  15.890  73.005  1.00  0.00    -0.551 OA 
HETATM   27  H   UNL     1     -12.064  17.075  71.296  1.00  0.00     0.000 HD 
HETATM   28  C   UNL     1     -11.621  15.512  69.974  1.00  0.00    -0.341 A  
HETATM   29  C   UNL     1     -10.872  16.313  69.107  1.00  0.00    -0.314 A  
HETATM   30  C   UNL     1     -10.340  15.768  67.950  1.00  0.00    -0.261 A  
HETATM   31  O   UNL     1     -10.611  17.635  69.343  1.00  0.00    -0.404 OA 
HETATM   32  C   UNL     1     -10.573  14.423  67.636  1.00  0.00    -0.260 A  
HETATM   33  H   UNL     1     -10.102  18.180  68.753  1.00  0.00     0.000 HD 
ENDBRANCH  17  20
ENDBRANCH  16  17
ENDBRANCH  14  16
ENDBRANCH  10  14
ENDBRANCH   2   3
TORSDOF 6
ENDMDL
MODEL       18
REMARK 921   NORMALIZED FREE ENERGY PREDICTED BY IDOCK:   -7.22 KCAL/MOL
REMARK 922        TOTAL FREE ENERGY PREDICTED BY IDOCK:  -11.04 KCAL/MOL
REMARK 923 INTER-LIGAND FREE ENERGY PREDICTED BY IDOCK:   -9.82 KCAL/MOL
REMARK 924 INTRA-LIGAND FREE ENERGY PREDICTED BY IDOCK:   -1.21 KCAL/MOL
REMARK 927      BINDING AFFINITY PREDICTED BY RF-SCORE:    0.00 PKD
ROOT
HETATM    1  C   UNL     1     -10.364   5.347  69.449  1.00  0.00    -0.339 C  
HETATM    2  C   UNL     1     -11.174   6.617  69.245  1.00  0.00    -0.326 C  
ENDROOT
BRANCH   2   3
HETATM    3  C   UNL     1     -10.514   7.800  68.564  1.00  0.00    -0.202 A  
HETATM    4  C   UNL     1     -10.058   8.862  69.398  1.00  0.00    -0.202 A  
HETATM    5  C   UNL     1      -9.119   9.767  68.902  1.00  0.00    -0.148 A  
HETATM    6  C   UNL     1     -10.421   7.966  67.167  1.00  0.00    -0.414 A  
HETATM    7  C   UNL     1      -9.759   9.093  66.691  1.00  0.00    -0.287 A  
HETATM    8  C   UNL     1      -8.923   9.822  67.539  1.00  0.00    -0.138 A  
HETATM    9  C   UNL     1      -8.375  11.016  66.825  1.00  0.00    -0.147 C  
HETATM   10  C   UNL     1      -9.707  11.404  66.161  1.00  0.00    -0.219 C  
HETATM   11  C   UNL     1     -10.095  10.005  65.496  1.00  0.00    -0.325 C  
BRANCH   4  12
HETATM   12  C   UNL     1     -10.771   9.135  70.713  1.00  0.00    -0.327 C  
HETATM   13  C   UNL     1     -11.698  10.350  70.754  1.00  0.00    -0.464 C  
ENDBRANCH   4  12
BRANCH  10  14
HETATM   14  N   UNL     1      -9.688  12.711  65.472  1.00  0.00    -0.434 NA 
HETATM   15  H   UNL     1      -9.032  12.727  64.692  1.00  0.00     0.000 HD 
BRANCH  14  16
HETATM   16  C   UNL     1     -11.093  13.072  65.044  1.00  0.00    -0.294 C  
BRANCH  16  17
HETATM   17  C   UNL     1     -12.005  13.702  66.132  1.00  0.00    -0.416 C  
HETATM   18  H   UNL     1     -13.802  14.459  66.170  1.00  0.00     0.000 HD 
HETATM   19  O   UNL     1     -13.244  14.073  65.504  1.00  0.00    -0.710 OA 
BRANCH  17  20
HETATM   20  C   UNL     1     -11.404  14.917  66.867  1.00  0.00    -0.338 A  
HETATM   21  C   UNL     1     -11.519  15.101  68.266  1.00  0.00    -0.350 A  
HETATM   22  C   UNL     1     -12.047  14.068  69.168  1.00  0.00    -0.375 C  
HETATM   23  C   UNL     1     -12.205  14.294  70.479  1.00  0.00    -0.427 C  
HETATM   24  C   UNL     1     -11.882  15.618  71.072  1.00  0.00    -0.400 C  
HETATM   25  N   UNL     1     -11.332  16.549  70.238  1.00  0.00    -0.463 N  
HETATM   26  O   UNL     1     -12.092  15.845  72.252  1.00  0.00    -0.410 OA 
HETATM   27  H   UNL     1     -11.067  17.452  70.631  1.00  0.00     0.000 HD 
HETATM   28  C   UNL     1     -11.108  16.330  68.862  1.00  0.00    -0.345 A  
HETATM   29  C   UNL     1     -10.529  17.335  68.084  1.00  0.00    -0.382 A  
HETATM   30  C   UNL     1     -10.351  17.140  66.724  1.00  0.00    -0.302 A  
HETATM   31  O   UNL     1     -10.098  18.530  68.596  1.00  0.00    -0.366 OA 
HETATM   32  C   UNL     1     -10.775  15.947  66.125  1.00  0.00    -0.273 A  
HETATM   33  H   UNL     1      -9.705  19.213  68.067  1.00  0.00     0.000 HD 
ENDBRANCH  17  20
ENDBRANCH  16  17
ENDBRANCH  14  16
ENDBRANCH  10  14
ENDBRANCH   2   3
TORSDOF 6
ENDMDL
MODEL       19
REMARK 921   NORMALIZED FREE ENERGY PREDICTED BY IDOCK:   -7.20 KCAL/MOL
REMARK 922        TOTAL FREE ENERGY PREDICTED BY IDOCK:  -11.01 KCAL/MOL
REMARK 923 INTER-LIGAND FREE ENERGY PREDICTED BY IDOCK:   -9.99 KCAL/MOL
REMARK 924 INTRA-LIGAND FREE ENERGY PREDICTED BY IDOCK:   -1.02 KCAL/MOL
REMARK 927      BINDING AFFINITY PREDICTED BY RF-SCORE:    0.00 PKD
ROOT
HETATM    1  C   UNL     1     -10.558  19.834  65.730  1.00  0.00    -0.522 C  
HETATM    2  C   UNL     1      -9.730  19.441  66.942  1.00  0.00    -0.431 C  
ENDROOT
BRANCH   2   3
HETATM    3  C   UNL     1      -9.551  17.967  67.256  1.00  0.00    -0.269 A  
HETATM    4  C   UNL     1      -8.228  17.441  67.178  1.00  0.00    -0.229 A  
HETATM    5  C   UNL     1      -7.935  16.235  67.816  1.00  0.00    -0.154 A  
HETATM    6  C   UNL     1     -10.610  17.072  67.509  1.00  0.00    -0.310 A  
HETATM    7  C   UNL     1     -10.284  15.753  67.810  1.00  0.00    -0.251 A  
HETATM    8  C   UNL     1      -8.983  15.426  68.197  1.00  0.00    -0.176 A  
HETATM    9  C   UNL     1      -8.862  13.950  68.408  1.00  0.00    -0.177 C  
HETATM   10  C   UNL     1      -9.656  13.564  67.149  1.00  0.00    -0.241 C  
HETATM   11  C   UNL     1     -10.969  14.444  67.377  1.00  0.00    -0.303 C  
BRANCH   4  12
HETATM   12  C   UNL     1      -7.232  18.065  66.214  1.00  0.00    -0.310 C  
HETATM   13  C   UNL     1      -5.796  17.546  66.278  1.00  0.00    -0.244 C  
ENDBRANCH   4  12
BRANCH  10  14
HETATM   14  N   UNL     1      -9.628  12.122  66.827  1.00  0.00    -0.206 NA 
HETATM   15  H   UNL     1      -8.702  11.716  66.953  1.00  0.00     0.000 HD 
BRANCH  14  16
HETATM   16  C   UNL     1     -10.681  11.406  67.641  1.00  0.00    -0.216 C  
BRANCH  16  17
HETATM   17  C   UNL     1     -10.217  10.810  68.999  1.00  0.00    -0.213 C  
HETATM   18  H   UNL     1      -9.173   9.258  69.550  1.00  0.00     0.000 HD 
HETATM   19  O   UNL     1      -9.457   9.622  68.719  1.00  0.00    -0.144 OA 
BRANCH  17  20
HETATM   20  C   UNL     1     -11.351  10.487  69.993  1.00  0.00    -0.392 A  
HETATM   21  C   UNL     1     -12.095  11.489  70.661  1.00  0.00    -0.450 A  
HETATM   22  C   UNL     1     -11.991  12.917  70.329  1.00  0.00    -0.359 C  
HETATM   23  C   UNL     1     -12.658  13.849  71.022  1.00  0.00    -0.444 C  
HETATM   24  C   UNL     1     -13.510  13.478  72.182  1.00  0.00    -0.537 C  
HETATM   25  N   UNL     1     -13.650  12.145  72.441  1.00  0.00    -0.518 N  
HETATM   26  O   UNL     1     -14.061  14.333  72.855  1.00  0.00    -0.525 OA 
HETATM   27  H   UNL     1     -14.259  11.865  73.209  1.00  0.00     0.000 HD 
HETATM   28  C   UNL     1     -12.999  11.133  71.705  1.00  0.00    -0.443 A  
HETATM   29  C   UNL     1     -13.210   9.791  72.032  1.00  0.00    -0.460 A  
HETATM   30  C   UNL     1     -12.536   8.797  71.340  1.00  0.00    -0.348 A  
HETATM   31  O   UNL     1     -14.075   9.382  73.010  1.00  0.00    -0.936 OA 
HETATM   32  C   UNL     1     -11.626   9.139  70.332  1.00  0.00    -0.181 A  
HETATM   33  H   UNL     1     -14.218   8.469  73.233  1.00  0.00     0.000 HD 
ENDBRANCH  17  20
ENDBRANCH  16  17
ENDBRANCH  14  16
ENDBRANCH  10  14
ENDBRANCH   2   3
TORSDOF 6
ENDMDL
MODEL       20
REMARK 921   NORMALIZED FREE ENERGY PREDICTED BY IDOCK:   -7.10 KCAL/MOL
REMARK 922        TOTAL FREE ENERGY PREDICTED BY IDOCK:  -10.87 KCAL/MOL
REMARK 923 INTER-LIGAND FREE ENERGY PREDICTED BY IDOCK:   -9.97 KCAL/MOL
REMARK 924 INTRA-LIGAND FREE ENERGY PREDICTED BY IDOCK:   -0.90 KCAL/MOL
REMARK 927      BINDING AFFINITY PREDICTED BY RF-SCORE:    0.00 PKD
ROOT
HETATM    1  C   UNL     1     -10.648   3.637  73.221  1.00  0.00    -0.276 C  
HETATM    2  C   UNL     1     -10.807   5.049  73.762  1.00  0.00    -0.366 C  
ENDROOT
BRANCH   2   3
HETATM    3  C   UNL     1     -10.875   6.202  72.780  1.00  0.00    -0.282 A  
HETATM    4  C   UNL     1      -9.640   6.788  72.376  1.00  0.00    -0.164 A  
HETATM    5  C   UNL     1      -9.597   7.560  71.214  1.00  0.00    -0.165 A  
HETATM    6  C   UNL     1     -12.072   6.796  72.329  1.00  0.00    -0.212 A  
HETATM    7  C   UNL     1     -11.972   7.829  71.403  1.00  0.00    -0.331 A  
HETATM    8  C   UNL     1     -10.786   8.018  70.690  1.00  0.00    -0.240 A  
HETATM    9  C   UNL     1     -10.899   9.219  69.806  1.00  0.00    -0.239 C  
HETATM   10  C   UNL     1     -11.581  10.105  70.861  1.00  0.00    -0.372 C  
HETATM   11  C   UNL     1     -12.777   9.139  71.294  1.00  0.00    -0.340 C  
BRANCH   4  12
HETATM   12  C   UNL     1      -8.457   6.767  73.332  1.00  0.00    -0.132 C  
HETATM   13  C   UNL     1      -8.305   7.969  74.264  1.00  0.00    -0.285 C  
ENDBRANCH   4  12
BRANCH  10  14
HETATM   14  N   UNL     1     -11.717  11.524  70.472  1.00  0.00    -0.485 NA 
HETATM   15  H   UNL     1     -10.902  12.076  70.736  1.00  0.00     0.000 HD 
BRANCH  14  16
HETATM   16  C   UNL     1     -12.012  11.612  68.992  1.00  0.00    -0.305 C  
BRANCH  16  17
HETATM   17  C   UNL     1     -11.016  12.445  68.138  1.00  0.00    -0.228 C  
HETATM   18  H   UNL     1     -10.198  14.209  68.286  1.00  0.00     0.000 HD 
HETATM   19  O   UNL     1     -10.806  13.700  68.808  1.00  0.00    -0.248 OA 
BRANCH  17  20
HETATM   20  C   UNL     1     -11.454  12.695  66.680  1.00  0.00    -0.409 A  
HETATM   21  C   UNL     1     -10.934  11.961  65.587  1.00  0.00    -0.353 A  
HETATM   22  C   UNL     1     -10.084  10.774  65.752  1.00  0.00    -0.320 C  
HETATM   23  C   UNL     1      -9.553  10.138  64.699  1.00  0.00    -0.379 C  
HETATM   24  C   UNL     1      -9.777  10.629  63.315  1.00  0.00    -0.340 C  
HETATM   25  N   UNL     1     -10.621  11.693  63.169  1.00  0.00    -0.663 N  
HETATM   26  O   UNL     1      -9.237  10.091  62.363  1.00  0.00    -0.271 OA 
HETATM   27  H   UNL     1     -10.819  12.025  62.225  1.00  0.00     0.000 HD 
HETATM   28  C   UNL     1     -11.234  12.359  64.251  1.00  0.00    -0.353 A  
HETATM   29  C   UNL     1     -12.094  13.434  64.008  1.00  0.00    -0.449 A  
HETATM   30  C   UNL     1     -12.660  14.119  65.071  1.00  0.00    -0.399 A  
HETATM   31  O   UNL     1     -12.435  13.856  62.752  1.00  0.00    -0.901 OA 
HETATM   32  C   UNL     1     -12.351  13.751  66.387  1.00  0.00    -0.460 A  
HETATM   33  H   UNL     1     -13.019  14.586  62.586  1.00  0.00     0.000 HD 
ENDBRANCH  17  20
ENDBRANCH  16  17
ENDBRANCH  14  16
ENDBRANCH  10  14
ENDBRANCH   2   3
TORSDOF 6
ENDMDL
MODEL       21
REMARK 921   NORMALIZED FREE ENERGY PREDICTED BY IDOCK:   -7.07 KCAL/MOL
REMARK 922        TOTAL FREE ENERGY PREDICTED BY IDOCK:  -10.82 KCAL/MOL
REMARK 923 INTER-LIGAND FREE ENERGY PREDICTED BY IDOCK:   -8.99 KCAL/MOL
REMARK 924 INTRA-LIGAND FREE ENERGY PREDICTED BY IDOCK:   -1.84 KCAL/MOL
REMARK 927      BINDING AFFINITY PREDICTED BY RF-SCORE:    0.00 PKD
ROOT
HETATM    1  C   UNL     1     -14.376   7.341  71.742  1.00  0.00    -0.560 C  
HETATM    2  C   UNL     1     -13.125   8.203  71.792  1.00  0.00    -0.367 C  
ENDROOT
BRANCH   2   3
HETATM    3  C   UNL     1     -12.030   7.958  70.772  1.00  0.00    -0.146 A  
HETATM    4  C   UNL     1     -11.136   9.035  70.504  1.00  0.00    -0.297 A  
HETATM    5  C   UNL     1      -9.907   8.768  69.898  1.00  0.00    -0.189 A  
HETATM    6  C   UNL     1     -11.907   6.783  70.001  1.00  0.00    -0.265 A  
HETATM    7  C   UNL     1     -10.830   6.694  69.126  1.00  0.00    -0.329 A  
HETATM    8  C   UNL     1      -9.739   7.554  69.270  1.00  0.00    -0.163 A  
HETATM    9  C   UNL     1      -8.740   7.310  68.183  1.00  0.00    -0.128 C  
HETATM   10  C   UNL     1      -9.783   7.200  67.058  1.00  0.00    -0.170 C  
HETATM   11  C   UNL     1     -10.761   6.113  67.701  1.00  0.00    -0.388 C  
BRANCH   4  12
HETATM   12  C   UNL     1     -11.626  10.466  70.657  1.00  0.00    -0.440 C  
HETATM   13  C   UNL     1     -12.404  11.055  69.481  1.00  0.00    -0.266 C  
ENDBRANCH   4  12
BRANCH  10  14
HETATM   14  N   UNL     1      -9.211   7.148  65.697  1.00  0.00    -0.375 NA 
HETATM   15  H   UNL     1      -9.914   6.935  64.991  1.00  0.00     0.000 HD 
BRANCH  14  16
HETATM   16  C   UNL     1      -8.485   8.443  65.409  1.00  0.00    -0.176 C  
BRANCH  16  17
HETATM   17  C   UNL     1      -9.315   9.561  64.722  1.00  0.00    -0.169 C  
HETATM   18  H   UNL     1      -9.069  10.721  63.173  1.00  0.00     0.000 HD 
HETATM   19  O   UNL     1      -8.561  10.037  63.593  1.00  0.00    -0.168 OA 
BRANCH  17  20
HETATM   20  C   UNL     1      -9.700  10.745  65.633  1.00  0.00    -0.287 A  
HETATM   21  C   UNL     1     -10.551  11.794  65.211  1.00  0.00    -0.327 A  
HETATM   22  C   UNL     1     -11.298  11.757  63.945  1.00  0.00    -0.494 C  
HETATM   23  C   UNL     1     -12.045  12.792  63.540  1.00  0.00    -0.642 C  
HETATM   24  C   UNL     1     -12.124  14.040  64.344  1.00  0.00    -0.458 C  
HETATM   25  N   UNL     1     -11.479  14.039  65.547  1.00  0.00    -0.311 N  
HETATM   26  O   UNL     1     -12.748  15.008  63.941  1.00  0.00    -0.775 OA 
HETATM   27  H   UNL     1     -11.550  14.871  66.132  1.00  0.00     0.000 HD 
HETATM   28  C   UNL     1     -10.721  12.951  66.027  1.00  0.00    -0.277 A  
HETATM   29  C   UNL     1     -10.103  13.031  67.278  1.00  0.00    -0.235 A  
HETATM   30  C   UNL     1      -9.319  11.982  67.730  1.00  0.00    -0.190 A  
HETATM   31  O   UNL     1     -10.238  14.105  68.116  1.00  0.00    -0.229 OA 
HETATM   32  C   UNL     1      -9.126  10.853  66.924  1.00  0.00    -0.164 A  
HETATM   33  H   UNL     1      -9.818  14.160  68.966  1.00  0.00     0.000 HD 
ENDBRANCH  17  20
ENDBRANCH  16  17
ENDBRANCH  14  16
ENDBRANCH  10  14
ENDBRANCH   2   3
TORSDOF 6
ENDMDL
MODEL       22
REMARK 921   NORMALIZED FREE ENERGY PREDICTED BY IDOCK:   -7.06 KCAL/MOL
REMARK 922        TOTAL FREE ENERGY PREDICTED BY IDOCK:  -10.81 KCAL/MOL
REMARK 923 INTER-LIGAND FREE ENERGY PREDICTED BY IDOCK:   -9.05 KCAL/MOL
REMARK 924 INTRA-LIGAND FREE ENERGY PREDICTED BY IDOCK:   -1.76 KCAL/MOL
REMARK 927      BINDING AFFINITY PREDICTED BY RF-SCORE:    0.00 PKD
ROOT
HETATM    1  C   UNL     1     -10.757   5.422  66.515  1.00  0.00    -0.309 C  
HETATM    2  C   UNL     1     -10.793   6.036  67.905  1.00  0.00    -0.378 C  
ENDROOT
BRANCH   2   3
HETATM    3  C   UNL     1     -10.049   7.335  68.147  1.00  0.00    -0.201 A  
HETATM    4  C   UNL     1      -9.692   7.641  69.492  1.00  0.00    -0.168 A  
HETATM    5  C   UNL     1      -8.694   8.586  69.737  1.00  0.00    -0.132 A  
HETATM    6  C   UNL     1      -9.786   8.300  67.153  1.00  0.00    -0.281 A  
HETATM    7  C   UNL     1      -9.065   9.431  67.523  1.00  0.00    -0.136 A  
HETATM    8  C   UNL     1      -8.333   9.434  68.713  1.00  0.00    -0.117 A  
HETATM    9  C   UNL     1      -7.696  10.771  68.925  1.00  0.00    -0.129 C  
HETATM   10  C   UNL     1      -8.935  11.583  68.512  1.00  0.00    -0.146 C  
HETATM   11  C   UNL     1      -9.248  10.901  67.102  1.00  0.00    -0.159 C  
BRANCH   4  12
HETATM   12  C   UNL     1     -10.557   7.122  70.630  1.00  0.00    -0.243 C  
HETATM   13  C   UNL     1     -10.076   7.417  72.050  1.00  0.00    -0.212 C  
ENDBRANCH   4  12
BRANCH  10  14
HETATM   14  N   UNL     1      -8.826  13.034  68.764  1.00  0.00    -0.379 NA 
HETATM   15  H   UNL     1      -7.864  13.366  68.699  1.00  0.00     0.000 HD 
BRANCH  14  16
HETATM   16  C   UNL     1      -9.751  13.776  67.825  1.00  0.00    -0.230 C  
BRANCH  16  17
HETATM   17  C   UNL     1     -11.268  13.479  67.973  1.00  0.00    -0.271 C  
HETATM   18  H   UNL     1     -12.903  14.163  67.158  1.00  0.00     0.000 HD 
HETATM   19  O   UNL     1     -11.975  14.345  67.067  1.00  0.00    -0.409 OA 
BRANCH  17  20
HETATM   20  C   UNL     1     -11.831  13.641  69.400  1.00  0.00    -0.392 A  
HETATM   21  C   UNL     1     -12.179  12.538  70.217  1.00  0.00    -0.345 A  
HETATM   22  C   UNL     1     -11.861  11.148  69.862  1.00  0.00    -0.439 C  
HETATM   23  C   UNL     1     -12.260  10.120  70.622  1.00  0.00    -0.394 C  
HETATM   24  C   UNL     1     -13.075  10.342  71.845  1.00  0.00    -0.458 C  
HETATM   25  N   UNL     1     -13.310  11.640  72.199  1.00  0.00    -0.562 N  
HETATM   26  O   UNL     1     -13.497   9.403  72.497  1.00  0.00    -0.455 OA 
HETATM   27  H   UNL     1     -13.835  11.818  73.055  1.00  0.00     0.000 HD 
HETATM   28  C   UNL     1     -12.866  12.749  71.449  1.00  0.00    -0.275 A  
HETATM   29  C   UNL     1     -13.142  14.044  71.893  1.00  0.00    -0.386 A  
HETATM   30  C   UNL     1     -12.747  15.134  71.133  1.00  0.00    -0.452 A  
HETATM   31  O   UNL     1     -13.782  14.315  73.072  1.00  0.00    -0.613 OA 
HETATM   32  C   UNL     1     -12.095  14.936  69.910  1.00  0.00    -0.379 A  
HETATM   33  H   UNL     1     -13.970  15.196  73.374  1.00  0.00     0.000 HD 
ENDBRANCH  17  20
ENDBRANCH  16  17
ENDBRANCH  14  16
ENDBRANCH  10  14
ENDBRANCH   2   3
TORSDOF 6
ENDMDL
MODEL       23
REMARK 921   NORMALIZED FREE ENERGY PREDICTED BY IDOCK:   -7.05 KCAL/MOL
REMARK 922        TOTAL FREE ENERGY PREDICTED BY IDOCK:  -10.79 KCAL/MOL
REMARK 923 INTER-LIGAND FREE ENERGY PREDICTED BY IDOCK:   -9.88 KCAL/MOL
REMARK 924 INTRA-LIGAND FREE ENERGY PREDICTED BY IDOCK:   -0.92 KCAL/MOL
REMARK 927      BINDING AFFINITY PREDICTED BY RF-SCORE:    0.00 PKD
ROOT
HETATM    1  C   UNL     1      -8.292   3.365  71.083  1.00  0.00    -0.088 C  
HETATM    2  C   UNL     1      -8.384   4.444  70.017  1.00  0.00    -0.075 C  
ENDROOT
BRANCH   2   3
HETATM    3  C   UNL     1      -9.309   5.624  70.253  1.00  0.00    -0.186 A  
HETATM    4  C   UNL     1     -10.429   5.757  69.382  1.00  0.00    -0.360 A  
HETATM    5  C   UNL     1     -11.505   6.557  69.770  1.00  0.00    -0.443 A  
HETATM    6  C   UNL     1      -9.074   6.645  71.196  1.00  0.00    -0.152 A  
HETATM    7  C   UNL     1     -10.031   7.647  71.317  1.00  0.00    -0.195 A  
HETATM    8  C   UNL     1     -11.313   7.455  70.798  1.00  0.00    -0.303 A  
HETATM    9  C   UNL     1     -12.141   8.686  70.992  1.00  0.00    -0.247 C  
HETATM   10  C   UNL     1     -11.031   9.666  70.576  1.00  0.00    -0.313 C  
HETATM   11  C   UNL     1      -9.853   9.162  71.529  1.00  0.00    -0.335 C  
BRANCH   4  12
HETATM   12  C   UNL     1     -10.335   5.230  67.959  1.00  0.00    -0.183 C  
HETATM   13  C   UNL     1     -10.677   6.212  66.838  1.00  0.00    -0.413 C  
ENDBRANCH   4  12
BRANCH  10  14
HETATM   14  N   UNL     1     -11.479  11.066  70.423  1.00  0.00    -0.439 NA 
HETATM   15  H   UNL     1     -10.785  11.732  70.761  1.00  0.00     0.000 HD 
BRANCH  14  16
HETATM   16  C   UNL     1     -11.857  11.317  68.982  1.00  0.00    -0.352 C  
BRANCH  16  17
HETATM   17  C   UNL     1     -11.001  12.363  68.215  1.00  0.00    -0.236 C  
HETATM   18  H   UNL     1     -10.477  14.217  68.514  1.00  0.00     0.000 HD 
HETATM   19  O   UNL     1     -11.001  13.578  68.984  1.00  0.00    -0.252 OA 
BRANCH  17  20
HETATM   20  C   UNL     1     -11.461  12.653  66.772  1.00  0.00    -0.410 A  
HETATM   21  C   UNL     1     -10.925  11.983  65.646  1.00  0.00    -0.343 A  
HETATM   22  C   UNL     1     -10.030  10.823  65.757  1.00  0.00    -0.306 C  
HETATM   23  C   UNL     1      -9.486  10.249  64.676  1.00  0.00    -0.351 C  
HETATM   24  C   UNL     1      -9.740  10.786  63.314  1.00  0.00    -0.355 C  
HETATM   25  N   UNL     1     -10.624  11.824  63.217  1.00  0.00    -0.627 N  
HETATM   26  O   UNL     1      -9.190  10.307  62.337  1.00  0.00    -0.254 OA 
HETATM   27  H   UNL     1     -10.843  12.184  62.289  1.00  0.00     0.000 HD 
HETATM   28  C   UNL     1     -11.251  12.423  64.329  1.00  0.00    -0.353 A  
HETATM   29  C   UNL     1     -12.152  13.473  64.136  1.00  0.00    -0.435 A  
HETATM   30  C   UNL     1     -12.733  14.094  65.230  1.00  0.00    -0.425 A  
HETATM   31  O   UNL     1     -12.520  13.932  62.900  1.00  0.00    -1.034 OA 
HETATM   32  C   UNL     1     -12.399  13.686  66.528  1.00  0.00    -0.412 A  
HETATM   33  H   UNL     1     -13.132  14.647  62.769  1.00  0.00     0.000 HD 
ENDBRANCH  17  20
ENDBRANCH  16  17
ENDBRANCH  14  16
ENDBRANCH  10  14
ENDBRANCH   2   3
TORSDOF 6
ENDMDL
MODEL       24
REMARK 921   NORMALIZED FREE ENERGY PREDICTED BY IDOCK:   -7.02 KCAL/MOL
REMARK 922        TOTAL FREE ENERGY PREDICTED BY IDOCK:  -10.76 KCAL/MOL
REMARK 923 INTER-LIGAND FREE ENERGY PREDICTED BY IDOCK:   -9.86 KCAL/MOL
REMARK 924 INTRA-LIGAND FREE ENERGY PREDICTED BY IDOCK:   -0.90 KCAL/MOL
REMARK 927      BINDING AFFINITY PREDICTED BY RF-SCORE:    0.00 PKD
ROOT
HETATM    1  C   UNL     1     -10.514  19.900  65.895  1.00  0.00    -0.567 C  
HETATM    2  C   UNL     1      -9.326  19.090  66.388  1.00  0.00    -0.358 C  
ENDROOT
BRANCH   2   3
HETATM    3  C   UNL     1      -9.564  17.673  66.876  1.00  0.00    -0.286 A  
HETATM    4  C   UNL     1      -9.124  17.355  68.193  1.00  0.00    -0.267 A  
HETATM    5  C   UNL     1      -9.645  16.231  68.836  1.00  0.00    -0.243 A  
HETATM    6  C   UNL     1     -10.087  16.633  66.080  1.00  0.00    -0.359 A  
HETATM    7  C   UNL     1     -10.275  15.392  66.679  1.00  0.00    -0.281 A  
HETATM    8  C   UNL     1     -10.289  15.282  68.071  1.00  0.00    -0.244 A  
HETATM    9  C   UNL     1     -10.444  13.851  68.477  1.00  0.00    -0.253 C  
HETATM   10  C   UNL     1      -9.445  13.305  67.442  1.00  0.00    -0.218 C  
HETATM   11  C   UNL     1     -10.032  13.978  66.118  1.00  0.00    -0.325 C  
BRANCH   4  12
HETATM   12  C   UNL     1      -7.931  18.093  68.779  1.00  0.00    -0.259 C  
HETATM   13  C   UNL     1      -6.548  17.523  68.466  1.00  0.00    -0.198 C  
ENDBRANCH   4  12
BRANCH  10  14
HETATM   14  N   UNL     1      -9.113  11.875  67.609  1.00  0.00    -0.174 NA 
HETATM   15  H   UNL     1      -8.110  11.702  67.553  1.00  0.00     0.000 HD 
BRANCH  14  16
HETATM   16  C   UNL     1      -9.708  11.370  68.904  1.00  0.00    -0.090 C  
BRANCH  16  17
HETATM   17  C   UNL     1     -10.793  10.265  68.780  1.00  0.00    -0.230 C  
HETATM   18  H   UNL     1     -12.418  10.025  67.729  1.00  0.00     0.000 HD 
HETATM   19  O   UNL     1     -11.755  10.701  67.804  1.00  0.00    -0.503 OA 
BRANCH  17  20
HETATM   20  C   UNL     1     -11.508   9.900  70.097  1.00  0.00    -0.309 A  
HETATM   21  C   UNL     1     -11.326   8.658  70.751  1.00  0.00    -0.299 A  
HETATM   22  C   UNL     1     -10.302   7.684  70.347  1.00  0.00    -0.214 C  
HETATM   23  C   UNL     1     -10.195   6.489  70.942  1.00  0.00    -0.220 C  
HETATM   24  C   UNL     1     -11.135   6.084  72.020  1.00  0.00    -0.274 C  
HETATM   25  N   UNL     1     -12.041   7.020  72.431  1.00  0.00    -0.494 N  
HETATM   26  O   UNL     1     -11.082   4.969  72.513  1.00  0.00    -0.215 OA 
HETATM   27  H   UNL     1     -12.672   6.777  73.194  1.00  0.00     0.000 HD 
HETATM   28  C   UNL     1     -12.152   8.304  71.858  1.00  0.00    -0.332 A  
HETATM   29  C   UNL     1     -13.101   9.204  72.350  1.00  0.00    -0.423 A  
HETATM   30  C   UNL     1     -13.243  10.449  71.759  1.00  0.00    -0.529 A  
HETATM   31  O   UNL     1     -13.912   8.933  73.419  1.00  0.00    -1.236 OA 
HETATM   32  C   UNL     1     -12.454  10.795  70.654  1.00  0.00    -0.461 A  
HETATM   33  H   UNL     1     -14.557   9.545  73.753  1.00  0.00     0.000 HD 
ENDBRANCH  17  20
ENDBRANCH  16  17
ENDBRANCH  14  16
ENDBRANCH  10  14
ENDBRANCH   2   3
TORSDOF 6
ENDMDL
MODEL       25
REMARK 921   NORMALIZED FREE ENERGY PREDICTED BY IDOCK:   -7.00 KCAL/MOL
REMARK 922        TOTAL FREE ENERGY PREDICTED BY IDOCK:  -10.74 KCAL/MOL
REMARK 923 INTER-LIGAND FREE ENERGY PREDICTED BY IDOCK:   -8.66 KCAL/MOL
REMARK 924 INTRA-LIGAND FREE ENERGY PREDICTED BY IDOCK:   -2.08 KCAL/MOL
REMARK 927      BINDING AFFINITY PREDICTED BY RF-SCORE:    0.00 PKD
ROOT
HETATM    1  C   UNL     1     -13.864  14.725  72.558  1.00  0.00    -0.561 C  
HETATM    2  C   UNL     1     -13.540  13.274  72.242  1.00  0.00    -0.703 C  
ENDROOT
BRANCH   2   3
HETATM    3  C   UNL     1     -12.777  12.958  70.969  1.00  0.00    -0.338 A  
HETATM    4  C   UNL     1     -12.541  11.583  70.675  1.00  0.00    -0.337 A  
HETATM    5  C   UNL     1     -12.210  11.210  69.371  1.00  0.00    -0.329 A  
HETATM    6  C   UNL     1     -12.200  13.928  70.125  1.00  0.00    -0.425 A  
HETATM    7  C   UNL     1     -11.556  13.483  68.974  1.00  0.00    -0.356 A  
HETATM    8  C   UNL     1     -11.785  12.190  68.500  1.00  0.00    -0.382 A  
HETATM    9  C   UNL     1     -10.940  11.922  67.296  1.00  0.00    -0.319 C  
HETATM   10  C   UNL     1      -9.667  12.563  67.874  1.00  0.00    -0.205 C  
HETATM   11  C   UNL     1     -10.254  13.980  68.317  1.00  0.00    -0.249 C  
BRANCH   4  12
HETATM   12  C   UNL     1     -12.416  10.587  71.817  1.00  0.00    -0.362 C  
HETATM   13  C   UNL     1     -13.533   9.552  71.952  1.00  0.00    -0.502 C  
ENDBRANCH   4  12
BRANCH  10  14
HETATM   14  N   UNL     1      -8.452  12.348  67.061  1.00  0.00    -0.214 NA 
HETATM   15  H   UNL     1      -8.181  13.183  66.543  1.00  0.00     0.000 HD 
BRANCH  14  16
HETATM   16  C   UNL     1      -7.339  11.840  67.948  1.00  0.00    -0.098 C  
BRANCH  16  17
HETATM   17  C   UNL     1      -7.065  10.311  67.905  1.00  0.00    -0.084 C  
HETATM   18  H   UNL     1      -5.973   9.126  66.806  1.00  0.00     0.000 HD 
HETATM   19  O   UNL     1      -6.140  10.061  66.832  1.00  0.00    -0.054 OA 
BRANCH  17  20
HETATM   20  C   UNL     1      -8.317   9.427  67.737  1.00  0.00    -0.115 A  
HETATM   21  C   UNL     1      -9.035   8.896  68.835  1.00  0.00    -0.137 A  
HETATM   22  C   UNL     1      -8.775   9.291  70.226  1.00  0.00    -0.246 C  
HETATM   23  C   UNL     1      -9.426   8.724  71.251  1.00  0.00    -0.320 C  
HETATM   24  C   UNL     1     -10.419   7.643  71.023  1.00  0.00    -0.211 C  
HETATM   25  N   UNL     1     -10.700   7.329  69.723  1.00  0.00    -0.236 N  
HETATM   26  O   UNL     1     -10.960   7.079  71.960  1.00  0.00    -0.224 OA 
HETATM   27  H   UNL     1     -11.405   6.615  69.542  1.00  0.00     0.000 HD 
HETATM   28  C   UNL     1     -10.068   7.937  68.619  1.00  0.00    -0.197 A  
HETATM   29  C   UNL     1     -10.426   7.562  67.321  1.00  0.00    -0.321 A  
HETATM   30  C   UNL     1      -9.774   8.124  66.235  1.00  0.00    -0.223 A  
HETATM   31  O   UNL     1     -11.418   6.660  67.044  1.00  0.00    -0.763 OA 
HETATM   32  C   UNL     1      -8.740   9.047  66.439  1.00  0.00    -0.149 A  
HETATM   33  H   UNL     1     -11.661   6.405  66.162  1.00  0.00     0.000 HD 
ENDBRANCH  17  20
ENDBRANCH  16  17
ENDBRANCH  14  16
ENDBRANCH  10  14
ENDBRANCH   2   3
TORSDOF 6
ENDMDL
MODEL       26
REMARK 921   NORMALIZED FREE ENERGY PREDICTED BY IDOCK:   -7.00 KCAL/MOL
REMARK 922        TOTAL FREE ENERGY PREDICTED BY IDOCK:  -10.73 KCAL/MOL
REMARK 923 INTER-LIGAND FREE ENERGY PREDICTED BY IDOCK:   -9.51 KCAL/MOL
REMARK 924 INTRA-LIGAND FREE ENERGY PREDICTED BY IDOCK:   -1.22 KCAL/MOL
REMARK 927      BINDING AFFINITY PREDICTED BY RF-SCORE:    0.00 PKD
ROOT
HETATM    1  C   UNL     1     -10.744  19.204  67.375  1.00  0.00    -0.578 C  
HETATM    2  C   UNL     1      -9.926  17.960  67.679  1.00  0.00    -0.324 C  
ENDROOT
BRANCH   2   3
HETATM    3  C   UNL     1     -10.440  16.615  67.204  1.00  0.00    -0.300 A  
HETATM    4  C   UNL     1     -11.066  15.777  68.172  1.00  0.00    -0.341 A  
HETATM    5  C   UNL     1     -11.890  14.735  67.744  1.00  0.00    -0.322 A  
HETATM    6  C   UNL     1     -10.245  16.100  65.905  1.00  0.00    -0.381 A  
HETATM    7  C   UNL     1     -10.804  14.861  65.609  1.00  0.00    -0.347 A  
HETATM    8  C   UNL     1     -11.802  14.331  66.429  1.00  0.00    -0.427 A  
HETATM    9  C   UNL     1     -12.200  12.972  65.948  1.00  0.00    -0.493 C  
HETATM   10  C   UNL     1     -10.763  12.491  65.686  1.00  0.00    -0.266 C  
HETATM   11  C   UNL     1     -10.235  13.695  64.779  1.00  0.00    -0.363 C  
BRANCH   4  12
HETATM   12  C   UNL     1     -10.641  15.875  69.628  1.00  0.00    -0.301 C  
HETATM   13  C   UNL     1     -11.752  15.787  70.676  1.00  0.00    -0.412 C  
ENDBRANCH   4  12
BRANCH  10  14
HETATM   14  N   UNL     1     -10.649  11.053  65.363  1.00  0.00    -0.236 NA 
HETATM   15  H   UNL     1      -9.972  10.877  64.622  1.00  0.00     0.000 HD 
BRANCH  14  16
HETATM   16  C   UNL     1     -10.332  10.281  66.623  1.00  0.00    -0.219 C  
BRANCH  16  17
HETATM   17  C   UNL     1      -9.858  11.115  67.844  1.00  0.00    -0.174 C  
HETATM   18  H   UNL     1      -8.210  11.250  68.879  1.00  0.00     0.000 HD 
HETATM   19  O   UNL     1      -8.500  10.739  68.132  1.00  0.00    -0.117 OA 
BRANCH  17  20
HETATM   20  C   UNL     1     -10.723  10.969  69.112  1.00  0.00    -0.274 A  
HETATM   21  C   UNL     1     -10.930   9.728  69.762  1.00  0.00    -0.287 A  
HETATM   22  C   UNL     1     -10.192   8.508  69.407  1.00  0.00    -0.211 C  
HETATM   23  C   UNL     1     -10.455   7.333  69.994  1.00  0.00    -0.234 C  
HETATM   24  C   UNL     1     -11.533   7.208  71.010  1.00  0.00    -0.297 C  
HETATM   25  N   UNL     1     -12.168   8.360  71.378  1.00  0.00    -0.300 N  
HETATM   26  O   UNL     1     -11.819   6.125  71.493  1.00  0.00    -0.276 OA 
HETATM   27  H   UNL     1     -12.886   8.305  72.100  1.00  0.00     0.000 HD 
HETATM   28  C   UNL     1     -11.886   9.622  70.815  1.00  0.00    -0.300 A  
HETATM   29  C   UNL     1     -12.577  10.752  71.260  1.00  0.00    -0.426 A  
HETATM   30  C   UNL     1     -12.335  11.985  70.676  1.00  0.00    -0.394 A  
HETATM   31  O   UNL     1     -13.494  10.721  72.276  1.00  0.00    -0.600 OA 
HETATM   32  C   UNL     1     -11.417  12.094  69.623  1.00  0.00    -0.308 A  
HETATM   33  H   UNL     1     -13.965  11.489  72.578  1.00  0.00     0.000 HD 
ENDBRANCH  17  20
ENDBRANCH  16  17
ENDBRANCH  14  16
ENDBRANCH  10  14
ENDBRANCH   2   3
TORSDOF 6
ENDMDL
MODEL       27
REMARK 921   NORMALIZED FREE ENERGY PREDICTED BY IDOCK:   -6.99 KCAL/MOL
REMARK 922        TOTAL FREE ENERGY PREDICTED BY IDOCK:  -10.72 KCAL/MOL
REMARK 923 INTER-LIGAND FREE ENERGY PREDICTED BY IDOCK:  -10.06 KCAL/MOL
REMARK 924 INTRA-LIGAND FREE ENERGY PREDICTED BY IDOCK:   -0.66 KCAL/MOL
REMARK 927      BINDING AFFINITY PREDICTED BY RF-SCORE:    0.00 PKD
ROOT
HETATM    1  C   UNL     1     -11.853   6.300  72.444  1.00  0.00    -0.272 C  
HETATM    2  C   UNL     1     -11.051   7.574  72.660  1.00  0.00    -0.398 C  
ENDROOT
BRANCH   2   3
HETATM    3  C   UNL     1     -11.428   8.814  71.873  1.00  0.00    -0.428 A  
HETATM    4  C   UNL     1     -10.511   9.258  70.876  1.00  0.00    -0.372 A  
HETATM    5  C   UNL     1     -10.955  10.124  69.876  1.00  0.00    -0.344 A  
HETATM    6  C   UNL     1     -12.562   9.610  72.135  1.00  0.00    -0.388 A  
HETATM    7  C   UNL     1     -12.791  10.703  71.305  1.00  0.00    -0.535 A  
HETATM    8  C   UNL     1     -12.144  10.792  70.071  1.00  0.00    -0.423 A  
HETATM    9  C   UNL     1     -12.499  12.075  69.391  1.00  0.00     0.164 C  
HETATM   10  C   UNL     1     -12.364  12.943  70.653  1.00  0.00    -0.302 C  
HETATM   11  C   UNL     1     -13.297  12.116  71.651  1.00  0.00    -0.244 C  
BRANCH   4  12
HETATM   12  C   UNL     1      -9.027   8.980  71.053  1.00  0.00    -0.304 C  
HETATM   13  C   UNL     1      -8.249   8.578  69.799  1.00  0.00    -0.121 C  
ENDBRANCH   4  12
BRANCH  10  14
HETATM   14  N   UNL     1     -12.441  14.398  70.406  1.00  0.00    -0.342 NA 
HETATM   15  H   UNL     1     -12.938  14.890  71.147  1.00  0.00     0.000 HD 
BRANCH  14  16
HETATM   16  C   UNL     1     -11.048  14.945  70.191  1.00  0.00    -0.213 C  
BRANCH  16  17
HETATM   17  C   UNL     1     -10.275  14.399  68.959  1.00  0.00    -0.179 C  
HETATM   18  H   UNL     1      -8.399  14.283  68.437  1.00  0.00     0.000 HD 
HETATM   19  O   UNL     1      -8.872  14.616  69.191  1.00  0.00    -0.130 OA 
BRANCH  17  20
HETATM   20  C   UNL     1     -10.685  15.013  67.605  1.00  0.00    -0.274 A  
HETATM   21  C   UNL     1     -11.178  14.236  66.528  1.00  0.00    -0.333 A  
HETATM   22  C   UNL     1     -11.525  12.815  66.661  1.00  0.00    -0.404 C  
HETATM   23  C   UNL     1     -11.927  12.089  65.610  1.00  0.00    -0.151 C  
HETATM   24  C   UNL     1     -12.007  12.687  64.252  1.00  0.00    -0.408 C  
HETATM   25  N   UNL     1     -11.744  14.023  64.152  1.00  0.00    -0.608 N  
HETATM   26  O   UNL     1     -12.306  12.008  63.283  1.00  0.00    -0.543 OA 
HETATM   27  H   UNL     1     -11.829  14.463  63.236  1.00  0.00     0.000 HD 
HETATM   28  C   UNL     1     -11.363  14.829  65.245  1.00  0.00    -0.363 A  
HETATM   29  C   UNL     1     -11.124  16.192  65.053  1.00  0.00    -0.294 A  
HETATM   30  C   UNL     1     -10.705  16.976  66.116  1.00  0.00    -0.099 A  
HETATM   31  O   UNL     1     -11.299  16.825  63.852  1.00  0.00    -1.436 OA 
HETATM   32  C   UNL     1     -10.495  16.398  67.374  1.00  0.00    -0.309 A  
HETATM   33  H   UNL     1     -11.136  17.752  63.722  1.00  0.00     0.000 HD 
ENDBRANCH  17  20
ENDBRANCH  16  17
ENDBRANCH  14  16
ENDBRANCH  10  14
ENDBRANCH   2   3
TORSDOF 6
ENDMDL
MODEL       28
REMARK 921   NORMALIZED FREE ENERGY PREDICTED BY IDOCK:   -6.99 KCAL/MOL
REMARK 922        TOTAL FREE ENERGY PREDICTED BY IDOCK:  -10.72 KCAL/MOL
REMARK 923 INTER-LIGAND FREE ENERGY PREDICTED BY IDOCK:   -9.08 KCAL/MOL
REMARK 924 INTRA-LIGAND FREE ENERGY PREDICTED BY IDOCK:   -1.64 KCAL/MOL
REMARK 927      BINDING AFFINITY PREDICTED BY RF-SCORE:    0.00 PKD
ROOT
HETATM    1  C   UNL     1      -5.882  20.330  70.281  1.00  0.00    -0.384 C  
HETATM    2  C   UNL     1      -6.717  19.714  69.170  1.00  0.00    -0.383 C  
ENDROOT
BRANCH   2   3
HETATM    3  C   UNL     1      -6.615  18.220  68.925  1.00  0.00    -0.251 A  
HETATM    4  C   UNL     1      -7.506  17.654  67.968  1.00  0.00    -0.223 A  
HETATM    5  C   UNL     1      -7.214  16.406  67.416  1.00  0.00    -0.191 A  
HETATM    6  C   UNL     1      -5.779  17.348  69.653  1.00  0.00    -0.230 A  
HETATM    7  C   UNL     1      -5.773  16.005  69.291  1.00  0.00    -0.119 A  
HETATM    8  C   UNL     1      -6.283  15.613  68.052  1.00  0.00    -0.149 A  
HETATM    9  C   UNL     1      -6.225  14.125  67.915  1.00  0.00    -0.164 C  
HETATM   10  C   UNL     1      -6.729  13.835  69.339  1.00  0.00    -0.079 C  
HETATM   11  C   UNL     1      -5.717  14.745  70.175  1.00  0.00    -0.129 C  
BRANCH   4  12
HETATM   12  C   UNL     1      -8.866  18.296  67.746  1.00  0.00    -0.270 C  
HETATM   13  C   UNL     1     -10.018  17.786  68.612  1.00  0.00    -0.379 C  
ENDBRANCH   4  12
BRANCH  10  14
HETATM   14  N   UNL     1      -7.030  12.413  69.603  1.00  0.00    -0.337 NA 
HETATM   15  H   UNL     1      -7.562  12.284  70.463  1.00  0.00     0.000 HD 
BRANCH  14  16
HETATM   16  C   UNL     1      -7.731  11.818  68.404  1.00  0.00    -0.131 C  
BRANCH  16  17
HETATM   17  C   UNL     1      -9.185  12.301  68.144  1.00  0.00    -0.197 C  
HETATM   18  H   UNL     1     -10.948  11.838  68.838  1.00  0.00     0.000 HD 
HETATM   19  O   UNL     1     -10.059  11.543  68.998  1.00  0.00    -0.163 OA 
BRANCH  17  20
HETATM   20  C   UNL     1      -9.658  12.194  66.680  1.00  0.00    -0.226 A  
HETATM   21  C   UNL     1     -10.149  13.302  65.948  1.00  0.00    -0.296 A  
HETATM   22  C   UNL     1     -10.073  14.684  66.444  1.00  0.00    -0.288 C  
HETATM   23  C   UNL     1     -10.604  15.706  65.760  1.00  0.00    -0.374 C  
HETATM   24  C   UNL     1     -11.324  15.478  64.480  1.00  0.00    -0.314 C  
HETATM   25  N   UNL     1     -11.332  14.201  63.997  1.00  0.00    -0.577 N  
HETATM   26  O   UNL     1     -11.868  16.399  63.893  1.00  0.00    -1.034 OA 
HETATM   27  H   UNL     1     -11.788  14.027  63.102  1.00  0.00     0.000 HD 
HETATM   28  C   UNL     1     -10.744  13.108  64.667  1.00  0.00    -0.380 A  
HETATM   29  C   UNL     1     -10.789  11.835  64.093  1.00  0.00    -0.360 A  
HETATM   30  C   UNL     1     -10.253  10.752  64.772  1.00  0.00    -0.403 A  
HETATM   31  O   UNL     1     -11.330  11.583  62.862  1.00  0.00    -0.776 OA 
HETATM   32  C   UNL     1      -9.689  10.929  66.042  1.00  0.00    -0.268 A  
HETATM   33  H   UNL     1     -11.362  10.718  62.472  1.00  0.00     0.000 HD 
ENDBRANCH  17  20
ENDBRANCH  16  17
ENDBRANCH  14  16
ENDBRANCH  10  14
ENDBRANCH   2   3
TORSDOF 6
ENDMDL
MODEL       29
REMARK 921   NORMALIZED FREE ENERGY PREDICTED BY IDOCK:   -6.97 KCAL/MOL
REMARK 922        TOTAL FREE ENERGY PREDICTED BY IDOCK:  -10.70 KCAL/MOL
REMARK 923 INTER-LIGAND FREE ENERGY PREDICTED BY IDOCK:   -9.79 KCAL/MOL
REMARK 924 INTRA-LIGAND FREE ENERGY PREDICTED BY IDOCK:   -0.90 KCAL/MOL
REMARK 927      BINDING AFFINITY PREDICTED BY RF-SCORE:    0.00 PKD
ROOT
HETATM    1  C   UNL     1     -10.591   4.713  74.413  1.00  0.00    -0.293 C  
HETATM    2  C   UNL     1     -11.340   4.678  73.090  1.00  0.00    -0.355 C  
ENDROOT
BRANCH   2   3
HETATM    3  C   UNL     1     -11.117   5.802  72.097  1.00  0.00    -0.327 A  
HETATM    4  C   UNL     1     -10.333   5.507  70.944  1.00  0.00    -0.310 A  
HETATM    5  C   UNL     1     -10.414   6.344  69.829  1.00  0.00    -0.266 A  
HETATM    6  C   UNL     1     -11.539   7.134  72.292  1.00  0.00    -0.309 A  
HETATM    7  C   UNL     1     -11.286   8.048  71.274  1.00  0.00    -0.295 A  
HETATM    8  C   UNL     1     -10.965   7.596  69.992  1.00  0.00    -0.237 A  
HETATM    9  C   UNL     1     -10.679   8.755  69.091  1.00  0.00    -0.150 C  
HETATM   10  C   UNL     1      -9.833   9.525  70.120  1.00  0.00    -0.244 C  
HETATM   11  C   UNL     1     -10.842   9.520  71.358  1.00  0.00    -0.382 C  
BRANCH   4  12
HETATM   12  C   UNL     1      -9.252   4.441  71.030  1.00  0.00    -0.201 C  
HETATM   13  C   UNL     1      -7.810   4.906  70.829  1.00  0.00    -0.078 C  
ENDBRANCH   4  12
BRANCH  10  14
HETATM   14  N   UNL     1      -9.140  10.711  69.576  1.00  0.00    -0.411 NA 
HETATM   15  H   UNL     1      -8.129  10.586  69.544  1.00  0.00     0.000 HD 
BRANCH  14  16
HETATM   16  C   UNL     1      -9.717  11.051  68.220  1.00  0.00    -0.177 C  
BRANCH  16  17
HETATM   17  C   UNL     1     -10.416  12.433  68.094  1.00  0.00    -0.219 C  
HETATM   18  H   UNL     1     -11.992  13.269  68.882  1.00  0.00     0.000 HD 
HETATM   19  O   UNL     1     -11.565  12.424  68.959  1.00  0.00    -0.268 OA 
BRANCH  17  20
HETATM   20  C   UNL     1     -10.838  12.824  66.663  1.00  0.00    -0.288 A  
HETATM   21  C   UNL     1     -10.789  14.156  66.186  1.00  0.00    -0.296 A  
HETATM   22  C   UNL     1     -10.155  15.251  66.934  1.00  0.00    -0.257 C  
HETATM   23  C   UNL     1     -10.181  16.513  66.488  1.00  0.00    -0.305 C  
HETATM   24  C   UNL     1     -10.884  16.866  65.227  1.00  0.00    -0.104 C  
HETATM   25  N   UNL     1     -11.413  15.832  64.508  1.00  0.00    -0.623 N  
HETATM   26  O   UNL     1     -10.967  18.025  64.858  1.00  0.00    -0.776 OA 
HETATM   27  H   UNL     1     -11.868  16.046  63.621  1.00  0.00     0.000 HD 
HETATM   28  C   UNL     1     -11.365  14.485  64.924  1.00  0.00    -0.394 A  
HETATM   29  C   UNL     1     -11.923  13.489  64.118  1.00  0.00    -0.448 A  
HETATM   30  C   UNL     1     -11.918  12.171  64.547  1.00  0.00    -0.415 A  
HETATM   31  O   UNL     1     -12.476  13.736  62.891  1.00  0.00    -1.009 OA 
HETATM   32  C   UNL     1     -11.377  11.842  65.796  1.00  0.00    -0.354 A  
HETATM   33  H   UNL     1     -12.856  13.059  62.344  1.00  0.00     0.000 HD 
ENDBRANCH  17  20
ENDBRANCH  16  17
ENDBRANCH  14  16
ENDBRANCH  10  14
ENDBRANCH   2   3
TORSDOF 6
ENDMDL
MODEL       30
REMARK 921   NORMALIZED FREE ENERGY PREDICTED BY IDOCK:   -6.97 KCAL/MOL
REMARK 922        TOTAL FREE ENERGY PREDICTED BY IDOCK:  -10.70 KCAL/MOL
REMARK 923 INTER-LIGAND FREE ENERGY PREDICTED BY IDOCK:   -8.63 KCAL/MOL
REMARK 924 INTRA-LIGAND FREE ENERGY PREDICTED BY IDOCK:   -2.07 KCAL/MOL
REMARK 927      BINDING AFFINITY PREDICTED BY RF-SCORE:    0.00 PKD
ROOT
HETATM    1  C   UNL     1     -13.340   7.117  71.643  1.00  0.00    -0.397 C  
HETATM    2  C   UNL     1     -11.966   6.468  71.587  1.00  0.00    -0.387 C  
ENDROOT
BRANCH   2   3
HETATM    3  C   UNL     1     -11.035   6.832  70.446  1.00  0.00    -0.330 A  
HETATM    4  C   UNL     1      -9.866   7.578  70.771  1.00  0.00    -0.178 A  
HETATM    5  C   UNL     1      -8.799   7.605  69.871  1.00  0.00    -0.143 A  
HETATM    6  C   UNL     1     -11.304   6.575  69.086  1.00  0.00    -0.330 A  
HETATM    7  C   UNL     1     -10.338   6.942  68.155  1.00  0.00    -0.223 A  
HETATM    8  C   UNL     1      -9.032   7.210  68.572  1.00  0.00    -0.127 A  
HETATM    9  C   UNL     1      -8.195   7.640  67.409  1.00  0.00    -0.116 C  
HETATM   10  C   UNL     1      -9.262   8.570  66.806  1.00  0.00    -0.172 C  
HETATM   11  C   UNL     1     -10.501   7.563  66.755  1.00  0.00    -0.319 C  
BRANCH   4  12
HETATM   12  C   UNL     1      -9.891   8.520  71.965  1.00  0.00    -0.383 C  
HETATM   13  C   UNL     1      -8.943   8.192  73.119  1.00  0.00    -0.330 C  
ENDBRANCH   4  12
BRANCH  10  14
HETATM   14  N   UNL     1      -8.782   9.405  65.686  1.00  0.00    -0.144 NA 
HETATM   15  H   UNL     1      -9.154   9.097  64.788  1.00  0.00     0.000 HD 
BRANCH  14  16
HETATM   16  C   UNL     1      -9.102  10.855  65.969  1.00  0.00    -0.191 C  
BRANCH  16  17
HETATM   17  C   UNL     1     -10.608  11.232  66.030  1.00  0.00    -0.258 C  
HETATM   18  H   UNL     1     -11.947  11.815  64.736  1.00  0.00     0.000 HD 
HETATM   19  O   UNL     1     -11.025  11.584  64.699  1.00  0.00    -0.317 OA 
BRANCH  17  20
HETATM   20  C   UNL     1     -10.959  12.370  67.009  1.00  0.00    -0.303 A  
HETATM   21  C   UNL     1     -11.446  12.133  68.318  1.00  0.00    -0.360 A  
HETATM   22  C   UNL     1     -11.479  10.797  68.929  1.00  0.00    -0.362 C  
HETATM   23  C   UNL     1     -12.005  10.593  70.144  1.00  0.00    -0.417 C  
HETATM   24  C   UNL     1     -12.611  11.711  70.913  1.00  0.00    -0.313 C  
HETATM   25  N   UNL     1     -12.517  12.958  70.364  1.00  0.00    -0.228 N  
HETATM   26  O   UNL     1     -13.153  11.512  71.988  1.00  0.00    -0.486 OA 
HETATM   27  H   UNL     1     -12.893  13.746  70.891  1.00  0.00     0.000 HD 
HETATM   28  C   UNL     1     -11.929  13.217  69.108  1.00  0.00    -0.281 A  
HETATM   29  C   UNL     1     -11.866  14.527  68.628  1.00  0.00    -0.320 A  
HETATM   30  C   UNL     1     -11.330  14.779  67.375  1.00  0.00    -0.361 A  
HETATM   31  O   UNL     1     -12.296  15.613  69.342  1.00  0.00    -0.563 OA 
HETATM   32  C   UNL     1     -10.877  13.717  66.580  1.00  0.00    -0.288 A  
HETATM   33  H   UNL     1     -12.254  16.504  69.016  1.00  0.00     0.000 HD 
ENDBRANCH  17  20
ENDBRANCH  16  17
ENDBRANCH  14  16
ENDBRANCH  10  14
ENDBRANCH   2   3
TORSDOF 6
ENDMDL
MODEL       31
REMARK 921   NORMALIZED FREE ENERGY PREDICTED BY IDOCK:   -6.96 KCAL/MOL
REMARK 922        TOTAL FREE ENERGY PREDICTED BY IDOCK:  -10.67 KCAL/MOL
REMARK 923 INTER-LIGAND FREE ENERGY PREDICTED BY IDOCK:   -9.17 KCAL/MOL
REMARK 924 INTRA-LIGAND FREE ENERGY PREDICTED BY IDOCK:   -1.50 KCAL/MOL
REMARK 927      BINDING AFFINITY PREDICTED BY RF-SCORE:    0.00 PKD
ROOT
HETATM    1  C   UNL     1     -11.422   6.197  72.400  1.00  0.00    -0.349 C  
HETATM    2  C   UNL     1     -11.082   7.615  72.829  1.00  0.00    -0.437 C  
ENDROOT
BRANCH   2   3
HETATM    3  C   UNL     1     -11.304   8.747  71.844  1.00  0.00    -0.431 A  
HETATM    4  C   UNL     1     -10.338   8.908  70.808  1.00  0.00    -0.283 A  
HETATM    5  C   UNL     1     -10.671   9.647  69.672  1.00  0.00    -0.260 A  
HETATM    6  C   UNL     1     -12.332   9.706  71.950  1.00  0.00    -0.437 A  
HETATM    7  C   UNL     1     -12.424  10.669  70.950  1.00  0.00    -0.495 A  
HETATM    8  C   UNL     1     -11.770  10.476  69.732  1.00  0.00    -0.354 A  
HETATM    9  C   UNL     1     -11.965  11.666  68.846  1.00  0.00    -0.355 C  
HETATM   10  C   UNL     1     -11.725  12.705  69.954  1.00  0.00    -0.250 C  
HETATM   11  C   UNL     1     -12.753  12.170  71.053  1.00  0.00    -0.322 C  
BRANCH   4  12
HETATM   12  C   UNL     1      -8.899   8.485  71.058  1.00  0.00    -0.212 C  
HETATM   13  C   UNL     1      -8.082   8.072  69.834  1.00  0.00    -0.117 C  
ENDBRANCH   4  12
BRANCH  10  14
HETATM   14  N   UNL     1     -11.623  14.098  69.473  1.00  0.00    -0.278 NA 
HETATM   15  H   UNL     1     -10.711  14.509  69.670  1.00  0.00     0.000 HD 
BRANCH  14  16
HETATM   16  C   UNL     1     -11.968  14.148  68.002  1.00  0.00    -0.337 C  
BRANCH  16  17
HETATM   17  C   UNL     1     -10.776  14.319  67.020  1.00  0.00    -0.290 C  
HETATM   18  H   UNL     1     -10.136  15.740  65.848  1.00  0.00     0.000 HD 
HETATM   19  O   UNL     1     -10.864  15.636  66.449  1.00  0.00    -0.306 OA 
BRANCH  17  20
HETATM   20  C   UNL     1     -10.697  13.264  65.897  1.00  0.00    -0.284 A  
HETATM   21  C   UNL     1      -9.717  12.242  65.872  1.00  0.00    -0.247 A  
HETATM   22  C   UNL     1      -8.813  11.974  66.998  1.00  0.00    -0.197 C  
HETATM   23  C   UNL     1      -7.852  11.044  66.921  1.00  0.00    -0.140 C  
HETATM   24  C   UNL     1      -7.639  10.264  65.674  1.00  0.00    -0.148 C  
HETATM   25  N   UNL     1      -8.525  10.477  64.657  1.00  0.00    -0.246 N  
HETATM   26  O   UNL     1      -6.720   9.468  65.581  1.00  0.00    -0.072 OA 
HETATM   27  H   UNL     1      -8.421   9.926  63.805  1.00  0.00     0.000 HD 
HETATM   28  C   UNL     1      -9.577  11.414  64.719  1.00  0.00    -0.210 A  
HETATM   29  C   UNL     1     -10.445  11.558  63.634  1.00  0.00    -0.427 A  
HETATM   30  C   UNL     1     -11.451  12.511  63.675  1.00  0.00    -0.568 A  
HETATM   31  O   UNL     1     -10.375  10.785  62.507  1.00  0.00    -0.748 OA 
HETATM   32  C   UNL     1     -11.580  13.346  64.792  1.00  0.00    -0.367 A  
HETATM   33  H   UNL     1     -10.965  10.882  61.769  1.00  0.00     0.000 HD 
ENDBRANCH  17  20
ENDBRANCH  16  17
ENDBRANCH  14  16
ENDBRANCH  10  14
ENDBRANCH   2   3
TORSDOF 6
ENDMDL
MODEL       32
REMARK 921   NORMALIZED FREE ENERGY PREDICTED BY IDOCK:   -6.95 KCAL/MOL
REMARK 922        TOTAL FREE ENERGY PREDICTED BY IDOCK:  -10.66 KCAL/MOL
REMARK 923 INTER-LIGAND FREE ENERGY PREDICTED BY IDOCK:   -8.89 KCAL/MOL
REMARK 924 INTRA-LIGAND FREE ENERGY PREDICTED BY IDOCK:   -1.78 KCAL/MOL
REMARK 927      BINDING AFFINITY PREDICTED BY RF-SCORE:    0.00 PKD
ROOT
HETATM    1  C   UNL     1     -10.658  18.568  67.768  1.00  0.00    -0.422 C  
HETATM    2  C   UNL     1     -10.152  17.178  68.118  1.00  0.00    -0.311 C  
ENDROOT
BRANCH   2   3
HETATM    3  C   UNL     1     -10.665  15.994  67.321  1.00  0.00    -0.295 A  
HETATM    4  C   UNL     1     -11.392  14.995  68.032  1.00  0.00    -0.339 A  
HETATM    5  C   UNL     1     -12.209  14.111  67.326  1.00  0.00    -0.314 A  
HETATM    6  C   UNL     1     -10.380  15.766  65.959  1.00  0.00    -0.356 A  
HETATM    7  C   UNL     1     -10.949  14.648  65.357  1.00  0.00    -0.358 A  
HETATM    8  C   UNL     1     -12.026  13.999  65.965  1.00  0.00    -0.434 A  
HETATM    9  C   UNL     1     -12.423  12.797  65.168  1.00  0.00    -0.565 C  
HETATM   10  C   UNL     1     -10.984  12.319  64.912  1.00  0.00    -0.302 C  
HETATM   11  C   UNL     1     -10.349  13.665  64.334  1.00  0.00    -0.242 C  
BRANCH   4  12
HETATM   12  C   UNL     1     -11.084  14.755  69.502  1.00  0.00    -0.302 C  
HETATM   13  C   UNL     1     -12.188  15.103  70.501  1.00  0.00    -0.389 C  
ENDBRANCH   4  12
BRANCH  10  14
HETATM   14  N   UNL     1     -10.886  10.982  64.290  1.00  0.00    -0.376 NA 
HETATM   15  H   UNL     1     -10.636  11.033  63.303  1.00  0.00     0.000 HD 
BRANCH  14  16
HETATM   16  C   UNL     1      -9.920  10.130  65.081  1.00  0.00    -0.309 C  
BRANCH  16  17
HETATM   17  C   UNL     1      -9.700  10.533  66.565  1.00  0.00    -0.192 C  
HETATM   18  H   UNL     1      -8.177  11.118  67.634  1.00  0.00     0.000 HD 
HETATM   19  O   UNL     1      -8.312  10.872  66.726  1.00  0.00    -0.129 OA 
BRANCH  17  20
HETATM   20  C   UNL     1     -10.103   9.463  67.600  1.00  0.00    -0.262 A  
HETATM   21  C   UNL     1     -10.909   9.751  68.728  1.00  0.00    -0.219 A  
HETATM   22  C   UNL     1     -11.591  11.040  68.915  1.00  0.00    -0.383 C  
HETATM   23  C   UNL     1     -12.293  11.308  70.023  1.00  0.00    -0.330 C  
HETATM   24  C   UNL     1     -12.385  10.320  71.130  1.00  0.00    -0.395 C  
HETATM   25  N   UNL     1     -11.802   9.104  70.918  1.00  0.00    -0.335 N  
HETATM   26  O   UNL     1     -12.966  10.592  72.168  1.00  0.00    -0.435 OA 
HETATM   27  H   UNL     1     -11.883   8.397  71.649  1.00  0.00     0.000 HD 
HETATM   28  C   UNL     1     -11.093   8.770  69.746  1.00  0.00    -0.073 A  
HETATM   29  C   UNL     1     -10.538   7.495  69.608  1.00  0.00    -0.239 A  
HETATM   30  C   UNL     1      -9.802   7.180  68.477  1.00  0.00    -0.155 A  
HETATM   31  O   UNL     1     -10.691   6.503  70.539  1.00  0.00    -0.229 OA 
HETATM   32  C   UNL     1      -9.594   8.146  67.485  1.00  0.00    -0.196 A  
HETATM   33  H   UNL     1     -10.313   5.637  70.447  1.00  0.00     0.000 HD 
ENDBRANCH  17  20
ENDBRANCH  16  17
ENDBRANCH  14  16
ENDBRANCH  10  14
ENDBRANCH   2   3
TORSDOF 6
ENDMDL
MODEL       33
REMARK 921   NORMALIZED FREE ENERGY PREDICTED BY IDOCK:   -6.91 KCAL/MOL
REMARK 922        TOTAL FREE ENERGY PREDICTED BY IDOCK:  -10.61 KCAL/MOL
REMARK 923 INTER-LIGAND FREE ENERGY PREDICTED BY IDOCK:   -9.85 KCAL/MOL
REMARK 924 INTRA-LIGAND FREE ENERGY PREDICTED BY IDOCK:   -0.76 KCAL/MOL
REMARK 927      BINDING AFFINITY PREDICTED BY RF-SCORE:    0.00 PKD
ROOT
HETATM    1  C   UNL     1     -10.921   2.431  73.897  1.00  0.00    -0.274 C  
HETATM    2  C   UNL     1     -10.379   3.851  73.914  1.00  0.00    -0.239 C  
ENDROOT
BRANCH   2   3
HETATM    3  C   UNL     1     -10.563   4.715  72.682  1.00  0.00    -0.259 A  
HETATM    4  C   UNL     1      -9.586   4.597  71.651  1.00  0.00    -0.221 A  
HETATM    5  C   UNL     1      -9.891   5.046  70.365  1.00  0.00    -0.301 A  
HETATM    6  C   UNL     1     -11.566   5.696  72.538  1.00  0.00    -0.303 A  
HETATM    7  C   UNL     1     -11.626   6.390  71.334  1.00  0.00    -0.368 A  
HETATM    8  C   UNL     1     -10.968   5.891  70.207  1.00  0.00    -0.390 A  
HETATM    9  C   UNL     1     -11.124   6.835  69.057  1.00  0.00    -0.254 C  
HETATM   10  C   UNL     1     -10.865   8.106  69.884  1.00  0.00    -0.215 C  
HETATM   11  C   UNL     1     -11.916   7.879  71.066  1.00  0.00    -0.268 C  
BRANCH   4  12
HETATM   12  C   UNL     1      -8.161   4.213  72.015  1.00  0.00    -0.093 C  
HETATM   13  C   UNL     1      -7.300   5.299  72.661  1.00  0.00    -0.095 C  
ENDBRANCH   4  12
BRANCH  10  14
HETATM   14  N   UNL     1     -10.723   9.338  69.082  1.00  0.00    -0.311 NA 
HETATM   15  H   UNL     1     -11.242   9.291  68.205  1.00  0.00     0.000 HD 
BRANCH  14  16
HETATM   16  C   UNL     1     -11.124  10.531  69.919  1.00  0.00    -0.307 C  
BRANCH  16  17
HETATM   17  C   UNL     1     -12.062  11.567  69.241  1.00  0.00    -0.278 C  
HETATM   18  H   UNL     1     -12.661  11.914  67.417  1.00  0.00     0.000 HD 
HETATM   19  O   UNL     1     -12.087  11.280  67.832  1.00  0.00    -0.634 OA 
BRANCH  17  20
HETATM   20  C   UNL     1     -11.681  13.043  69.470  1.00  0.00    -0.381 A  
HETATM   21  C   UNL     1     -12.191  13.810  70.546  1.00  0.00    -0.440 A  
HETATM   22  C   UNL     1     -12.971  13.224  71.645  1.00  0.00    -0.441 C  
HETATM   23  C   UNL     1     -13.497  13.983  72.616  1.00  0.00    -0.650 C  
HETATM   24  C   UNL     1     -13.340  15.461  72.602  1.00  0.00    -0.504 C  
HETATM   25  N   UNL     1     -12.560  15.987  71.612  1.00  0.00    -0.545 N  
HETATM   26  O   UNL     1     -13.877  16.157  73.447  1.00  0.00    -0.558 OA 
HETATM   27  H   UNL     1     -12.408  16.996  71.604  1.00  0.00     0.000 HD 
HETATM   28  C   UNL     1     -11.953  15.214  70.600  1.00  0.00    -0.324 A  
HETATM   29  C   UNL     1     -11.160  15.836  69.632  1.00  0.00    -0.307 A  
HETATM   30  C   UNL     1     -10.601  15.085  68.611  1.00  0.00    -0.237 A  
HETATM   31  O   UNL     1     -10.879  17.175  69.636  1.00  0.00    -0.384 OA 
HETATM   32  C   UNL     1     -10.851  13.709  68.535  1.00  0.00    -0.275 A  
HETATM   33  H   UNL     1     -10.340  17.598  68.978  1.00  0.00     0.000 HD 
ENDBRANCH  17  20
ENDBRANCH  16  17
ENDBRANCH  14  16
ENDBRANCH  10  14
ENDBRANCH   2   3
TORSDOF 6
ENDMDL
MODEL       34
REMARK 921   NORMALIZED FREE ENERGY PREDICTED BY IDOCK:   -6.90 KCAL/MOL
REMARK 922        TOTAL FREE ENERGY PREDICTED BY IDOCK:  -10.59 KCAL/MOL
REMARK 923 INTER-LIGAND FREE ENERGY PREDICTED BY IDOCK:   -9.59 KCAL/MOL
REMARK 924 INTRA-LIGAND FREE ENERGY PREDICTED BY IDOCK:   -1.01 KCAL/MOL
REMARK 927      BINDING AFFINITY PREDICTED BY RF-SCORE:    0.00 PKD
ROOT
HETATM    1  C   UNL     1     -11.315   5.987  72.092  1.00  0.00    -0.351 C  
HETATM    2  C   UNL     1     -11.115   7.295  72.839  1.00  0.00    -0.369 C  
ENDROOT
BRANCH   2   3
HETATM    3  C   UNL     1     -11.447   8.596  72.132  1.00  0.00    -0.443 A  
HETATM    4  C   UNL     1     -10.473   9.115  71.231  1.00  0.00    -0.398 A  
HETATM    5  C   UNL     1     -10.857  10.060  70.278  1.00  0.00    -0.370 A  
HETATM    6  C   UNL     1     -12.598   9.370  72.388  1.00  0.00    -0.307 A  
HETATM    7  C   UNL     1     -12.779  10.527  71.636  1.00  0.00    -0.550 A  
HETATM    8  C   UNL     1     -12.058  10.712  70.454  1.00  0.00    -0.430 A  
HETATM    9  C   UNL     1     -12.375  12.047  69.858  1.00  0.00    -0.143 C  
HETATM   10  C   UNL     1     -12.319  12.811  71.191  1.00  0.00    -0.149 C  
HETATM   11  C   UNL     1     -13.309  11.909  72.062  1.00  0.00    -0.425 C  
BRANCH   4  12
HETATM   12  C   UNL     1      -9.001   8.821  71.475  1.00  0.00    -0.306 C  
HETATM   13  C   UNL     1      -8.005   9.442  70.495  1.00  0.00    -0.199 C  
ENDBRANCH   4  12
BRANCH  10  14
HETATM   14  N   UNL     1     -12.385  14.281  71.057  1.00  0.00    -0.339 NA 
HETATM   15  H   UNL     1     -11.694  14.753  71.638  1.00  0.00     0.000 HD 
BRANCH  14  16
HETATM   16  C   UNL     1     -12.259  14.657  69.598  1.00  0.00    -0.283 C  
BRANCH  16  17
HETATM   17  C   UNL     1     -10.820  14.929  69.078  1.00  0.00    -0.245 C  
HETATM   18  H   UNL     1      -9.940  16.387  68.128  1.00  0.00     0.000 HD 
HETATM   19  O   UNL     1     -10.820  16.221  68.446  1.00  0.00    -0.301 OA 
BRANCH  17  20
HETATM   20  C   UNL     1     -10.265  13.869  68.105  1.00  0.00    -0.249 A  
HETATM   21  C   UNL     1     -10.936  13.490  66.918  1.00  0.00    -0.296 A  
HETATM   22  C   UNL     1     -12.115  14.201  66.404  1.00  0.00    -0.475 C  
HETATM   23  C   UNL     1     -12.768  13.781  65.313  1.00  0.00    -0.481 C  
HETATM   24  C   UNL     1     -12.345  12.552  64.593  1.00  0.00    -0.474 C  
HETATM   25  N   UNL     1     -11.211  11.936  65.040  1.00  0.00    -0.310 N  
HETATM   26  O   UNL     1     -12.982  12.130  63.641  1.00  0.00    -0.780 OA 
HETATM   27  H   UNL     1     -10.881  11.112  64.539  1.00  0.00     0.000 HD 
HETATM   28  C   UNL     1     -10.471  12.376  66.157  1.00  0.00    -0.248 A  
HETATM   29  C   UNL     1      -9.314  11.692  66.539  1.00  0.00    -0.206 A  
HETATM   30  C   UNL     1      -8.612  12.095  67.663  1.00  0.00    -0.166 A  
HETATM   31  O   UNL     1      -8.807  10.627  65.844  1.00  0.00    -0.162 OA 
HETATM   32  C   UNL     1      -9.075  13.171  68.431  1.00  0.00    -0.134 A  
HETATM   33  H   UNL     1      -8.021  10.161  66.104  1.00  0.00     0.000 HD 
ENDBRANCH  17  20
ENDBRANCH  16  17
ENDBRANCH  14  16
ENDBRANCH  10  14
ENDBRANCH   2   3
TORSDOF 6
ENDMDL
MODEL       35
REMARK 921   NORMALIZED FREE ENERGY PREDICTED BY IDOCK:   -6.90 KCAL/MOL
REMARK 922        TOTAL FREE ENERGY PREDICTED BY IDOCK:  -10.59 KCAL/MOL
REMARK 923 INTER-LIGAND FREE ENERGY PREDICTED BY IDOCK:   -9.74 KCAL/MOL
REMARK 924 INTRA-LIGAND FREE ENERGY PREDICTED BY IDOCK:   -0.85 KCAL/MOL
REMARK 927      BINDING AFFINITY PREDICTED BY RF-SCORE:    0.00 PKD
ROOT
HETATM    1  C   UNL     1      -5.472  20.780  69.610  1.00  0.00    -0.408 C  
HETATM    2  C   UNL     1      -6.089  20.780  68.220  1.00  0.00    -0.380 C  
ENDROOT
BRANCH   2   3
HETATM    3  C   UNL     1      -7.220  19.813  67.925  1.00  0.00    -0.313 A  
HETATM    4  C   UNL     1      -6.977  18.430  68.173  1.00  0.00    -0.241 A  
HETATM    5  C   UNL     1      -8.059  17.558  68.300  1.00  0.00    -0.268 A  
HETATM    6  C   UNL     1      -8.443  20.176  67.326  1.00  0.00    -0.403 A  
HETATM    7  C   UNL     1      -9.397  19.179  67.145  1.00  0.00    -0.358 A  
HETATM    8  C   UNL     1      -9.291  17.976  67.845  1.00  0.00    -0.264 A  
HETATM    9  C   UNL     1     -10.389  17.044  67.443  1.00  0.00    -0.319 C  
HETATM   10  C   UNL     1     -10.274  17.336  65.937  1.00  0.00    -0.261 C  
HETATM   11  C   UNL     1     -10.354  18.931  65.964  1.00  0.00    -0.485 C  
BRANCH   4  12
HETATM   12  C   UNL     1      -5.560  17.890  68.054  1.00  0.00    -0.150 C  
HETATM   13  C   UNL     1      -5.156  16.798  69.046  1.00  0.00    -0.128 C  
ENDBRANCH   4  12
BRANCH  10  14
HETATM   14  N   UNL     1     -11.083  16.447  65.079  1.00  0.00    -0.436 NA 
HETATM   15  H   UNL     1     -11.158  16.796  64.124  1.00  0.00     0.000 HD 
BRANCH  14  16
HETATM   16  C   UNL     1     -10.515  15.047  65.132  1.00  0.00    -0.412 C  
BRANCH  16  17
HETATM   17  C   UNL     1     -11.537  13.895  65.341  1.00  0.00    -0.325 C  
HETATM   18  H   UNL     1     -13.479  13.730  65.264  1.00  0.00     0.000 HD 
HETATM   19  O   UNL     1     -12.854  14.435  65.136  1.00  0.00    -0.602 OA 
BRANCH  17  20
HETATM   20  C   UNL     1     -11.463  13.195  66.713  1.00  0.00    -0.386 A  
HETATM   21  C   UNL     1     -11.049  11.850  66.868  1.00  0.00    -0.356 A  
HETATM   22  C   UNL     1     -10.470  11.061  65.771  1.00  0.00    -0.290 C  
HETATM   23  C   UNL     1     -10.147   9.771  65.929  1.00  0.00    -0.314 C  
HETATM   24  C   UNL     1     -10.393   9.072  67.217  1.00  0.00    -0.273 C  
HETATM   25  N   UNL     1     -10.871   9.831  68.247  1.00  0.00    -0.378 N  
HETATM   26  O   UNL     1     -10.164   7.880  67.339  1.00  0.00    -0.203 OA 
HETATM   27  H   UNL     1     -11.012   9.380  69.152  1.00  0.00     0.000 HD 
HETATM   28  C   UNL     1     -11.178  11.202  68.131  1.00  0.00    -0.292 A  
HETATM   29  C   UNL     1     -11.652  11.905  69.242  1.00  0.00    -0.315 A  
HETATM   30  C   UNL     1     -11.999  13.241  69.118  1.00  0.00    -0.343 A  
HETATM   31  O   UNL     1     -11.785  11.347  70.485  1.00  0.00    -0.423 OA 
HETATM   32  C   UNL     1     -11.900  13.878  67.875  1.00  0.00    -0.413 A  
HETATM   33  H   UNL     1     -12.107  11.824  71.240  1.00  0.00     0.000 HD 
ENDBRANCH  17  20
ENDBRANCH  16  17
ENDBRANCH  14  16
ENDBRANCH  10  14
ENDBRANCH   2   3
TORSDOF 6
ENDMDL
MODEL       36
REMARK 921   NORMALIZED FREE ENERGY PREDICTED BY IDOCK:   -6.89 KCAL/MOL
REMARK 922        TOTAL FREE ENERGY PREDICTED BY IDOCK:  -10.58 KCAL/MOL
REMARK 923 INTER-LIGAND FREE ENERGY PREDICTED BY IDOCK:   -8.47 KCAL/MOL
REMARK 924 INTRA-LIGAND FREE ENERGY PREDICTED BY IDOCK:   -2.12 KCAL/MOL
REMARK 927      BINDING AFFINITY PREDICTED BY RF-SCORE:    0.00 PKD
ROOT
HETATM    1  C   UNL     1     -10.637   4.258  72.544  1.00  0.00    -0.183 C  
HETATM    2  C   UNL     1     -11.235   5.576  72.080  1.00  0.00    -0.247 C  
ENDROOT
BRANCH   2   3
HETATM    3  C   UNL     1     -10.434   6.446  71.130  1.00  0.00    -0.265 A  
HETATM    4  C   UNL     1      -9.468   7.322  71.706  1.00  0.00    -0.162 A  
HETATM    5  C   UNL     1      -8.452   7.842  70.903  1.00  0.00    -0.126 A  
HETATM    6  C   UNL     1     -10.656   6.522  69.740  1.00  0.00    -0.284 A  
HETATM    7  C   UNL     1      -9.817   7.345  68.995  1.00  0.00    -0.168 A  
HETATM    8  C   UNL     1      -8.606   7.781  69.535  1.00  0.00    -0.135 A  
HETATM    9  C   UNL     1      -7.912   8.697  68.577  1.00  0.00    -0.116 C  
HETATM   10  C   UNL     1      -9.177   9.485  68.198  1.00  0.00    -0.129 C  
HETATM   11  C   UNL     1     -10.144   8.274  67.811  1.00  0.00    -0.262 C  
BRANCH   4  12
HETATM   12  C   UNL     1      -9.696   7.864  73.108  1.00  0.00    -0.353 C  
HETATM   13  C   UNL     1      -8.488   7.874  74.045  1.00  0.00    -0.321 C  
ENDBRANCH   4  12
BRANCH  10  14
HETATM   14  N   UNL     1      -8.925  10.685  67.374  1.00  0.00    -0.136 NA 
HETATM   15  H   UNL     1      -9.230  10.562  66.409  1.00  0.00     0.000 HD 
BRANCH  14  16
HETATM   16  C   UNL     1      -9.569  11.886  68.028  1.00  0.00    -0.193 C  
BRANCH  16  17
HETATM   17  C   UNL     1     -11.122  11.904  68.064  1.00  0.00    -0.240 C  
HETATM   18  H   UNL     1     -12.525  12.778  67.029  1.00  0.00     0.000 HD 
HETATM   19  O   UNL     1     -11.575  12.767  67.007  1.00  0.00    -0.321 OA 
BRANCH  17  20
HETATM   20  C   UNL     1     -11.741  12.346  69.406  1.00  0.00    -0.384 A  
HETATM   21  C   UNL     1     -12.276  11.430  70.343  1.00  0.00    -0.450 A  
HETATM   22  C   UNL     1     -12.120   9.975  70.217  1.00  0.00    -0.226 C  
HETATM   23  C   UNL     1     -12.693   9.129  71.084  1.00  0.00    -0.271 C  
HETATM   24  C   UNL     1     -13.542   9.631  72.196  1.00  0.00    -0.389 C  
HETATM   25  N   UNL     1     -13.627  10.986  72.341  1.00  0.00    -0.401 N  
HETATM   26  O   UNL     1     -14.120   8.859  72.942  1.00  0.00    -0.461 OA 
HETATM   27  H   UNL     1     -14.174  11.353  73.120  1.00  0.00     0.000 HD 
HETATM   28  C   UNL     1     -13.000  11.907  71.475  1.00  0.00    -0.323 A  
HETATM   29  C   UNL     1     -13.131  13.278  71.707  1.00  0.00    -0.379 A  
HETATM   30  C   UNL     1     -12.555  14.185  70.831  1.00  0.00    -0.433 A  
HETATM   31  O   UNL     1     -13.798  13.800  72.782  1.00  0.00    -0.716 OA 
HETATM   32  C   UNL     1     -11.864  13.726  69.702  1.00  0.00    -0.393 A  
HETATM   33  H   UNL     1     -13.888  14.732  72.939  1.00  0.00     0.000 HD 
ENDBRANCH  17  20
ENDBRANCH  16  17
ENDBRANCH  14  16
ENDBRANCH  10  14
ENDBRANCH   2   3
TORSDOF 6
ENDMDL
MODEL       37
REMARK 921   NORMALIZED FREE ENERGY PREDICTED BY IDOCK:   -6.87 KCAL/MOL
REMARK 922        TOTAL FREE ENERGY PREDICTED BY IDOCK:  -10.55 KCAL/MOL
REMARK 923 INTER-LIGAND FREE ENERGY PREDICTED BY IDOCK:   -8.91 KCAL/MOL
REMARK 924 INTRA-LIGAND FREE ENERGY PREDICTED BY IDOCK:   -1.64 KCAL/MOL
REMARK 927      BINDING AFFINITY PREDICTED BY RF-SCORE:    0.00 PKD
ROOT
HETATM    1  C   UNL     1     -10.532   5.171  68.800  1.00  0.00    -0.113 C  
HETATM    2  C   UNL     1     -11.108   6.542  69.113  1.00  0.00    -0.387 C  
ENDROOT
BRANCH   2   3
HETATM    3  C   UNL     1     -10.424   7.768  68.540  1.00  0.00    -0.202 A  
HETATM    4  C   UNL     1      -9.730   8.614  69.454  1.00  0.00    -0.176 A  
HETATM    5  C   UNL     1      -8.776   9.509  68.968  1.00  0.00    -0.142 A  
HETATM    6  C   UNL     1     -10.520   8.179  67.195  1.00  0.00    -0.396 A  
HETATM    7  C   UNL     1      -9.809   9.313  66.812  1.00  0.00    -0.289 A  
HETATM    8  C   UNL     1      -8.778   9.797  67.620  1.00  0.00    -0.125 A  
HETATM    9  C   UNL     1      -8.208  11.050  67.036  1.00  0.00    -0.138 C  
HETATM   10  C   UNL     1      -9.569  11.668  66.676  1.00  0.00    -0.204 C  
HETATM   11  C   UNL     1     -10.211  10.455  65.860  1.00  0.00    -0.302 C  
BRANCH   4  12
HETATM   12  C   UNL     1     -10.205   8.702  70.896  1.00  0.00    -0.261 C  
HETATM   13  C   UNL     1      -9.139   8.547  71.981  1.00  0.00    -0.317 C  
ENDBRANCH   4  12
BRANCH  10  14
HETATM   14  N   UNL     1      -9.502  13.073  66.223  1.00  0.00    -0.391 NA 
HETATM   15  H   UNL     1      -9.416  13.148  65.210  1.00  0.00     0.000 HD 
BRANCH  14  16
HETATM   16  C   UNL     1     -10.700  13.828  66.752  1.00  0.00    -0.276 C  
BRANCH  16  17
HETATM   17  C   UNL     1     -10.581  14.386  68.198  1.00  0.00    -0.236 C  
HETATM   18  H   UNL     1      -9.115  14.727  69.439  1.00  0.00     0.000 HD 
HETATM   19  O   UNL     1      -9.188  14.386  68.555  1.00  0.00    -0.194 OA 
BRANCH  17  20
HETATM   20  C   UNL     1     -11.396  13.624  69.262  1.00  0.00    -0.323 A  
HETATM   21  C   UNL     1     -11.856  14.230  70.456  1.00  0.00    -0.364 A  
HETATM   22  C   UNL     1     -11.769  15.677  70.703  1.00  0.00    -0.398 C  
HETATM   23  C   UNL     1     -12.152  16.214  71.869  1.00  0.00    -0.548 C  
HETATM   24  C   UNL     1     -12.653  15.361  72.978  1.00  0.00    -0.434 C  
HETATM   25  N   UNL     1     -12.790  14.028  72.715  1.00  0.00    -0.353 N  
HETATM   26  O   UNL     1     -12.935  15.843  74.062  1.00  0.00    -0.575 OA 
HETATM   27  H   UNL     1     -13.166  13.429  73.449  1.00  0.00     0.000 HD 
HETATM   28  C   UNL     1     -12.440  13.434  71.484  1.00  0.00    -0.154 A  
HETATM   29  C   UNL     1     -12.625  12.061  71.298  1.00  0.00    -0.252 A  
HETATM   30  C   UNL     1     -12.239  11.468  70.107  1.00  0.00    -0.387 A  
HETATM   31  O   UNL     1     -13.194  11.244  72.237  1.00  0.00    -0.597 OA 
HETATM   32  C   UNL     1     -11.640  12.238  69.102  1.00  0.00    -0.373 A  
HETATM   33  H   UNL     1     -13.319  10.311  72.111  1.00  0.00     0.000 HD 
ENDBRANCH  17  20
ENDBRANCH  16  17
ENDBRANCH  14  16
ENDBRANCH  10  14
ENDBRANCH   2   3
TORSDOF 6
ENDMDL
MODEL       38
REMARK 921   NORMALIZED FREE ENERGY PREDICTED BY IDOCK:   -6.86 KCAL/MOL
REMARK 922        TOTAL FREE ENERGY PREDICTED BY IDOCK:  -10.54 KCAL/MOL
REMARK 923 INTER-LIGAND FREE ENERGY PREDICTED BY IDOCK:   -8.82 KCAL/MOL
REMARK 924 INTRA-LIGAND FREE ENERGY PREDICTED BY IDOCK:   -1.72 KCAL/MOL
REMARK 927      BINDING AFFINITY PREDICTED BY RF-SCORE:    0.00 PKD
ROOT
HETATM    1  C   UNL     1     -12.146  12.728  63.464  1.00  0.00    -0.642 C  
HETATM    2  C   UNL     1     -11.102  12.872  64.560  1.00  0.00    -0.373 C  
ENDROOT
BRANCH   2   3
HETATM    3  C   UNL     1     -10.811  11.679  65.450  1.00  0.00    -0.336 A  
HETATM    4  C   UNL     1     -11.293  11.732  66.790  1.00  0.00    -0.385 A  
HETATM    5  C   UNL     1     -11.408  10.549  67.522  1.00  0.00    -0.181 A  
HETATM    6  C   UNL     1     -10.008  10.582  65.074  1.00  0.00    -0.388 A  
HETATM    7  C   UNL     1      -9.857   9.547  65.991  1.00  0.00    -0.353 A  
HETATM    8  C   UNL     1     -10.738   9.433  67.069  1.00  0.00    -0.207 A  
HETATM    9  C   UNL     1     -10.340   8.288  67.945  1.00  0.00    -0.278 C  
HETATM   10  C   UNL     1      -8.836   8.607  67.915  1.00  0.00    -0.137 C  
HETATM   11  C   UNL     1      -8.612   8.708  66.337  1.00  0.00    -0.130 C  
BRANCH   4  12
HETATM   12  C   UNL     1     -11.445  13.080  67.475  1.00  0.00    -0.375 C  
HETATM   13  C   UNL     1     -11.899  13.063  68.934  1.00  0.00    -0.358 C  
ENDBRANCH   4  12
BRANCH  10  14
HETATM   14  N   UNL     1      -8.023   7.805  68.852  1.00  0.00    -0.122 NA 
HETATM   15  H   UNL     1      -7.423   7.137  68.369  1.00  0.00     0.000 HD 
BRANCH  14  16
HETATM   16  C   UNL     1      -7.237   8.730  69.753  1.00  0.00    -0.051 C  
BRANCH  16  17
HETATM   17  C   UNL     1      -7.872   9.053  71.134  1.00  0.00    -0.116 C  
HETATM   18  H   UNL     1      -7.196   9.342  72.940  1.00  0.00     0.000 HD 
HETATM   19  O   UNL     1      -6.807   9.145  72.096  1.00  0.00    -0.309 OA 
BRANCH  17  20
HETATM   20  C   UNL     1      -8.933   8.043  71.618  1.00  0.00    -0.192 A  
HETATM   21  C   UNL     1     -10.309   8.360  71.711  1.00  0.00    -0.333 A  
HETATM   22  C   UNL     1     -10.880   9.604  71.176  1.00  0.00    -0.404 C  
HETATM   23  C   UNL     1     -12.175   9.907  71.336  1.00  0.00    -0.499 C  
HETATM   24  C   UNL     1     -13.085   9.009  72.093  1.00  0.00    -0.435 C  
HETATM   25  N   UNL     1     -12.559   7.826  72.529  1.00  0.00    -0.544 N  
HETATM   26  O   UNL     1     -14.247   9.319  72.298  1.00  0.00    -0.371 OA 
HETATM   27  H   UNL     1     -13.174   7.177  73.019  1.00  0.00     0.000 HD 
HETATM   28  C   UNL     1     -11.212   7.453  72.339  1.00  0.00    -0.293 A  
HETATM   29  C   UNL     1     -10.761   6.216  72.809  1.00  0.00    -0.239 A  
HETATM   30  C   UNL     1      -9.428   5.867  72.665  1.00  0.00    -0.152 A  
HETATM   31  O   UNL     1     -11.578   5.295  73.406  1.00  0.00    -0.504 OA 
HETATM   32  C   UNL     1      -8.528   6.763  72.073  1.00  0.00    -0.112 A  
HETATM   33  H   UNL     1     -11.271   4.455  73.726  1.00  0.00     0.000 HD 
ENDBRANCH  17  20
ENDBRANCH  16  17
ENDBRANCH  14  16
ENDBRANCH  10  14
ENDBRANCH   2   3
TORSDOF 6
ENDMDL
MODEL       39
REMARK 921   NORMALIZED FREE ENERGY PREDICTED BY IDOCK:   -6.76 KCAL/MOL
REMARK 922        TOTAL FREE ENERGY PREDICTED BY IDOCK:  -10.40 KCAL/MOL
REMARK 923 INTER-LIGAND FREE ENERGY PREDICTED BY IDOCK:   -9.19 KCAL/MOL
REMARK 924 INTRA-LIGAND FREE ENERGY PREDICTED BY IDOCK:   -1.21 KCAL/MOL
REMARK 927      BINDING AFFINITY PREDICTED BY RF-SCORE:    0.00 PKD
ROOT
HETATM    1  C   UNL     1     -11.829  13.021  63.335  1.00  0.00    -0.543 C  
HETATM    2  C   UNL     1     -10.542  12.781  64.107  1.00  0.00    -0.441 C  
ENDROOT
BRANCH   2   3
HETATM    3  C   UNL     1     -10.442  11.554  64.993  1.00  0.00    -0.344 A  
HETATM    4  C   UNL     1     -10.952  11.664  66.320  1.00  0.00    -0.338 A  
HETATM    5  C   UNL     1     -11.248  10.504  67.037  1.00  0.00    -0.068 A  
HETATM    6  C   UNL     1      -9.787  10.360  64.629  1.00  0.00    -0.405 A  
HETATM    7  C   UNL     1      -9.805   9.308  65.540  1.00  0.00    -0.155 A  
HETATM    8  C   UNL     1     -10.724   9.310  66.591  1.00  0.00    -0.066 A  
HETATM    9  C   UNL     1     -10.512   8.116  67.466  1.00  0.00    -0.326 C  
HETATM   10  C   UNL     1      -8.978   8.226  67.481  1.00  0.00    -0.134 C  
HETATM   11  C   UNL     1      -8.697   8.305  65.911  1.00  0.00    -0.187 C  
BRANCH   4  12
HETATM   12  C   UNL     1     -10.937  13.016  67.014  1.00  0.00    -0.289 C  
HETATM   13  C   UNL     1     -12.249  13.801  67.018  1.00  0.00    -0.381 C  
ENDBRANCH   4  12
BRANCH  10  14
HETATM   14  N   UNL     1      -8.309   7.314  68.433  1.00  0.00    -0.125 NA 
HETATM   15  H   UNL     1      -7.293   7.371  68.373  1.00  0.00     0.000 HD 
BRANCH  14  16
HETATM   16  C   UNL     1      -8.816   7.588  69.830  1.00  0.00    -0.141 C  
BRANCH  16  17
HETATM   17  C   UNL     1      -9.449   8.986  70.073  1.00  0.00    -0.187 C  
HETATM   18  H   UNL     1      -8.886  10.631  70.957  1.00  0.00     0.000 HD 
HETATM   19  O   UNL     1      -8.498   9.776  70.808  1.00  0.00    -0.207 OA 
BRANCH  17  20
HETATM   20  C   UNL     1     -10.803   8.971  70.813  1.00  0.00    -0.310 A  
HETATM   21  C   UNL     1     -11.596  10.131  70.984  1.00  0.00    -0.462 A  
HETATM   22  C   UNL     1     -11.304  11.406  70.314  1.00  0.00    -0.116 C  
HETATM   23  C   UNL     1     -12.034  12.505  70.545  1.00  0.00    -0.277 C  
HETATM   24  C   UNL     1     -13.155  12.488  71.520  1.00  0.00    -0.277 C  
HETATM   25  N   UNL     1     -13.459  11.283  72.088  1.00  0.00    -0.528 N  
HETATM   26  O   UNL     1     -13.775  13.505  71.783  1.00  0.00    -0.368 OA 
HETATM   27  H   UNL     1     -14.248  11.240  72.732  1.00  0.00     0.000 HD 
HETATM   28  C   UNL     1     -12.741  10.096  71.833  1.00  0.00    -0.396 A  
HETATM   29  C   UNL     1     -13.129   8.904  72.450  1.00  0.00    -0.418 A  
HETATM   30  C   UNL     1     -12.398   7.746  72.237  1.00  0.00    -0.260 A  
HETATM   31  O   UNL     1     -14.226   8.799  73.262  1.00  0.00    -1.164 OA 
HETATM   32  C   UNL     1     -11.256   7.777  71.426  1.00  0.00    -0.276 A  
HETATM   33  H   UNL     1     -14.489   7.989  73.682  1.00  0.00     0.000 HD 
ENDBRANCH  17  20
ENDBRANCH  16  17
ENDBRANCH  14  16
ENDBRANCH  10  14
ENDBRANCH   2   3
TORSDOF 6
ENDMDL
MODEL       40
REMARK 921   NORMALIZED FREE ENERGY PREDICTED BY IDOCK:   -6.75 KCAL/MOL
REMARK 922        TOTAL FREE ENERGY PREDICTED BY IDOCK:  -10.40 KCAL/MOL
REMARK 923 INTER-LIGAND FREE ENERGY PREDICTED BY IDOCK:   -9.33 KCAL/MOL
REMARK 924 INTRA-LIGAND FREE ENERGY PREDICTED BY IDOCK:   -1.07 KCAL/MOL
REMARK 927      BINDING AFFINITY PREDICTED BY RF-SCORE:    0.00 PKD
ROOT
HETATM    1  C   UNL     1     -10.191   6.350  73.336  1.00  0.00    -0.248 C  
HETATM    2  C   UNL     1      -9.831   7.805  73.087  1.00  0.00    -0.361 C  
ENDROOT
BRANCH   2   3
HETATM    3  C   UNL     1     -10.030   8.377  71.696  1.00  0.00    -0.302 A  
HETATM    4  C   UNL     1      -9.112   7.970  70.685  1.00  0.00    -0.154 A  
HETATM    5  C   UNL     1      -9.456   8.133  69.343  1.00  0.00    -0.162 A  
HETATM    6  C   UNL     1     -10.989   9.358  71.368  1.00  0.00    -0.443 A  
HETATM    7  C   UNL     1     -11.072   9.763  70.040  1.00  0.00    -0.311 A  
HETATM    8  C   UNL     1     -10.495   8.984  69.034  1.00  0.00    -0.235 A  
HETATM    9  C   UNL     1     -10.659   9.650  67.705  1.00  0.00    -0.320 C  
HETATM   10  C   UNL     1     -10.297  11.057  68.209  1.00  0.00    -0.178 C  
HETATM   11  C   UNL     1     -11.299  11.167  69.448  1.00  0.00    -0.352 C  
BRANCH   4  12
HETATM   12  C   UNL     1      -7.692   7.594  71.077  1.00  0.00    -0.088 C  
HETATM   13  C   UNL     1      -6.700   8.744  71.256  1.00  0.00    -0.078 C  
ENDBRANCH   4  12
BRANCH  10  14
HETATM   14  N   UNL     1     -10.132  12.064  67.141  1.00  0.00    -0.201 NA 
HETATM   15  H   UNL     1      -9.345  11.853  66.529  1.00  0.00     0.000 HD 
BRANCH  14  16
HETATM   16  C   UNL     1     -11.429  12.203  66.377  1.00  0.00    -0.370 C  
BRANCH  16  17
HETATM   17  C   UNL     1     -12.266  13.481  66.665  1.00  0.00    -0.358 C  
HETATM   18  H   UNL     1     -13.429  14.644  65.616  1.00  0.00     0.000 HD 
HETATM   19  O   UNL     1     -12.917  13.863  65.440  1.00  0.00    -0.722 OA 
BRANCH  17  20
HETATM   20  C   UNL     1     -11.467  14.673  67.230  1.00  0.00    -0.386 A  
HETATM   21  C   UNL     1     -11.525  15.059  68.590  1.00  0.00    -0.329 A  
HETATM   22  C   UNL     1     -12.191  14.253  69.623  1.00  0.00    -0.371 C  
HETATM   23  C   UNL     1     -12.286  14.675  70.891  1.00  0.00    -0.391 C  
HETATM   24  C   UNL     1     -11.748  15.998  71.300  1.00  0.00    -0.461 C  
HETATM   25  N   UNL     1     -11.075  16.710  70.348  1.00  0.00    -0.414 N  
HETATM   26  O   UNL     1     -11.896  16.412  72.437  1.00  0.00    -0.533 OA 
HETATM   27  H   UNL     1     -10.664  17.604  70.615  1.00  0.00     0.000 HD 
HETATM   28  C   UNL     1     -10.915  16.276  69.015  1.00  0.00    -0.325 A  
HETATM   29  C   UNL     1     -10.200  17.064  68.109  1.00  0.00    -0.322 A  
HETATM   30  C   UNL     1     -10.082  16.662  66.788  1.00  0.00    -0.293 A  
HETATM   31  O   UNL     1      -9.578  18.233  68.455  1.00  0.00    -0.314 OA 
HETATM   32  C   UNL     1     -10.699  15.482  66.356  1.00  0.00    -0.303 A  
HETATM   33  H   UNL     1      -9.093  18.769  67.839  1.00  0.00     0.000 HD 
ENDBRANCH  17  20
ENDBRANCH  16  17
ENDBRANCH  14  16
ENDBRANCH  10  14
ENDBRANCH   2   3
TORSDOF 6
ENDMDL
MODEL       41
REMARK 921   NORMALIZED FREE ENERGY PREDICTED BY IDOCK:   -6.72 KCAL/MOL
REMARK 922        TOTAL FREE ENERGY PREDICTED BY IDOCK:  -10.35 KCAL/MOL
REMARK 923 INTER-LIGAND FREE ENERGY PREDICTED BY IDOCK:   -9.19 KCAL/MOL
REMARK 924 INTRA-LIGAND FREE ENERGY PREDICTED BY IDOCK:   -1.16 KCAL/MOL
REMARK 927      BINDING AFFINITY PREDICTED BY RF-SCORE:    0.00 PKD
ROOT
HETATM    1  C   UNL     1      -5.416  20.934  69.661  1.00  0.00    -0.390 C  
HETATM    2  C   UNL     1      -6.229  20.611  68.418  1.00  0.00    -0.365 C  
ENDROOT
BRANCH   2   3
HETATM    3  C   UNL     1      -6.949  19.277  68.345  1.00  0.00    -0.316 A  
HETATM    4  C   UNL     1      -6.220  18.172  67.818  1.00  0.00    -0.176 A  
HETATM    5  C   UNL     1      -6.663  16.874  68.080  1.00  0.00    -0.149 A  
HETATM    6  C   UNL     1      -8.310  19.088  68.660  1.00  0.00    -0.397 A  
HETATM    7  C   UNL     1      -8.821  17.797  68.573  1.00  0.00    -0.284 A  
HETATM    8  C   UNL     1      -7.953  16.703  68.531  1.00  0.00    -0.224 A  
HETATM    9  C   UNL     1      -8.728  15.433  68.376  1.00  0.00    -0.171 C  
HETATM   10  C   UNL     1      -9.689  15.986  67.311  1.00  0.00    -0.232 C  
HETATM   11  C   UNL     1     -10.187  17.309  68.055  1.00  0.00    -0.332 C  
BRANCH   4  12
HETATM   12  C   UNL     1      -5.127  18.421  66.791  1.00  0.00    -0.143 C  
HETATM   13  C   UNL     1      -5.557  18.455  65.325  1.00  0.00    -0.230 C  
ENDBRANCH   4  12
BRANCH  10  14
HETATM   14  N   UNL     1     -10.559  14.969  66.686  1.00  0.00    -0.295 NA 
HETATM   15  H   UNL     1     -10.498  14.981  65.668  1.00  0.00     0.000 HD 
BRANCH  14  16
HETATM   16  C   UNL     1     -10.235  13.609  67.262  1.00  0.00    -0.246 C  
BRANCH  16  17
HETATM   17  C   UNL     1     -11.445  12.728  67.677  1.00  0.00    -0.334 C  
HETATM   18  H   UNL     1     -13.263  12.467  67.019  1.00  0.00     0.000 HD 
HETATM   19  O   UNL     1     -12.522  13.005  66.765  1.00  0.00    -0.324 OA 
BRANCH  17  20
HETATM   20  C   UNL     1     -11.925  12.918  69.130  1.00  0.00    -0.308 A  
HETATM   21  C   UNL     1     -12.085  11.840  70.033  1.00  0.00    -0.387 A  
HETATM   22  C   UNL     1     -11.629  10.475  69.736  1.00  0.00    -0.368 C  
HETATM   23  C   UNL     1     -11.852   9.460  70.582  1.00  0.00    -0.268 C  
HETATM   24  C   UNL     1     -12.603   9.669  71.847  1.00  0.00    -0.396 C  
HETATM   25  N   UNL     1     -12.965  10.952  72.143  1.00  0.00    -0.439 N  
HETATM   26  O   UNL     1     -12.866   8.733  72.583  1.00  0.00    -0.383 OA 
HETATM   27  H   UNL     1     -13.448  11.125  73.024  1.00  0.00     0.000 HD 
HETATM   28  C   UNL     1     -12.706  12.052  71.299  1.00  0.00    -0.279 A  
HETATM   29  C   UNL     1     -13.103  13.334  71.687  1.00  0.00    -0.363 A  
HETATM   30  C   UNL     1     -12.892  14.409  70.838  1.00  0.00    -0.419 A  
HETATM   31  O   UNL     1     -13.689  13.608  72.893  1.00  0.00    -0.672 OA 
HETATM   32  C   UNL     1     -12.305  14.206  69.582  1.00  0.00    -0.304 A  
HETATM   33  H   UNL     1     -13.959  14.480  73.157  1.00  0.00     0.000 HD 
ENDBRANCH  17  20
ENDBRANCH  16  17
ENDBRANCH  14  16
ENDBRANCH  10  14
ENDBRANCH   2   3
TORSDOF 6
ENDMDL
MODEL       42
REMARK 921   NORMALIZED FREE ENERGY PREDICTED BY IDOCK:   -6.72 KCAL/MOL
REMARK 922        TOTAL FREE ENERGY PREDICTED BY IDOCK:  -10.35 KCAL/MOL
REMARK 923 INTER-LIGAND FREE ENERGY PREDICTED BY IDOCK:   -9.65 KCAL/MOL
REMARK 924 INTRA-LIGAND FREE ENERGY PREDICTED BY IDOCK:   -0.70 KCAL/MOL
REMARK 927      BINDING AFFINITY PREDICTED BY RF-SCORE:    0.00 PKD
ROOT
HETATM    1  C   UNL     1     -11.704   1.986  73.565  1.00  0.00    -0.260 C  
HETATM    2  C   UNL     1     -10.633   3.063  73.624  1.00  0.00    -0.264 C  
ENDROOT
BRANCH   2   3
HETATM    3  C   UNL     1     -10.778   4.283  72.734  1.00  0.00    -0.217 A  
HETATM    4  C   UNL     1     -10.011   4.309  71.533  1.00  0.00    -0.243 A  
HETATM    5  C   UNL     1     -10.378   5.180  70.506  1.00  0.00    -0.314 A  
HETATM    6  C   UNL     1     -11.529   5.428  73.068  1.00  0.00    -0.324 A  
HETATM    7  C   UNL     1     -11.590   6.457  72.134  1.00  0.00    -0.357 A  
HETATM    8  C   UNL     1     -11.234   6.217  70.805  1.00  0.00    -0.387 A  
HETATM    9  C   UNL     1     -11.322   7.480  70.009  1.00  0.00    -0.115 C  
HETATM   10  C   UNL     1     -10.656   8.364  71.077  1.00  0.00    -0.214 C  
HETATM   11  C   UNL     1     -11.553   7.983  72.342  1.00  0.00    -0.450 C  
BRANCH   4  12
HETATM   12  C   UNL     1      -8.681   3.574  71.482  1.00  0.00    -0.127 C  
HETATM   13  C   UNL     1      -7.700   4.003  70.391  1.00  0.00    -0.045 C  
ENDBRANCH   4  12
BRANCH  10  14
HETATM   14  N   UNL     1     -10.338   9.734  70.625  1.00  0.00    -0.312 NA 
HETATM   15  H   UNL     1      -9.482  10.091  71.047  1.00  0.00     0.000 HD 
BRANCH  14  16
HETATM   16  C   UNL     1     -10.288   9.765  69.115  1.00  0.00    -0.211 C  
BRANCH  16  17
HETATM   17  C   UNL     1     -10.984  10.971  68.425  1.00  0.00    -0.230 C  
HETATM   18  H   UNL     1     -12.826  11.579  68.218  1.00  0.00     0.000 HD 
HETATM   19  O   UNL     1     -12.400  10.841  68.640  1.00  0.00    -0.430 OA 
BRANCH  17  20
HETATM   20  C   UNL     1     -10.692  11.121  66.918  1.00  0.00    -0.322 A  
HETATM   21  C   UNL     1     -11.164  12.212  66.150  1.00  0.00    -0.386 A  
HETATM   22  C   UNL     1     -11.806  13.391  66.746  1.00  0.00    -0.452 C  
HETATM   23  C   UNL     1     -12.302  14.379  65.990  1.00  0.00    -0.337 C  
HETATM   24  C   UNL     1     -12.253  14.306  64.506  1.00  0.00    -0.455 C  
HETATM   25  N   UNL     1     -11.598  13.237  63.964  1.00  0.00    -0.459 N  
HETATM   26  O   UNL     1     -12.767  15.171  63.817  1.00  0.00    -0.722 OA 
HETATM   27  H   UNL     1     -11.519  13.185  62.949  1.00  0.00     0.000 HD 
HETATM   28  C   UNL     1     -11.023  12.202  64.731  1.00  0.00    -0.310 A  
HETATM   29  C   UNL     1     -10.360  11.150  64.093  1.00  0.00    -0.361 A  
HETATM   30  C   UNL     1      -9.836  10.109  64.841  1.00  0.00    -0.390 A  
HETATM   31  O   UNL     1     -10.177  11.089  62.738  1.00  0.00    -0.655 OA 
HETATM   32  C   UNL     1      -9.992  10.097  66.233  1.00  0.00    -0.304 A  
HETATM   33  H   UNL     1      -9.726  10.374  62.303  1.00  0.00     0.000 HD 
ENDBRANCH  17  20
ENDBRANCH  16  17
ENDBRANCH  14  16
ENDBRANCH  10  14
ENDBRANCH   2   3
TORSDOF 6
ENDMDL
MODEL       43
REMARK 921   NORMALIZED FREE ENERGY PREDICTED BY IDOCK:   -6.71 KCAL/MOL
REMARK 922        TOTAL FREE ENERGY PREDICTED BY IDOCK:  -10.34 KCAL/MOL
REMARK 923 INTER-LIGAND FREE ENERGY PREDICTED BY IDOCK:   -8.56 KCAL/MOL
REMARK 924 INTRA-LIGAND FREE ENERGY PREDICTED BY IDOCK:   -1.78 KCAL/MOL
REMARK 927      BINDING AFFINITY PREDICTED BY RF-SCORE:    0.00 PKD
ROOT
HETATM    1  C   UNL     1     -10.825   4.588  72.662  1.00  0.00    -0.193 C  
HETATM    2  C   UNL     1     -10.841   6.084  72.930  1.00  0.00    -0.291 C  
ENDROOT
BRANCH   2   3
HETATM    3  C   UNL     1     -10.462   7.030  71.807  1.00  0.00    -0.223 A  
HETATM    4  C   UNL     1     -11.002   8.348  71.854  1.00  0.00    -0.375 A  
HETATM    5  C   UNL     1     -10.403   9.360  71.102  1.00  0.00    -0.377 A  
HETATM    6  C   UNL     1      -9.706   6.661  70.676  1.00  0.00    -0.183 A  
HETATM    7  C   UNL     1      -9.413   7.650  69.742  1.00  0.00    -0.156 A  
HETATM    8  C   UNL     1      -9.545   8.997  70.087  1.00  0.00    -0.217 A  
HETATM    9  C   UNL     1      -9.235   9.866  68.909  1.00  0.00    -0.160 C  
HETATM   10  C   UNL     1     -10.018   9.012  67.897  1.00  0.00    -0.178 C  
HETATM   11  C   UNL     1      -9.383   7.579  68.204  1.00  0.00    -0.137 C  
BRANCH   4  12
HETATM   12  C   UNL     1     -12.349   8.578  72.522  1.00  0.00    -0.372 C  
HETATM   13  C   UNL     1     -13.591   8.228  71.703  1.00  0.00    -0.381 C  
ENDBRANCH   4  12
BRANCH  10  14
HETATM   14  N   UNL     1     -10.158   9.625  66.560  1.00  0.00    -0.242 NA 
HETATM   15  H   UNL     1     -10.979   9.282  66.062  1.00  0.00     0.000 HD 
BRANCH  14  16
HETATM   16  C   UNL     1     -10.160  11.130  66.696  1.00  0.00    -0.217 C  
BRANCH  16  17
HETATM   17  C   UNL     1     -11.526  11.792  67.029  1.00  0.00    -0.298 C  
HETATM   18  H   UNL     1     -13.006  12.521  65.989  1.00  0.00     0.000 HD 
HETATM   19  O   UNL     1     -12.171  12.116  65.785  1.00  0.00    -0.586 OA 
BRANCH  17  20
HETATM   20  C   UNL     1     -11.445  13.047  67.921  1.00  0.00    -0.352 A  
HETATM   21  C   UNL     1     -11.970  13.090  69.236  1.00  0.00    -0.331 A  
HETATM   22  C   UNL     1     -12.463  11.897  69.938  1.00  0.00    -0.046 C  
HETATM   23  C   UNL     1     -13.015  11.977  71.156  1.00  0.00    -0.252 C  
HETATM   24  C   UNL     1     -13.181  13.288  71.837  1.00  0.00    -0.431 C  
HETATM   25  N   UNL     1     -12.661  14.380  71.203  1.00  0.00    -0.329 N  
HETATM   26  O   UNL     1     -13.746  13.369  72.914  1.00  0.00    -0.623 OA 
HETATM   27  H   UNL     1     -12.730  15.285  71.668  1.00  0.00     0.000 HD 
HETATM   28  C   UNL     1     -12.033  14.327  69.941  1.00  0.00    -0.339 A  
HETATM   29  C   UNL     1     -11.518  15.494  69.371  1.00  0.00    -0.337 A  
HETATM   30  C   UNL     1     -10.942  15.452  68.112  1.00  0.00    -0.297 A  
HETATM   31  O   UNL     1     -11.532  16.709  70.002  1.00  0.00    -0.353 OA 
HETATM   32  C   UNL     1     -10.899  14.246  67.400  1.00  0.00    -0.288 A  
HETATM   33  H   UNL     1     -11.183  17.503  69.614  1.00  0.00     0.000 HD 
ENDBRANCH  17  20
ENDBRANCH  16  17
ENDBRANCH  14  16
ENDBRANCH  10  14
ENDBRANCH   2   3
TORSDOF 6
ENDMDL
MODEL       44
REMARK 921   NORMALIZED FREE ENERGY PREDICTED BY IDOCK:   -6.67 KCAL/MOL
REMARK 922        TOTAL FREE ENERGY PREDICTED BY IDOCK:  -10.28 KCAL/MOL
REMARK 923 INTER-LIGAND FREE ENERGY PREDICTED BY IDOCK:   -8.18 KCAL/MOL
REMARK 924 INTRA-LIGAND FREE ENERGY PREDICTED BY IDOCK:   -2.10 KCAL/MOL
REMARK 927      BINDING AFFINITY PREDICTED BY RF-SCORE:    0.00 PKD
ROOT
HETATM    1  C   UNL     1     -11.993  13.788  66.710  1.00  0.00    -0.465 C  
HETATM    2  C   UNL     1     -11.492  12.355  66.622  1.00  0.00    -0.429 C  
ENDROOT
BRANCH   2   3
HETATM    3  C   UNL     1     -11.385  11.542  67.898  1.00  0.00    -0.372 A  
HETATM    4  C   UNL     1     -10.665  10.313  67.829  1.00  0.00    -0.324 A  
HETATM    5  C   UNL     1     -10.199   9.727  69.007  1.00  0.00    -0.214 A  
HETATM    6  C   UNL     1     -12.035  11.865  69.107  1.00  0.00    -0.336 A  
HETATM    7  C   UNL     1     -11.816  11.035  70.202  1.00  0.00    -0.441 A  
HETATM    8  C   UNL     1     -10.734  10.152  70.204  1.00  0.00    -0.355 A  
HETATM    9  C   UNL     1     -10.740   9.328  71.452  1.00  0.00    -0.432 C  
HETATM   10  C   UNL     1     -12.253   9.054  71.429  1.00  0.00    -0.323 C  
HETATM   11  C   UNL     1     -12.798  10.548  71.284  1.00  0.00    -0.532 C  
BRANCH   4  12
HETATM   12  C   UNL     1     -10.626   9.545  66.518  1.00  0.00    -0.133 C  
HETATM   13  C   UNL     1      -9.250   9.100  66.022  1.00  0.00    -0.271 C  
ENDBRANCH   4  12
BRANCH  10  14
HETATM   14  N   UNL     1     -12.709   8.062  72.426  1.00  0.00    -0.551 NA 
HETATM   15  H   UNL     1     -13.449   7.463  72.063  1.00  0.00     0.000 HD 
BRANCH  14  16
HETATM   16  C   UNL     1     -11.522   7.268  72.922  1.00  0.00    -0.183 C  
BRANCH  16  17
HETATM   17  C   UNL     1     -11.380   5.822  72.372  1.00  0.00    -0.294 C  
HETATM   18  H   UNL     1     -11.392   4.033  73.149  1.00  0.00     0.000 HD 
HETATM   19  O   UNL     1     -11.479   4.918  73.486  1.00  0.00    -0.311 OA 
BRANCH  17  20
HETATM   20  C   UNL     1     -10.083   5.547  71.584  1.00  0.00    -0.249 A  
HETATM   21  C   UNL     1     -10.008   5.637  70.173  1.00  0.00    -0.270 A  
HETATM   22  C   UNL     1     -11.095   6.184  69.349  1.00  0.00    -0.479 C  
HETATM   23  C   UNL     1     -11.023   6.197  68.011  1.00  0.00    -0.399 C  
HETATM   24  C   UNL     1      -9.849   5.625  67.302  1.00  0.00    -0.146 C  
HETATM   25  N   UNL     1      -8.818   5.178  68.079  1.00  0.00    -0.102 N  
HETATM   26  O   UNL     1      -9.815   5.573  66.084  1.00  0.00    -0.156 OA 
HETATM   27  H   UNL     1      -7.987   4.815  67.613  1.00  0.00     0.000 HD 
HETATM   28  C   UNL     1      -8.840   5.191  69.489  1.00  0.00    -0.099 A  
HETATM   29  C   UNL     1      -7.734   4.725  70.205  1.00  0.00    -0.058 A  
HETATM   30  C   UNL     1      -7.771   4.693  71.590  1.00  0.00    -0.095 A  
HETATM   31  O   UNL     1      -6.578   4.299  69.610  1.00  0.00    -0.032 OA 
HETATM   32  C   UNL     1      -8.925   5.105  72.270  1.00  0.00    -0.137 A  
HETATM   33  H   UNL     1      -5.826   3.981  70.097  1.00  0.00     0.000 HD 
ENDBRANCH  17  20
ENDBRANCH  16  17
ENDBRANCH  14  16
ENDBRANCH  10  14
ENDBRANCH   2   3
TORSDOF 6
ENDMDL
MODEL       45
REMARK 921   NORMALIZED FREE ENERGY PREDICTED BY IDOCK:   -6.62 KCAL/MOL
REMARK 922        TOTAL FREE ENERGY PREDICTED BY IDOCK:  -10.21 KCAL/MOL
REMARK 923 INTER-LIGAND FREE ENERGY PREDICTED BY IDOCK:   -9.55 KCAL/MOL
REMARK 924 INTRA-LIGAND FREE ENERGY PREDICTED BY IDOCK:   -0.67 KCAL/MOL
REMARK 927      BINDING AFFINITY PREDICTED BY RF-SCORE:    0.00 PKD
ROOT
HETATM    1  C   UNL     1      -8.716   1.700  68.529  1.00  0.00    -0.105 C  
HETATM    2  C   UNL     1      -8.976   1.853  70.018  1.00  0.00    -0.141 C  
ENDROOT
BRANCH   2   3
HETATM    3  C   UNL     1      -9.506   3.179  70.532  1.00  0.00    -0.236 A  
HETATM    4  C   UNL     1      -9.885   3.241  71.905  1.00  0.00    -0.238 A  
HETATM    5  C   UNL     1     -10.000   4.485  72.527  1.00  0.00    -0.225 A  
HETATM    6  C   UNL     1      -9.748   4.308  69.724  1.00  0.00    -0.290 A  
HETATM    7  C   UNL     1     -10.208   5.464  70.347  1.00  0.00    -0.332 A  
HETATM    8  C   UNL     1     -10.088   5.606  71.731  1.00  0.00    -0.240 A  
HETATM    9  C   UNL     1     -10.704   6.895  72.174  1.00  0.00    -0.248 C  
HETATM   10  C   UNL     1     -11.955   6.763  71.289  1.00  0.00    -0.365 C  
HETATM   11  C   UNL     1     -11.260   6.486  69.878  1.00  0.00    -0.456 C  
BRANCH   4  12
HETATM   12  C   UNL     1     -10.387   1.984  72.597  1.00  0.00    -0.231 C  
HETATM   13  C   UNL     1     -11.558   2.153  73.565  1.00  0.00    -0.275 C  
ENDBRANCH   4  12
BRANCH  10  14
HETATM   14  N   UNL     1     -13.000   7.773  71.553  1.00  0.00    -0.375 NA 
HETATM   15  H   UNL     1     -13.667   7.463  72.259  1.00  0.00     0.000 HD 
BRANCH  14  16
HETATM   16  C   UNL     1     -12.347   9.086  71.921  1.00  0.00    -0.384 C  
BRANCH  16  17
HETATM   17  C   UNL     1     -11.871   9.975  70.739  1.00  0.00    -0.346 C  
HETATM   18  H   UNL     1     -10.143  10.487  69.994  1.00  0.00     0.000 HD 
HETATM   19  O   UNL     1     -10.434   9.943  70.717  1.00  0.00    -0.290 OA 
BRANCH  17  20
HETATM   20  C   UNL     1     -12.364  11.436  70.780  1.00  0.00    -0.483 A  
HETATM   21  C   UNL     1     -12.126  12.356  69.730  1.00  0.00    -0.292 A  
HETATM   22  C   UNL     1     -11.565  11.959  68.432  1.00  0.00    -0.376 C  
HETATM   23  C   UNL     1     -11.290  12.861  67.480  1.00  0.00    -0.354 C  
HETATM   24  C   UNL     1     -11.513  14.312  67.713  1.00  0.00    -0.329 C  
HETATM   25  N   UNL     1     -12.095  14.662  68.898  1.00  0.00    -0.528 N  
HETATM   26  O   UNL     1     -11.198  15.138  66.873  1.00  0.00    -0.330 OA 
HETATM   27  H   UNL     1     -12.291  15.649  69.064  1.00  0.00     0.000 HD 
HETATM   28  C   UNL     1     -12.440  13.736  69.904  1.00  0.00    -0.201 A  
HETATM   29  C   UNL     1     -13.043  14.182  71.082  1.00  0.00    -0.328 A  
HETATM   30  C   UNL     1     -13.340  13.280  72.091  1.00  0.00    -0.618 A  
HETATM   31  O   UNL     1     -13.384  15.489  71.305  1.00  0.00    -0.497 OA 
HETATM   32  C   UNL     1     -13.012  11.927  71.940  1.00  0.00    -0.434 A  
HETATM   33  H   UNL     1     -13.794  15.793  72.106  1.00  0.00     0.000 HD 
ENDBRANCH  17  20
ENDBRANCH  16  17
ENDBRANCH  14  16
ENDBRANCH  10  14
ENDBRANCH   2   3
TORSDOF 6
ENDMDL
MODEL       46
REMARK 921   NORMALIZED FREE ENERGY PREDICTED BY IDOCK:   -6.61 KCAL/MOL
REMARK 922        TOTAL FREE ENERGY PREDICTED BY IDOCK:  -10.21 KCAL/MOL
REMARK 923 INTER-LIGAND FREE ENERGY PREDICTED BY IDOCK:   -9.16 KCAL/MOL
REMARK 924 INTRA-LIGAND FREE ENERGY PREDICTED BY IDOCK:   -1.05 KCAL/MOL
REMARK 927      BINDING AFFINITY PREDICTED BY RF-SCORE:    0.00 PKD
ROOT
HETATM    1  C   UNL     1     -11.623   3.867  73.287  1.00  0.00    -0.070 C  
HETATM    2  C   UNL     1     -11.023   5.263  73.296  1.00  0.00    -0.369 C  
ENDROOT
BRANCH   2   3
HETATM    3  C   UNL     1     -10.495   5.838  71.995  1.00  0.00    -0.267 A  
HETATM    4  C   UNL     1     -10.503   7.257  71.858  1.00  0.00    -0.224 A  
HETATM    5  C   UNL     1      -9.694   7.855  70.890  1.00  0.00    -0.177 A  
HETATM    6  C   UNL     1     -10.104   5.065  70.883  1.00  0.00    -0.302 A  
HETATM    7  C   UNL     1      -9.612   5.737  69.768  1.00  0.00    -0.199 A  
HETATM    8  C   UNL     1      -9.190   7.063  69.882  1.00  0.00    -0.144 A  
HETATM    9  C   UNL     1      -8.762   7.586  68.548  1.00  0.00    -0.128 C  
HETATM   10  C   UNL     1      -9.944   6.977  67.774  1.00  0.00    -0.152 C  
HETATM   11  C   UNL     1      -9.840   5.463  68.270  1.00  0.00    -0.196 C  
BRANCH   4  12
HETATM   12  C   UNL     1     -11.556   8.071  72.593  1.00  0.00    -0.448 C  
HETATM   13  C   UNL     1     -12.221   9.202  71.808  1.00  0.00    -0.442 C  
ENDBRANCH   4  12
BRANCH  10  14
HETATM   14  N   UNL     1     -10.048   7.420  66.369  1.00  0.00    -0.471 NA 
HETATM   15  H   UNL     1     -11.008   7.632  66.101  1.00  0.00     0.000 HD 
BRANCH  14  16
HETATM   16  C   UNL     1      -9.120   8.592  66.142  1.00  0.00    -0.195 C  
BRANCH  16  17
HETATM   17  C   UNL     1      -9.682   9.764  65.291  1.00  0.00    -0.300 C  
HETATM   18  H   UNL     1      -8.915  11.125  64.123  1.00  0.00     0.000 HD 
HETATM   19  O   UNL     1      -8.571  10.408  64.643  1.00  0.00    -0.177 OA 
BRANCH  17  20
HETATM   20  C   UNL     1     -10.508  10.804  66.075  1.00  0.00    -0.273 A  
HETATM   21  C   UNL     1     -11.156  11.898  65.451  1.00  0.00    -0.360 A  
HETATM   22  C   UNL     1     -11.263  12.037  63.992  1.00  0.00    -0.468 C  
HETATM   23  C   UNL     1     -11.824  13.115  63.429  1.00  0.00    -0.490 C  
HETATM   24  C   UNL     1     -12.333  14.236  64.261  1.00  0.00    -0.377 C  
HETATM   25  N   UNL     1     -12.287  14.067  65.616  1.00  0.00    -0.454 N  
HETATM   26  O   UNL     1     -12.780  15.248  63.746  1.00  0.00    -0.687 OA 
HETATM   27  H   UNL     1     -12.665  14.808  66.206  1.00  0.00     0.000 HD 
HETATM   28  C   UNL     1     -11.746  12.926  66.243  1.00  0.00    -0.399 A  
HETATM   29  C   UNL     1     -11.750  12.832  67.637  1.00  0.00    -0.367 A  
HETATM   30  C   UNL     1     -11.177  11.733  68.257  1.00  0.00    -0.313 A  
HETATM   31  O   UNL     1     -12.313  13.775  68.453  1.00  0.00    -0.436 OA 
HETATM   32  C   UNL     1     -10.572  10.731  67.488  1.00  0.00    -0.280 A  
HETATM   33  H   UNL     1     -12.316  13.712  69.401  1.00  0.00     0.000 HD 
ENDBRANCH  17  20
ENDBRANCH  16  17
ENDBRANCH  14  16
ENDBRANCH  10  14
ENDBRANCH   2   3
TORSDOF 6
ENDMDL
MODEL       47
REMARK 921   NORMALIZED FREE ENERGY PREDICTED BY IDOCK:   -6.61 KCAL/MOL
REMARK 922        TOTAL FREE ENERGY PREDICTED BY IDOCK:  -10.20 KCAL/MOL
REMARK 923 INTER-LIGAND FREE ENERGY PREDICTED BY IDOCK:   -8.45 KCAL/MOL
REMARK 924 INTRA-LIGAND FREE ENERGY PREDICTED BY IDOCK:   -1.75 KCAL/MOL
REMARK 927      BINDING AFFINITY PREDICTED BY RF-SCORE:    0.00 PKD
ROOT
HETATM    1  C   UNL     1      -8.501   4.571  64.183  1.00  0.00    -0.121 C  
HETATM    2  C   UNL     1      -9.078   5.119  65.478  1.00  0.00    -0.157 C  
ENDROOT
BRANCH   2   3
HETATM    3  C   UNL     1      -8.905   6.594  65.787  1.00  0.00    -0.093 A  
HETATM    4  C   UNL     1      -9.643   7.121  66.885  1.00  0.00    -0.216 A  
HETATM    5  C   UNL     1      -9.247   8.330  67.458  1.00  0.00    -0.155 A  
HETATM    6  C   UNL     1      -8.153   7.489  64.999  1.00  0.00    -0.127 A  
HETATM    7  C   UNL     1      -8.063   8.810  65.428  1.00  0.00    -0.125 A  
HETATM    8  C   UNL     1      -8.390   9.140  66.745  1.00  0.00    -0.123 A  
HETATM    9  C   UNL     1      -8.275  10.617  66.952  1.00  0.00    -0.123 C  
HETATM   10  C   UNL     1      -8.959  10.996  65.628  1.00  0.00    -0.199 C  
HETATM   11  C   UNL     1      -8.093  10.117  64.614  1.00  0.00    -0.153 C  
BRANCH   4  12
HETATM   12  C   UNL     1     -10.977   6.493  67.257  1.00  0.00    -0.475 C  
HETATM   13  C   UNL     1     -11.266   6.325  68.749  1.00  0.00    -0.357 C  
ENDBRANCH   4  12
BRANCH  10  14
HETATM   14  N   UNL     1      -9.256  12.437  65.484  1.00  0.00    -0.427 NA 
HETATM   15  H   UNL     1      -8.493  12.945  65.039  1.00  0.00     0.000 HD 
BRANCH  14  16
HETATM   16  C   UNL     1     -10.564  12.608  64.747  1.00  0.00    -0.317 C  
BRANCH  16  17
HETATM   17  C   UNL     1     -11.856  12.542  65.608  1.00  0.00    -0.438 C  
HETATM   18  H   UNL     1     -13.695  13.157  65.402  1.00  0.00     0.000 HD 
HETATM   19  O   UNL     1     -12.905  13.197  64.875  1.00  0.00    -0.703 OA 
BRANCH  17  20
HETATM   20  C   UNL     1     -11.735  13.158  67.016  1.00  0.00    -0.431 A  
HETATM   21  C   UNL     1     -11.712  12.377  68.197  1.00  0.00    -0.408 A  
HETATM   22  C   UNL     1     -11.606  10.911  68.183  1.00  0.00    -0.317 C  
HETATM   23  C   UNL     1     -11.652  10.193  69.313  1.00  0.00    -0.120 C  
HETATM   24  C   UNL     1     -11.846  10.851  70.631  1.00  0.00    -0.352 C  
HETATM   25  N   UNL     1     -11.879  12.217  70.638  1.00  0.00    -0.466 N  
HETATM   26  O   UNL     1     -11.958  10.192  71.651  1.00  0.00    -0.361 OA 
HETATM   27  H   UNL     1     -11.974  12.691  71.536  1.00  0.00     0.000 HD 
HETATM   28  C   UNL     1     -11.787  13.007  69.474  1.00  0.00    -0.323 A  
HETATM   29  C   UNL     1     -11.817  14.400  69.575  1.00  0.00    -0.329 A  
HETATM   30  C   UNL     1     -11.774  15.178  68.429  1.00  0.00    -0.338 A  
HETATM   31  O   UNL     1     -11.873  15.067  70.770  1.00  0.00    -0.279 OA 
HETATM   32  C   UNL     1     -11.726  14.567  67.169  1.00  0.00    -0.420 A  
HETATM   33  H   UNL     1     -11.894  16.014  70.839  1.00  0.00     0.000 HD 
ENDBRANCH  17  20
ENDBRANCH  16  17
ENDBRANCH  14  16
ENDBRANCH  10  14
ENDBRANCH   2   3
TORSDOF 6
ENDMDL
MODEL       48
REMARK 921   NORMALIZED FREE ENERGY PREDICTED BY IDOCK:   -6.61 KCAL/MOL
REMARK 922        TOTAL FREE ENERGY PREDICTED BY IDOCK:  -10.20 KCAL/MOL
REMARK 923 INTER-LIGAND FREE ENERGY PREDICTED BY IDOCK:   -9.85 KCAL/MOL
REMARK 924 INTRA-LIGAND FREE ENERGY PREDICTED BY IDOCK:   -0.35 KCAL/MOL
REMARK 927      BINDING AFFINITY PREDICTED BY RF-SCORE:    0.00 PKD
ROOT
HETATM    1  C   UNL     1      -6.367   6.136  72.152  1.00  0.00    -0.046 C  
HETATM    2  C   UNL     1      -7.853   5.817  72.148  1.00  0.00    -0.103 C  
ENDROOT
BRANCH   2   3
HETATM    3  C   UNL     1      -8.836   6.930  71.841  1.00  0.00    -0.126 A  
HETATM    4  C   UNL     1     -10.206   6.694  72.153  1.00  0.00    -0.209 A  
HETATM    5  C   UNL     1     -11.078   7.778  72.267  1.00  0.00    -0.355 A  
HETATM    6  C   UNL     1      -8.502   8.127  71.174  1.00  0.00    -0.146 A  
HETATM    7  C   UNL     1      -9.510   9.068  70.990  1.00  0.00    -0.342 A  
HETATM    8  C   UNL     1     -10.685   8.990  71.742  1.00  0.00    -0.437 A  
HETATM    9  C   UNL     1     -11.637  10.066  71.328  1.00  0.00    -0.430 C  
HETATM   10  C   UNL     1     -11.403   9.885  69.818  1.00  0.00    -0.193 C  
HETATM   11  C   UNL     1      -9.809   9.971  69.779  1.00  0.00    -0.270 C  
BRANCH   4  12
HETATM   12  C   UNL     1     -10.744   5.272  72.120  1.00  0.00    -0.271 C  
HETATM   13  C   UNL     1     -11.233   4.691  73.447  1.00  0.00    -0.423 C  
ENDBRANCH   4  12
BRANCH  10  14
HETATM   14  N   UNL     1     -12.330  10.652  68.960  1.00  0.00    -0.779 NA 
HETATM   15  H   UNL     1     -13.097  11.063  69.491  1.00  0.00     0.000 HD 
BRANCH  14  16
HETATM   16  C   UNL     1     -11.552  11.689  68.183  1.00  0.00    -0.319 C  
BRANCH  16  17
HETATM   17  C   UNL     1     -11.536  11.526  66.638  1.00  0.00    -0.129 C  
HETATM   18  H   UNL     1     -10.470  10.507  65.361  1.00  0.00     0.000 HD 
HETATM   19  O   UNL     1     -10.480  10.607  66.306  1.00  0.00    -0.243 OA 
BRANCH  17  20
HETATM   20  C   UNL     1     -11.362  12.836  65.844  1.00  0.00    -0.363 A  
HETATM   21  C   UNL     1     -10.335  13.770  66.119  1.00  0.00    -0.301 A  
HETATM   22  C   UNL     1      -9.231  13.493  67.048  1.00  0.00    -0.248 C  
HETATM   23  C   UNL     1      -8.308  14.420  67.339  1.00  0.00    -0.216 C  
HETATM   24  C   UNL     1      -8.383  15.785  66.755  1.00  0.00    -0.274 C  
HETATM   25  N   UNL     1      -9.375  16.010  65.844  1.00  0.00    -0.330 N  
HETATM   26  O   UNL     1      -7.584  16.649  67.074  1.00  0.00    -0.162 OA 
HETATM   27  H   UNL     1      -9.424  16.928  65.403  1.00  0.00     0.000 HD 
HETATM   28  C   UNL     1     -10.336  15.045  65.479  1.00  0.00    -0.373 A  
HETATM   29  C   UNL     1     -11.311  15.358  64.528  1.00  0.00    -0.313 A  
HETATM   30  C   UNL     1     -12.284  14.427  64.203  1.00  0.00    -0.393 A  
HETATM   31  O   UNL     1     -11.359  16.556  63.867  1.00  0.00    -1.557 OA 
HETATM   32  C   UNL     1     -12.305  13.182  64.845  1.00  0.00    -0.494 A  
HETATM   33  H   UNL     1     -12.021  16.770  63.221  1.00  0.00     0.000 HD 
ENDBRANCH  17  20
ENDBRANCH  16  17
ENDBRANCH  14  16
ENDBRANCH  10  14
ENDBRANCH   2   3
TORSDOF 6
ENDMDL
MODEL       49
REMARK 921   NORMALIZED FREE ENERGY PREDICTED BY IDOCK:   -6.60 KCAL/MOL
REMARK 922        TOTAL FREE ENERGY PREDICTED BY IDOCK:  -10.20 KCAL/MOL
REMARK 923 INTER-LIGAND FREE ENERGY PREDICTED BY IDOCK:   -9.15 KCAL/MOL
REMARK 924 INTRA-LIGAND FREE ENERGY PREDICTED BY IDOCK:   -1.05 KCAL/MOL
REMARK 927      BINDING AFFINITY PREDICTED BY RF-SCORE:    0.00 PKD
ROOT
HETATM    1  C   UNL     1     -11.550  14.524  65.907  1.00  0.00    -0.349 C  
HETATM    2  C   UNL     1     -11.737  14.829  67.384  1.00  0.00    -0.371 C  
ENDROOT
BRANCH   2   3
HETATM    3  C   UNL     1     -11.822  13.671  68.361  1.00  0.00    -0.407 A  
HETATM    4  C   UNL     1     -11.849  13.992  69.750  1.00  0.00    -0.385 A  
HETATM    5  C   UNL     1     -12.312  13.041  70.661  1.00  0.00    -0.391 A  
HETATM    6  C   UNL     1     -11.765  12.312  67.993  1.00  0.00    -0.417 A  
HETATM    7  C   UNL     1     -11.886  11.362  69.003  1.00  0.00    -0.415 A  
HETATM    8  C   UNL     1     -12.396  11.729  70.250  1.00  0.00    -0.320 A  
HETATM    9  C   UNL     1     -12.372  10.561  71.183  1.00  0.00    -0.510 C  
HETATM   10  C   UNL     1     -10.965  10.090  70.780  1.00  0.00    -0.305 C  
HETATM   11  C   UNL     1     -11.145  10.025  69.194  1.00  0.00    -0.232 C  
BRANCH   4  12
HETATM   12  C   UNL     1     -11.158  15.255  70.237  1.00  0.00    -0.316 C  
HETATM   13  C   UNL     1     -11.673  15.861  71.542  1.00  0.00    -0.545 C  
ENDBRANCH   4  12
BRANCH  10  14
HETATM   14  N   UNL     1     -10.413   9.015  71.630  1.00  0.00    -0.337 NA 
HETATM   15  H   UNL     1      -9.781   9.373  72.344  1.00  0.00     0.000 HD 
BRANCH  14  16
HETATM   16  C   UNL     1     -11.549   8.212  72.223  1.00  0.00    -0.374 C  
BRANCH  16  17
HETATM   17  C   UNL     1     -12.101   7.050  71.352  1.00  0.00    -0.355 C  
HETATM   18  H   UNL     1     -13.534   5.739  71.532  1.00  0.00     0.000 HD 
HETATM   19  O   UNL     1     -13.196   6.450  72.065  1.00  0.00    -0.114 OA 
BRANCH  17  20
HETATM   20  C   UNL     1     -11.069   5.971  70.969  1.00  0.00    -0.348 A  
HETATM   21  C   UNL     1     -10.716   5.688  69.628  1.00  0.00    -0.398 A  
HETATM   22  C   UNL     1     -11.149   6.517  68.495  1.00  0.00    -0.347 C  
HETATM   23  C   UNL     1     -10.854   6.189  67.230  1.00  0.00    -0.438 C  
HETATM   24  C   UNL     1     -10.101   4.946  66.918  1.00  0.00    -0.222 C  
HETATM   25  N   UNL     1      -9.648   4.218  67.980  1.00  0.00    -0.162 N  
HETATM   26  O   UNL     1      -9.893   4.612  65.763  1.00  0.00    -0.182 OA 
HETATM   27  H   UNL     1      -9.096   3.381  67.790  1.00  0.00     0.000 HD 
HETATM   28  C   UNL     1      -9.899   4.558  69.326  1.00  0.00    -0.171 A  
HETATM   29  C   UNL     1      -9.387   3.760  70.352  1.00  0.00    -0.165 A  
HETATM   30  C   UNL     1      -9.672   4.066  71.673  1.00  0.00    -0.242 A  
HETATM   31  O   UNL     1      -8.585   2.673  70.131  1.00  0.00    -0.054 OA 
HETATM   32  C   UNL     1     -10.494   5.159  71.978  1.00  0.00    -0.278 A  
HETATM   33  H   UNL     1      -8.236   2.131  70.828  1.00  0.00     0.000 HD 
ENDBRANCH  17  20
ENDBRANCH  16  17
ENDBRANCH  14  16
ENDBRANCH  10  14
ENDBRANCH   2   3
TORSDOF 6
ENDMDL
MODEL       50
REMARK 921   NORMALIZED FREE ENERGY PREDICTED BY IDOCK:   -6.58 KCAL/MOL
REMARK 922        TOTAL FREE ENERGY PREDICTED BY IDOCK:  -10.17 KCAL/MOL
REMARK 923 INTER-LIGAND FREE ENERGY PREDICTED BY IDOCK:   -8.92 KCAL/MOL
REMARK 924 INTRA-LIGAND FREE ENERGY PREDICTED BY IDOCK:   -1.25 KCAL/MOL
REMARK 927      BINDING AFFINITY PREDICTED BY RF-SCORE:    0.00 PKD
ROOT
HETATM    1  C   UNL     1      -9.679   6.348  69.688  1.00  0.00    -0.170 C  
HETATM    2  C   UNL     1     -10.719   7.119  68.893  1.00  0.00    -0.199 C  
ENDROOT
BRANCH   2   3
HETATM    3  C   UNL     1     -10.270   8.310  68.067  1.00  0.00    -0.265 A  
HETATM    4  C   UNL     1     -10.432   9.602  68.646  1.00  0.00    -0.235 A  
HETATM    5  C   UNL     1      -9.703  10.677  68.135  1.00  0.00    -0.167 A  
HETATM    6  C   UNL     1      -9.809   8.229  66.737  1.00  0.00    -0.333 A  
HETATM    7  C   UNL     1      -9.404   9.409  66.121  1.00  0.00    -0.262 A  
HETATM    8  C   UNL     1      -9.126  10.540  66.891  1.00  0.00    -0.161 A  
HETATM    9  C   UNL     1      -8.771  11.694  66.007  1.00  0.00    -0.055 C  
HETATM   10  C   UNL     1      -9.889  11.433  64.983  1.00  0.00    -0.261 C  
HETATM   11  C   UNL     1      -9.617   9.890  64.673  1.00  0.00    -0.320 C  
BRANCH   4  12
HETATM   12  C   UNL     1     -11.560   9.838  69.639  1.00  0.00    -0.032 C  
HETATM   13  C   UNL     1     -11.185   9.824  71.121  1.00  0.00    -0.444 C  
ENDBRANCH   4  12
BRANCH  10  14
HETATM   14  N   UNL     1     -10.054  12.499  63.974  1.00  0.00    -0.569 NA 
HETATM   15  H   UNL     1     -10.646  12.207  63.197  1.00  0.00     0.000 HD 
BRANCH  14  16
HETATM   16  C   UNL     1     -10.570  13.750  64.647  1.00  0.00    -0.425 C  
BRANCH  16  17
HETATM   17  C   UNL     1     -11.788  13.572  65.595  1.00  0.00    -0.369 C  
HETATM   18  H   UNL     1     -13.673  14.071  65.544  1.00  0.00     0.000 HD 
HETATM   19  O   UNL     1     -12.928  14.180  64.964  1.00  0.00    -0.721 OA 
BRANCH  17  20
HETATM   20  C   UNL     1     -11.603  14.149  67.013  1.00  0.00    -0.404 A  
HETATM   21  C   UNL     1     -10.989  15.401  67.259  1.00  0.00    -0.317 A  
HETATM   22  C   UNL     1     -10.650  16.348  66.188  1.00  0.00    -0.259 C  
HETATM   23  C   UNL     1     -10.011  17.497  66.443  1.00  0.00    -0.330 C  
HETATM   24  C   UNL     1      -9.587  17.847  67.824  1.00  0.00    -0.277 C  
HETATM   25  N   UNL     1      -9.964  16.991  68.819  1.00  0.00    -0.278 N  
HETATM   26  O   UNL     1      -8.944  18.860  68.046  1.00  0.00    -0.290 OA 
HETATM   27  H   UNL     1      -9.717  17.230  69.779  1.00  0.00     0.000 HD 
HETATM   28  C   UNL     1     -10.678  15.796  68.593  1.00  0.00    -0.263 A  
HETATM   29  C   UNL     1     -11.033  14.984  69.673  1.00  0.00    -0.279 A  
HETATM   30  C   UNL     1     -11.693  13.786  69.449  1.00  0.00    -0.379 A  
HETATM   31  O   UNL     1     -10.778  15.312  70.977  1.00  0.00    -0.501 OA 
HETATM   32  C   UNL     1     -11.980  13.378  68.141  1.00  0.00    -0.356 A  
HETATM   33  H   UNL     1     -11.020  14.760  71.712  1.00  0.00     0.000 HD 
ENDBRANCH  17  20
ENDBRANCH  16  17
ENDBRANCH  14  16
ENDBRANCH  10  14
ENDBRANCH   2   3
TORSDOF 6
ENDMDL
MODEL       51
REMARK 921   NORMALIZED FREE ENERGY PREDICTED BY IDOCK:   -6.58 KCAL/MOL
REMARK 922        TOTAL FREE ENERGY PREDICTED BY IDOCK:  -10.16 KCAL/MOL
REMARK 923 INTER-LIGAND FREE ENERGY PREDICTED BY IDOCK:   -9.41 KCAL/MOL
REMARK 924 INTRA-LIGAND FREE ENERGY PREDICTED BY IDOCK:   -0.76 KCAL/MOL
REMARK 927      BINDING AFFINITY PREDICTED BY RF-SCORE:    0.00 PKD
ROOT
HETATM    1  C   UNL     1     -11.109   4.800  73.137  1.00  0.00    -0.388 C  
HETATM    2  C   UNL     1     -11.659   5.946  72.304  1.00  0.00    -0.338 C  
ENDROOT
BRANCH   2   3
HETATM    3  C   UNL     1     -10.872   6.408  71.092  1.00  0.00    -0.308 A  
HETATM    4  C   UNL     1      -9.770   7.281  71.324  1.00  0.00    -0.168 A  
HETATM    5  C   UNL     1      -8.791   7.424  70.339  1.00  0.00    -0.149 A  
HETATM    6  C   UNL     1     -11.223   6.121  69.757  1.00  0.00    -0.494 A  
HETATM    7  C   UNL     1     -10.384   6.591  68.752  1.00  0.00    -0.220 A  
HETATM    8  C   UNL     1      -9.086   7.004  69.061  1.00  0.00    -0.135 A  
HETATM    9  C   UNL     1      -8.402   7.521  67.836  1.00  0.00    -0.123 C  
HETATM   10  C   UNL     1      -9.612   8.325  67.330  1.00  0.00    -0.160 C  
HETATM   11  C   UNL     1     -10.731   7.187  67.374  1.00  0.00    -0.368 C  
BRANCH   4  12
HETATM   12  C   UNL     1      -9.799   8.216  72.523  1.00  0.00    -0.363 C  
HETATM   13  C   UNL     1      -8.996   7.786  73.750  1.00  0.00    -0.335 C  
ENDBRANCH   4  12
BRANCH  10  14
HETATM   14  N   UNL     1      -9.323   9.207  66.180  1.00  0.00    -0.208 NA 
HETATM   15  H   UNL     1      -9.011   8.684  65.362  1.00  0.00     0.000 HD 
BRANCH  14  16
HETATM   16  C   UNL     1     -10.534  10.061  65.886  1.00  0.00    -0.045 C  
BRANCH  16  17
HETATM   17  C   UNL     1     -10.684  11.360  66.726  1.00  0.00    -0.271 C  
HETATM   18  H   UNL     1     -11.853  11.953  68.169  1.00  0.00     0.000 HD 
HETATM   19  O   UNL     1     -11.762  11.159  67.656  1.00  0.00    -0.573 OA 
BRANCH  17  20
HETATM   20  C   UNL     1     -10.929  12.643  65.907  1.00  0.00    -0.310 A  
HETATM   21  C   UNL     1     -10.389  13.901  66.270  1.00  0.00    -0.293 A  
HETATM   22  C   UNL     1      -9.395  14.064  67.341  1.00  0.00    -0.220 C  
HETATM   23  C   UNL     1      -8.950  15.273  67.707  1.00  0.00    -0.177 C  
HETATM   24  C   UNL     1      -9.471  16.508  67.064  1.00  0.00    -0.239 C  
HETATM   25  N   UNL     1     -10.344  16.341  66.028  1.00  0.00    -0.335 N  
HETATM   26  O   UNL     1      -9.117  17.611  67.446  1.00  0.00    -0.236 OA 
HETATM   27  H   UNL     1     -10.686  17.173  65.548  1.00  0.00     0.000 HD 
HETATM   28  C   UNL     1     -10.800  15.081  65.585  1.00  0.00    -0.349 A  
HETATM   29  C   UNL     1     -11.686  15.003  64.508  1.00  0.00    -0.368 A  
HETATM   30  C   UNL     1     -12.171  13.770  64.101  1.00  0.00    -0.443 A  
HETATM   31  O   UNL     1     -12.107  16.095  63.798  1.00  0.00    -1.355 OA 
HETATM   32  C   UNL     1     -11.793  12.607  64.785  1.00  0.00    -0.434 A  
HETATM   33  H   UNL     1     -12.710  16.041  63.066  1.00  0.00     0.000 HD 
ENDBRANCH  17  20
ENDBRANCH  16  17
ENDBRANCH  14  16
ENDBRANCH  10  14
ENDBRANCH   2   3
TORSDOF 6
ENDMDL
MODEL       52
REMARK 921   NORMALIZED FREE ENERGY PREDICTED BY IDOCK:   -6.57 KCAL/MOL
REMARK 922        TOTAL FREE ENERGY PREDICTED BY IDOCK:  -10.15 KCAL/MOL
REMARK 923 INTER-LIGAND FREE ENERGY PREDICTED BY IDOCK:   -9.11 KCAL/MOL
REMARK 924 INTRA-LIGAND FREE ENERGY PREDICTED BY IDOCK:   -1.04 KCAL/MOL
REMARK 927      BINDING AFFINITY PREDICTED BY RF-SCORE:    0.00 PKD
ROOT
HETATM    1  C   UNL     1      -7.115   6.323  74.424  1.00  0.00    -0.090 C  
HETATM    2  C   UNL     1      -8.617   6.527  74.546  1.00  0.00    -0.165 C  
ENDROOT
BRANCH   2   3
HETATM    3  C   UNL     1      -9.334   7.325  73.474  1.00  0.00    -0.253 A  
HETATM    4  C   UNL     1     -10.675   6.952  73.171  1.00  0.00    -0.338 A  
HETATM    5  C   UNL     1     -11.504   7.857  72.506  1.00  0.00    -0.455 A  
HETATM    6  C   UNL     1      -8.729   8.329  72.690  1.00  0.00    -0.291 A  
HETATM    7  C   UNL     1      -9.527   8.994  71.764  1.00  0.00    -0.245 A  
HETATM    8  C   UNL     1     -10.918   8.925  71.862  1.00  0.00    -0.439 A  
HETATM    9  C   UNL     1     -11.555   9.664  70.728  1.00  0.00    -0.395 C  
HETATM   10  C   UNL     1     -10.601   9.116  69.653  1.00  0.00    -0.228 C  
HETATM   11  C   UNL     1      -9.198   9.461  70.333  1.00  0.00    -0.305 C  
BRANCH   4  12
HETATM   12  C   UNL     1     -11.107   5.506  73.357  1.00  0.00    -0.280 C  
HETATM   13  C   UNL     1     -10.519   4.483  72.385  1.00  0.00    -0.235 C  
ENDBRANCH   4  12
BRANCH  10  14
HETATM   14  N   UNL     1     -10.991   9.443  68.266  1.00  0.00    -0.471 NA 
HETATM   15  H   UNL     1     -11.496   8.680  67.816  1.00  0.00     0.000 HD 
BRANCH  14  16
HETATM   16  C   UNL     1     -11.780  10.732  68.258  1.00  0.00    -0.127 C  
BRANCH  16  17
HETATM   17  C   UNL     1     -11.106  11.950  67.568  1.00  0.00    -0.273 C  
HETATM   18  H   UNL     1      -9.291  12.404  67.015  1.00  0.00     0.000 HD 
HETATM   19  O   UNL     1      -9.704  11.659  67.437  1.00  0.00    -0.175 OA 
BRANCH  17  20
HETATM   20  C   UNL     1     -11.297  13.300  68.290  1.00  0.00    -0.335 A  
HETATM   21  C   UNL     1     -11.053  14.546  67.664  1.00  0.00    -0.314 A  
HETATM   22  C   UNL     1     -10.785  14.679  66.226  1.00  0.00    -0.316 C  
HETATM   23  C   UNL     1     -10.494  15.864  65.673  1.00  0.00    -0.411 C  
HETATM   24  C   UNL     1     -10.396  17.093  66.502  1.00  0.00    -0.306 C  
HETATM   25  N   UNL     1     -10.710  16.969  67.825  1.00  0.00    -0.342 N  
HETATM   26  O   UNL     1     -10.062  18.158  66.010  1.00  0.00    -0.495 OA 
HETATM   27  H   UNL     1     -10.686  17.807  68.407  1.00  0.00     0.000 HD 
HETATM   28  C   UNL     1     -11.066  15.747  68.433  1.00  0.00    -0.341 A  
HETATM   29  C   UNL     1     -11.384  15.714  69.793  1.00  0.00    -0.327 A  
HETATM   30  C   UNL     1     -11.689  14.507  70.402  1.00  0.00    -0.354 A  
HETATM   31  O   UNL     1     -11.430  16.831  70.583  1.00  0.00    -0.471 OA 
HETATM   32  C   UNL     1     -11.653  13.319  69.661  1.00  0.00    -0.329 A  
HETATM   33  H   UNL     1     -11.646  16.809  71.507  1.00  0.00     0.000 HD 
ENDBRANCH  17  20
ENDBRANCH  16  17
ENDBRANCH  14  16
ENDBRANCH  10  14
ENDBRANCH   2   3
TORSDOF 6
ENDMDL
MODEL       53
REMARK 921   NORMALIZED FREE ENERGY PREDICTED BY IDOCK:   -6.56 KCAL/MOL
REMARK 922        TOTAL FREE ENERGY PREDICTED BY IDOCK:  -10.14 KCAL/MOL
REMARK 923 INTER-LIGAND FREE ENERGY PREDICTED BY IDOCK:   -9.25 KCAL/MOL
REMARK 924 INTRA-LIGAND FREE ENERGY PREDICTED BY IDOCK:   -0.89 KCAL/MOL
REMARK 927      BINDING AFFINITY PREDICTED BY RF-SCORE:    0.00 PKD
ROOT
HETATM    1  C   UNL     1      -9.806   4.596  70.123  1.00  0.00    -0.306 C  
HETATM    2  C   UNL     1      -9.521   5.846  70.939  1.00  0.00    -0.191 C  
ENDROOT
BRANCH   2   3
HETATM    3  C   UNL     1      -9.771   7.202  70.307  1.00  0.00    -0.175 A  
HETATM    4  C   UNL     1     -10.416   8.187  71.110  1.00  0.00    -0.238 A  
HETATM    5  C   UNL     1     -10.325   9.532  70.747  1.00  0.00    -0.377 A  
HETATM    6  C   UNL     1      -9.507   7.513  68.957  1.00  0.00    -0.145 A  
HETATM    7  C   UNL     1      -9.763   8.812  68.530  1.00  0.00    -0.173 A  
HETATM    8  C   UNL     1      -9.922   9.836  69.465  1.00  0.00    -0.230 A  
HETATM    9  C   UNL     1     -10.247  11.122  68.775  1.00  0.00    -0.219 C  
HETATM   10  C   UNL     1     -11.254  10.502  67.792  1.00  0.00    -0.273 C  
HETATM   11  C   UNL     1     -10.363   9.315  67.203  1.00  0.00    -0.330 C  
BRANCH   4  12
HETATM   12  C   UNL     1     -11.384   7.745  72.196  1.00  0.00    -0.353 C  
HETATM   13  C   UNL     1     -12.492   8.729  72.571  1.00  0.00    -0.368 C  
ENDBRANCH   4  12
BRANCH  10  14
HETATM   14  N   UNL     1     -12.016  11.486  66.995  1.00  0.00    -0.448 NA 
HETATM   15  H   UNL     1     -12.841  11.826  67.488  1.00  0.00     0.000 HD 
BRANCH  14  16
HETATM   16  C   UNL     1     -11.097  12.611  66.576  1.00  0.00    -0.280 C  
BRANCH  16  17
HETATM   17  C   UNL     1     -11.770  13.982  66.292  1.00  0.00    -0.387 C  
HETATM   18  H   UNL     1     -12.094  15.068  64.704  1.00  0.00     0.000 HD 
HETATM   19  O   UNL     1     -11.682  14.229  64.877  1.00  0.00    -0.359 OA 
BRANCH  17  20
HETATM   20  C   UNL     1     -11.179  15.174  67.071  1.00  0.00    -0.308 A  
HETATM   21  C   UNL     1     -11.319  15.321  68.472  1.00  0.00    -0.337 A  
HETATM   22  C   UNL     1     -11.866  14.265  69.335  1.00  0.00    -0.372 C  
HETATM   23  C   UNL     1     -12.047  14.455  70.649  1.00  0.00    -0.404 C  
HETATM   24  C   UNL     1     -11.732  15.761  71.284  1.00  0.00    -0.440 C  
HETATM   25  N   UNL     1     -11.164  16.713  70.485  1.00  0.00    -0.430 N  
HETATM   26  O   UNL     1     -11.962  15.957  72.466  1.00  0.00    -0.429 OA 
HETATM   27  H   UNL     1     -10.905  17.604  70.908  1.00  0.00     0.000 HD 
HETATM   28  C   UNL     1     -10.916  16.531  69.109  1.00  0.00    -0.303 A  
HETATM   29  C   UNL     1     -10.320  17.556  68.369  1.00  0.00    -0.378 A  
HETATM   30  C   UNL     1     -10.118  17.398  67.007  1.00  0.00    -0.313 A  
HETATM   31  O   UNL     1      -9.896  18.734  68.922  1.00  0.00    -0.386 OA 
HETATM   32  C   UNL     1     -10.534  16.223  66.369  1.00  0.00    -0.297 A  
HETATM   33  H   UNL     1      -9.491  19.431  68.419  1.00  0.00     0.000 HD 
ENDBRANCH  17  20
ENDBRANCH  16  17
ENDBRANCH  14  16
ENDBRANCH  10  14
ENDBRANCH   2   3
TORSDOF 6
ENDMDL
MODEL       54
REMARK 921   NORMALIZED FREE ENERGY PREDICTED BY IDOCK:   -6.54 KCAL/MOL
REMARK 922        TOTAL FREE ENERGY PREDICTED BY IDOCK:  -10.11 KCAL/MOL
REMARK 923 INTER-LIGAND FREE ENERGY PREDICTED BY IDOCK:   -8.48 KCAL/MOL
REMARK 924 INTRA-LIGAND FREE ENERGY PREDICTED BY IDOCK:   -1.63 KCAL/MOL
REMARK 927      BINDING AFFINITY PREDICTED BY RF-SCORE:    0.00 PKD
ROOT
HETATM    1  C   UNL     1     -11.119   9.586  71.407  1.00  0.00    -0.438 C  
HETATM    2  C   UNL     1     -12.167  10.194  70.489  1.00  0.00    -0.352 C  
ENDROOT
BRANCH   2   3
HETATM    3  C   UNL     1     -12.059  11.665  70.134  1.00  0.00    -0.414 A  
HETATM    4  C   UNL     1     -11.439  11.991  68.893  1.00  0.00    -0.356 A  
HETATM    5  C   UNL     1     -11.654  13.252  68.332  1.00  0.00    -0.372 A  
HETATM    6  C   UNL     1     -12.430  12.721  70.991  1.00  0.00    -0.369 A  
HETATM    7  C   UNL     1     -12.300  14.021  70.510  1.00  0.00    -0.437 A  
HETATM    8  C   UNL     1     -12.158  14.248  69.139  1.00  0.00    -0.337 A  
HETATM    9  C   UNL     1     -11.975  15.708  68.873  1.00  0.00    -0.298 C  
HETATM   10  C   UNL     1     -10.988  15.937  70.030  1.00  0.00    -0.358 C  
HETATM   11  C   UNL     1     -11.825  15.296  71.230  1.00  0.00    -0.416 C  
BRANCH   4  12
HETATM   12  C   UNL     1     -10.374  11.067  68.325  1.00  0.00    -0.197 C  
HETATM   13  C   UNL     1     -10.611  10.530  66.914  1.00  0.00    -0.303 C  
ENDBRANCH   4  12
BRANCH  10  14
HETATM   14  N   UNL     1     -10.354  17.272  70.037  1.00  0.00     0.120 NA 
HETATM   15  H   UNL     1      -9.418  17.253  70.441  1.00  0.00     0.000 HD 
BRANCH  14  16
HETATM   16  C   UNL     1     -10.359  17.836  68.635  1.00  0.00    -0.350 C  
BRANCH  16  17
HETATM   17  C   UNL     1      -9.003  17.811  67.875  1.00  0.00    -0.255 C  
HETATM   18  H   UNL     1      -8.308  18.629  66.247  1.00  0.00     0.000 HD 
HETATM   19  O   UNL     1      -9.137  18.645  66.712  1.00  0.00    -0.282 OA 
BRANCH  17  20
HETATM   20  C   UNL     1      -8.511  16.409  67.463  1.00  0.00    -0.182 A  
HETATM   21  C   UNL     1      -9.210  15.589  66.544  1.00  0.00    -0.324 A  
HETATM   22  C   UNL     1     -10.354  16.067  65.757  1.00  0.00    -0.398 C  
HETATM   23  C   UNL     1     -11.037  15.251  64.943  1.00  0.00    -0.435 C  
HETATM   24  C   UNL     1     -10.683  13.812  64.829  1.00  0.00    -0.416 C  
HETATM   25  N   UNL     1      -9.579  13.394  65.515  1.00  0.00    -0.504 N  
HETATM   26  O   UNL     1     -11.348  13.055  64.142  1.00  0.00    -0.358 OA 
HETATM   27  H   UNL     1      -9.296  12.419  65.422  1.00  0.00     0.000 HD 
HETATM   28  C   UNL     1      -8.809  14.235  66.345  1.00  0.00     0.034 A  
HETATM   29  C   UNL     1      -7.686  13.725  67.002  1.00  0.00     0.190 A  
HETATM   30  C   UNL     1      -6.955  14.537  67.854  1.00  0.00    -0.173 A  
HETATM   31  O   UNL     1      -7.240  12.441  66.841  1.00  0.00    -0.358 OA 
HETATM   32  C   UNL     1      -7.357  15.861  68.076  1.00  0.00    -0.140 A  
HETATM   33  H   UNL     1      -6.477  12.093  67.288  1.00  0.00     0.000 HD 
ENDBRANCH  17  20
ENDBRANCH  16  17
ENDBRANCH  14  16
ENDBRANCH  10  14
ENDBRANCH   2   3
TORSDOF 6
ENDMDL
MODEL       55
REMARK 921   NORMALIZED FREE ENERGY PREDICTED BY IDOCK:   -6.53 KCAL/MOL
REMARK 922        TOTAL FREE ENERGY PREDICTED BY IDOCK:  -10.10 KCAL/MOL
REMARK 923 INTER-LIGAND FREE ENERGY PREDICTED BY IDOCK:   -9.18 KCAL/MOL
REMARK 924 INTRA-LIGAND FREE ENERGY PREDICTED BY IDOCK:   -0.92 KCAL/MOL
REMARK 927      BINDING AFFINITY PREDICTED BY RF-SCORE:    0.00 PKD
ROOT
HETATM    1  C   UNL     1      -9.829   8.603  70.385  1.00  0.00    -0.207 C  
HETATM    2  C   UNL     1      -9.208   8.235  69.047  1.00  0.00    -0.147 C  
ENDROOT
BRANCH   2   3
HETATM    3  C   UNL     1      -9.549   9.074  67.830  1.00  0.00    -0.170 A  
HETATM    4  C   UNL     1      -8.615   9.069  66.753  1.00  0.00    -0.129 A  
HETATM    5  C   UNL     1      -9.031   9.482  65.486  1.00  0.00    -0.236 A  
HETATM    6  C   UNL     1     -10.662   9.934  67.742  1.00  0.00    -0.332 A  
HETATM    7  C   UNL     1     -10.858  10.618  66.546  1.00  0.00    -0.168 A  
HETATM    8  C   UNL     1     -10.203  10.199  65.386  1.00  0.00    -0.281 A  
HETATM    9  C   UNL     1     -10.521  11.119  64.250  1.00  0.00    -0.427 C  
HETATM   10  C   UNL     1     -10.369  12.411  65.072  1.00  0.00    -0.293 C  
HETATM   11  C   UNL     1     -11.328  12.064  66.301  1.00  0.00    -0.415 C  
BRANCH   4  12
HETATM   12  C   UNL     1      -7.140   8.850  67.047  1.00  0.00    -0.078 C  
HETATM   13  C   UNL     1      -6.220  10.061  66.893  1.00  0.00    -0.064 C  
ENDBRANCH   4  12
BRANCH  10  14
HETATM   14  N   UNL     1     -10.406  13.652  64.272  1.00  0.00    -0.697 NA 
HETATM   15  H   UNL     1     -11.324  13.820  63.862  1.00  0.00     0.000 HD 
BRANCH  14  16
HETATM   16  C   UNL     1      -9.940  14.811  65.122  1.00  0.00    -0.244 C  
BRANCH  16  17
HETATM   17  C   UNL     1     -10.974  15.943  65.373  1.00  0.00    -0.285 C  
HETATM   18  H   UNL     1     -11.712  17.409  64.319  1.00  0.00     0.000 HD 
HETATM   19  O   UNL     1     -11.079  16.717  64.166  1.00  0.00    -1.061 OA 
BRANCH  17  20
HETATM   20  C   UNL     1     -10.654  16.869  66.564  1.00  0.00    -0.185 A  
HETATM   21  C   UNL     1     -10.755  16.449  67.912  1.00  0.00    -0.332 A  
HETATM   22  C   UNL     1     -10.983  15.049  68.298  1.00  0.00    -0.274 C  
HETATM   23  C   UNL     1     -11.139  14.690  69.579  1.00  0.00    -0.294 C  
HETATM   24  C   UNL     1     -11.121  15.703  70.666  1.00  0.00    -0.359 C  
HETATM   25  N   UNL     1     -10.844  16.990  70.303  1.00  0.00    -0.184 N  
HETATM   26  O   UNL     1     -11.333  15.385  71.824  1.00  0.00    -0.401 OA 
HETATM   27  H   UNL     1     -10.789  17.697  71.036  1.00  0.00     0.000 HD 
HETATM   28  C   UNL     1     -10.629  17.397  68.969  1.00  0.00    -0.207 A  
HETATM   29  C   UNL     1     -10.339  18.735  68.689  1.00  0.00    -0.207 A  
HETATM   30  C   UNL     1     -10.173  19.146  67.376  1.00  0.00    -0.490 A  
HETATM   31  O   UNL     1     -10.189  19.691  69.657  1.00  0.00    -0.595 OA 
HETATM   32  C   UNL     1     -10.321  18.226  66.330  1.00  0.00    -0.418 A  
HETATM   33  H   UNL     1      -9.992  20.601  69.467  1.00  0.00     0.000 HD 
ENDBRANCH  17  20
ENDBRANCH  16  17
ENDBRANCH  14  16
ENDBRANCH  10  14
ENDBRANCH   2   3
TORSDOF 6
ENDMDL
MODEL       56
REMARK 921   NORMALIZED FREE ENERGY PREDICTED BY IDOCK:   -6.52 KCAL/MOL
REMARK 922        TOTAL FREE ENERGY PREDICTED BY IDOCK:  -10.08 KCAL/MOL
REMARK 923 INTER-LIGAND FREE ENERGY PREDICTED BY IDOCK:   -9.10 KCAL/MOL
REMARK 924 INTRA-LIGAND FREE ENERGY PREDICTED BY IDOCK:   -0.98 KCAL/MOL
REMARK 927      BINDING AFFINITY PREDICTED BY RF-SCORE:    0.00 PKD
ROOT
HETATM    1  C   UNL     1     -10.137  15.507  65.506  1.00  0.00    -0.406 C  
HETATM    2  C   UNL     1     -11.405  15.255  66.306  1.00  0.00    -0.155 C  
ENDROOT
BRANCH   2   3
HETATM    3  C   UNL     1     -11.484  14.012  67.172  1.00  0.00    -0.373 A  
HETATM    4  C   UNL     1     -11.700  12.769  66.509  1.00  0.00    -0.463 A  
HETATM    5  C   UNL     1     -11.397  11.579  67.173  1.00  0.00    -0.354 A  
HETATM    6  C   UNL     1     -11.468  14.021  68.582  1.00  0.00    -0.337 A  
HETATM    7  C   UNL     1     -11.519  12.794  69.237  1.00  0.00    -0.349 A  
HETATM    8  C   UNL     1     -11.234  11.618  68.541  1.00  0.00    -0.312 A  
HETATM    9  C   UNL     1     -11.413  10.431  69.434  1.00  0.00    -0.292 C  
HETATM   10  C   UNL     1     -12.726  10.927  70.062  1.00  0.00    -0.109 C  
HETATM   11  C   UNL     1     -12.274  12.390  70.517  1.00  0.00    -0.382 C  
BRANCH   4  12
HETATM   12  C   UNL     1     -12.473  12.746  65.200  1.00  0.00    -0.565 C  
HETATM   13  C   UNL     1     -11.667  12.471  63.931  1.00  0.00    -0.530 C  
ENDBRANCH   4  12
BRANCH  10  14
HETATM   14  N   UNL     1     -13.410   9.932  70.913  1.00  0.00    -0.567 NA 
HETATM   15  H   UNL     1     -14.227   9.529  70.455  1.00  0.00     0.000 HD 
BRANCH  14  16
HETATM   16  C   UNL     1     -12.419   8.877  71.347  1.00  0.00    -0.304 C  
BRANCH  16  17
HETATM   17  C   UNL     1     -12.765   7.409  70.973  1.00  0.00    -0.205 C  
HETATM   18  H   UNL     1     -14.063   6.089  71.586  1.00  0.00     0.000 HD 
HETATM   19  O   UNL     1     -13.852   6.987  71.815  1.00  0.00    -0.335 OA 
BRANCH  17  20
HETATM   20  C   UNL     1     -11.594   6.411  71.086  1.00  0.00    -0.378 A  
HETATM   21  C   UNL     1     -10.928   5.879  69.956  1.00  0.00    -0.430 A  
HETATM   22  C   UNL     1     -11.156   6.368  68.590  1.00  0.00    -0.393 C  
HETATM   23  C   UNL     1     -10.559   5.802  67.532  1.00  0.00    -0.327 C  
HETATM   24  C   UNL     1      -9.663   4.628  67.696  1.00  0.00    -0.161 C  
HETATM   25  N   UNL     1      -9.408   4.223  68.975  1.00  0.00    -0.147 N  
HETATM   26  O   UNL     1      -9.176   4.070  66.727  1.00  0.00    -0.140 OA 
HETATM   27  H   UNL     1      -8.767   3.442  69.114  1.00  0.00     0.000 HD 
HETATM   28  C   UNL     1      -9.982   4.824  70.115  1.00  0.00    -0.251 A  
HETATM   29  C   UNL     1      -9.655   4.351  71.389  1.00  0.00    -0.165 A  
HETATM   30  C   UNL     1     -10.253   4.910  72.507  1.00  0.00    -0.248 A  
HETATM   31  O   UNL     1      -8.745   3.354  71.611  1.00  0.00    -0.081 OA 
HETATM   32  C   UNL     1     -11.203   5.929  72.359  1.00  0.00    -0.340 A  
HETATM   33  H   UNL     1      -8.523   3.032  72.476  1.00  0.00     0.000 HD 
ENDBRANCH  17  20
ENDBRANCH  16  17
ENDBRANCH  14  16
ENDBRANCH  10  14
ENDBRANCH   2   3
TORSDOF 6
ENDMDL
MODEL       57
REMARK 921   NORMALIZED FREE ENERGY PREDICTED BY IDOCK:   -6.50 KCAL/MOL
REMARK 922        TOTAL FREE ENERGY PREDICTED BY IDOCK:  -10.06 KCAL/MOL
REMARK 923 INTER-LIGAND FREE ENERGY PREDICTED BY IDOCK:   -8.71 KCAL/MOL
REMARK 924 INTRA-LIGAND FREE ENERGY PREDICTED BY IDOCK:   -1.35 KCAL/MOL
REMARK 927      BINDING AFFINITY PREDICTED BY RF-SCORE:    0.00 PKD
ROOT
HETATM    1  C   UNL     1      -9.460  16.430  65.957  1.00  0.00    -0.345 C  
HETATM    2  C   UNL     1     -10.799  15.717  66.050  1.00  0.00    -0.256 C  
ENDROOT
BRANCH   2   3
HETATM    3  C   UNL     1     -10.816  14.244  66.410  1.00  0.00    -0.307 A  
HETATM    4  C   UNL     1     -11.202  13.902  67.739  1.00  0.00    -0.316 A  
HETATM    5  C   UNL     1     -11.613  12.597  68.017  1.00  0.00    -0.394 A  
HETATM    6  C   UNL     1     -10.376  13.210  65.558  1.00  0.00    -0.299 A  
HETATM    7  C   UNL     1     -10.481  11.902  66.020  1.00  0.00    -0.282 A  
HETATM    8  C   UNL     1     -11.308  11.609  67.107  1.00  0.00    -0.373 A  
HETATM    9  C   UNL     1     -11.211  10.158  67.455  1.00  0.00    -0.123 C  
HETATM   10  C   UNL     1      -9.681  10.084  67.317  1.00  0.00    -0.167 C  
HETATM   11  C   UNL     1      -9.510  10.717  65.860  1.00  0.00    -0.239 C  
BRANCH   4  12
HETATM   12  C   UNL     1     -10.934  14.883  68.868  1.00  0.00    -0.257 C  
HETATM   13  C   UNL     1     -11.871  14.816  70.074  1.00  0.00    -0.362 C  
ENDBRANCH   4  12
BRANCH  10  14
HETATM   14  N   UNL     1      -9.085   8.814  67.781  1.00  0.00    -0.135 NA 
HETATM   15  H   UNL     1      -8.755   8.238  67.008  1.00  0.00     0.000 HD 
BRANCH  14  16
HETATM   16  C   UNL     1      -7.993   9.109  68.782  1.00  0.00    -0.100 C  
BRANCH  16  17
HETATM   17  C   UNL     1      -8.441   9.752  70.124  1.00  0.00    -0.174 C  
HETATM   18  H   UNL     1      -7.553  10.725  71.562  1.00  0.00     0.000 HD 
HETATM   19  O   UNL     1      -7.279  10.332  70.742  1.00  0.00    -0.274 OA 
BRANCH  17  20
HETATM   20  C   UNL     1      -9.137   8.792  71.110  1.00  0.00    -0.285 A  
HETATM   21  C   UNL     1     -10.507   8.900  71.448  1.00  0.00    -0.375 A  
HETATM   22  C   UNL     1     -11.433   9.806  70.753  1.00  0.00    -0.417 C  
HETATM   23  C   UNL     1     -12.710   9.935  71.138  1.00  0.00    -0.462 C  
HETATM   24  C   UNL     1     -13.236   9.189  72.310  1.00  0.00    -0.461 C  
HETATM   25  N   UNL     1     -12.385   8.303  72.908  1.00  0.00    -0.536 N  
HETATM   26  O   UNL     1     -14.378   9.359  72.702  1.00  0.00    -0.412 OA 
HETATM   27  H   UNL     1     -12.736   7.752  73.691  1.00  0.00     0.000 HD 
HETATM   28  C   UNL     1     -11.049   8.107  72.502  1.00  0.00    -0.377 A  
HETATM   29  C   UNL     1     -10.252   7.169  73.164  1.00  0.00    -0.276 A  
HETATM   30  C   UNL     1      -8.925   7.008  72.797  1.00  0.00    -0.149 A  
HETATM   31  O   UNL     1     -10.714   6.366  74.171  1.00  0.00    -0.425 OA 
HETATM   32  C   UNL     1      -8.377   7.802  71.781  1.00  0.00    -0.130 A  
HETATM   33  H   UNL     1     -10.172   5.729  74.621  1.00  0.00     0.000 HD 
ENDBRANCH  17  20
ENDBRANCH  16  17
ENDBRANCH  14  16
ENDBRANCH  10  14
ENDBRANCH   2   3
TORSDOF 6
ENDMDL
MODEL       58
REMARK 921   NORMALIZED FREE ENERGY PREDICTED BY IDOCK:   -6.46 KCAL/MOL
REMARK 922        TOTAL FREE ENERGY PREDICTED BY IDOCK:  -10.00 KCAL/MOL
REMARK 923 INTER-LIGAND FREE ENERGY PREDICTED BY IDOCK:   -8.66 KCAL/MOL
REMARK 924 INTRA-LIGAND FREE ENERGY PREDICTED BY IDOCK:   -1.34 KCAL/MOL
REMARK 927      BINDING AFFINITY PREDICTED BY RF-SCORE:    0.00 PKD
ROOT
HETATM    1  C   UNL     1      -9.539   6.374  71.490  1.00  0.00    -0.169 C  
HETATM    2  C   UNL     1      -8.605   7.073  70.517  1.00  0.00    -0.141 C  
ENDROOT
BRANCH   2   3
HETATM    3  C   UNL     1      -9.172   8.144  69.604  1.00  0.00    -0.155 A  
HETATM    4  C   UNL     1      -9.711   7.717  68.356  1.00  0.00    -0.167 A  
HETATM    5  C   UNL     1     -10.580   8.562  67.662  1.00  0.00    -0.268 A  
HETATM    6  C   UNL     1      -9.102   9.529  69.861  1.00  0.00    -0.237 A  
HETATM    7  C   UNL     1      -9.695  10.388  68.941  1.00  0.00    -0.203 A  
HETATM    8  C   UNL     1     -10.617   9.893  68.016  1.00  0.00    -0.288 A  
HETATM    9  C   UNL     1     -11.069  10.985  67.100  1.00  0.00    -0.333 C  
HETATM   10  C   UNL     1      -9.666  11.580  66.891  1.00  0.00    -0.186 C  
HETATM   11  C   UNL     1      -9.216  11.753  68.414  1.00  0.00    -0.175 C  
BRANCH   4  12
HETATM   12  C   UNL     1      -9.152   6.471  67.689  1.00  0.00    -0.112 C  
HETATM   13  C   UNL     1     -10.137   5.332  67.425  1.00  0.00    -0.228 C  
ENDBRANCH   4  12
BRANCH  10  14
HETATM   14  N   UNL     1      -9.594  12.623  65.847  1.00  0.00    -0.405 NA 
HETATM   15  H   UNL     1      -8.827  12.463  65.194  1.00  0.00     0.000 HD 
BRANCH  14  16
HETATM   16  C   UNL     1     -10.929  12.724  65.145  1.00  0.00    -0.293 C  
BRANCH  16  17
HETATM   17  C   UNL     1     -11.896  13.827  65.657  1.00  0.00    -0.365 C  
HETATM   18  H   UNL     1     -13.203  15.019  64.835  1.00  0.00     0.000 HD 
HETATM   19  O   UNL     1     -12.611  14.344  64.522  1.00  0.00    -0.651 OA 
BRANCH  17  20
HETATM   20  C   UNL     1     -11.222  14.983  66.424  1.00  0.00    -0.310 A  
HETATM   21  C   UNL     1     -11.375  15.170  67.819  1.00  0.00    -0.335 A  
HETATM   22  C   UNL     1     -12.024  14.182  68.692  1.00  0.00    -0.373 C  
HETATM   23  C   UNL     1     -12.213  14.414  69.998  1.00  0.00    -0.408 C  
HETATM   24  C   UNL     1     -11.801  15.703  70.613  1.00  0.00    -0.376 C  
HETATM   25  N   UNL     1     -11.142  16.587  69.808  1.00  0.00    -0.385 N  
HETATM   26  O   UNL     1     -12.036  15.942  71.786  1.00  0.00    -0.411 OA 
HETATM   27  H   UNL     1     -10.817  17.462  70.218  1.00  0.00     0.000 HD 
HETATM   28  C   UNL     1     -10.885  16.356  68.440  1.00  0.00    -0.342 A  
HETATM   29  C   UNL     1     -10.192  17.312  67.693  1.00  0.00    -0.333 A  
HETATM   30  C   UNL     1      -9.979  17.109  66.339  1.00  0.00    -0.315 A  
HETATM   31  O   UNL     1      -9.682  18.463  68.230  1.00  0.00    -0.309 OA 
HETATM   32  C   UNL     1     -10.480  15.959  65.715  1.00  0.00    -0.386 A  
HETATM   33  H   UNL     1      -9.211  19.113  67.722  1.00  0.00     0.000 HD 
ENDBRANCH  17  20
ENDBRANCH  16  17
ENDBRANCH  14  16
ENDBRANCH  10  14
ENDBRANCH   2   3
TORSDOF 6
ENDMDL
MODEL       59
REMARK 921   NORMALIZED FREE ENERGY PREDICTED BY IDOCK:   -6.45 KCAL/MOL
REMARK 922        TOTAL FREE ENERGY PREDICTED BY IDOCK:   -9.99 KCAL/MOL
REMARK 923 INTER-LIGAND FREE ENERGY PREDICTED BY IDOCK:   -8.81 KCAL/MOL
REMARK 924 INTRA-LIGAND FREE ENERGY PREDICTED BY IDOCK:   -1.18 KCAL/MOL
REMARK 927      BINDING AFFINITY PREDICTED BY RF-SCORE:    0.00 PKD
ROOT
HETATM    1  C   UNL     1      -9.581   7.300  72.993  1.00  0.00    -0.219 C  
HETATM    2  C   UNL     1     -10.950   7.609  72.411  1.00  0.00    -0.353 C  
ENDROOT
BRANCH   2   3
HETATM    3  C   UNL     1     -11.100   8.811  71.498  1.00  0.00    -0.377 A  
HETATM    4  C   UNL     1     -12.288   9.588  71.633  1.00  0.00    -0.480 A  
HETATM    5  C   UNL     1     -12.315  10.889  71.127  1.00  0.00    -0.479 A  
HETATM    6  C   UNL     1     -10.202   9.143  70.463  1.00  0.00    -0.288 A  
HETATM    7  C   UNL     1     -10.459  10.296  69.728  1.00  0.00    -0.300 A  
HETATM    8  C   UNL     1     -11.343  11.258  70.223  1.00  0.00    -0.179 A  
HETATM    9  C   UNL     1     -11.504  12.370  69.235  1.00  0.00    -0.349 C  
HETATM   10  C   UNL     1     -11.613  11.450  68.007  1.00  0.00    -0.286 C  
HETATM   11  C   UNL     1     -10.304  10.559  68.218  1.00  0.00    -0.193 C  
BRANCH   4  12
HETATM   12  C   UNL     1     -13.568   8.916  72.102  1.00  0.00    -0.502 C  
HETATM   13  C   UNL     1     -14.279   8.013  71.094  1.00  0.00    -0.246 C  
ENDBRANCH   4  12
BRANCH  10  14
HETATM   14  N   UNL     1     -11.994  12.142  66.758  1.00  0.00    -0.615 NA 
HETATM   15  H   UNL     1     -12.871  11.791  66.375  1.00  0.00     0.000 HD 
BRANCH  14  16
HETATM   16  C   UNL     1     -12.033  13.633  67.003  1.00  0.00    -0.406 C  
BRANCH  16  17
HETATM   17  C   UNL     1     -11.161  14.510  66.063  1.00  0.00    -0.329 C  
HETATM   18  H   UNL     1     -10.321  14.266  64.320  1.00  0.00     0.000 HD 
HETATM   19  O   UNL     1     -10.854  13.730  64.894  1.00  0.00    -0.345 OA 
BRANCH  17  20
HETATM   20  C   UNL     1      -9.859  15.048  66.692  1.00  0.00    -0.266 A  
HETATM   21  C   UNL     1      -9.623  16.427  66.905  1.00  0.00    -0.255 A  
HETATM   22  C   UNL     1     -10.661  17.453  66.730  1.00  0.00    -0.100 C  
HETATM   23  C   UNL     1     -10.392  18.757  66.876  1.00  0.00    -0.456 C  
HETATM   24  C   UNL     1      -9.017  19.224  67.190  1.00  0.00    -0.296 C  
HETATM   25  N   UNL     1      -8.075  18.261  67.414  1.00  0.00    -0.230 N  
HETATM   26  O   UNL     1      -8.757  20.415  67.254  1.00  0.00    -0.345 OA 
HETATM   27  H   UNL     1      -7.133  18.558  67.667  1.00  0.00     0.000 HD 
HETATM   28  C   UNL     1      -8.333  16.878  67.314  1.00  0.00    -0.184 A  
HETATM   29  C   UNL     1      -7.312  15.960  67.572  1.00  0.00    -0.171 A  
HETATM   30  C   UNL     1      -7.550  14.602  67.430  1.00  0.00    -0.218 A  
HETATM   31  O   UNL     1      -6.058  16.325  67.983  1.00  0.00    -0.107 OA 
HETATM   32  C   UNL     1      -8.806  14.152  67.003  1.00  0.00    -0.237 A  
HETATM   33  H   UNL     1      -5.363  15.701  68.158  1.00  0.00     0.000 HD 
ENDBRANCH  17  20
ENDBRANCH  16  17
ENDBRANCH  14  16
ENDBRANCH  10  14
ENDBRANCH   2   3
TORSDOF 6
ENDMDL
MODEL       60
REMARK 921   NORMALIZED FREE ENERGY PREDICTED BY IDOCK:   -6.45 KCAL/MOL
REMARK 922        TOTAL FREE ENERGY PREDICTED BY IDOCK:   -9.99 KCAL/MOL
REMARK 923 INTER-LIGAND FREE ENERGY PREDICTED BY IDOCK:   -9.25 KCAL/MOL
REMARK 924 INTRA-LIGAND FREE ENERGY PREDICTED BY IDOCK:   -0.74 KCAL/MOL
REMARK 927      BINDING AFFINITY PREDICTED BY RF-SCORE:    0.00 PKD
ROOT
HETATM    1  C   UNL     1     -11.051  15.855  68.414  1.00  0.00    -0.345 C  
HETATM    2  C   UNL     1     -11.780  15.683  69.736  1.00  0.00    -0.368 C  
ENDROOT
BRANCH   2   3
HETATM    3  C   UNL     1     -12.052  14.278  70.241  1.00  0.00    -0.403 A  
HETATM    4  C   UNL     1     -12.469  14.142  71.597  1.00  0.00    -0.395 A  
HETATM    5  C   UNL     1     -13.099  12.965  72.004  1.00  0.00    -0.483 A  
HETATM    6  C   UNL     1     -11.816  13.104  69.497  1.00  0.00    -0.383 A  
HETATM    7  C   UNL     1     -12.143  11.887  70.086  1.00  0.00    -0.382 A  
HETATM    8  C   UNL     1     -12.990  11.854  71.196  1.00  0.00    -0.266 A  
HETATM    9  C   UNL     1     -13.145  10.450  71.687  1.00  0.00    -0.553 C  
HETATM   10  C   UNL     1     -11.655  10.092  71.557  1.00  0.00    -0.224 C  
HETATM   11  C   UNL     1     -11.400  10.539  70.045  1.00  0.00    -0.392 C  
BRANCH   4  12
HETATM   12  C   UNL     1     -12.012  15.166  72.624  1.00  0.00    -0.486 C  
HETATM   13  C   UNL     1     -13.084  15.733  73.554  1.00  0.00    -0.665 C  
ENDBRANCH   4  12
BRANCH  10  14
HETATM   14  N   UNL     1     -11.286   8.788  72.145  1.00  0.00    -0.362 NA 
HETATM   15  H   UNL     1     -12.084   8.314  72.567  1.00  0.00     0.000 HD 
BRANCH  14  16
HETATM   16  C   UNL     1     -10.607   7.938  71.096  1.00  0.00    -0.213 C  
BRANCH  16  17
HETATM   17  C   UNL     1     -11.403   6.707  70.582  1.00  0.00    -0.347 C  
HETATM   18  H   UNL     1     -12.756   5.518  71.330  1.00  0.00     0.000 HD 
HETATM   19  O   UNL     1     -12.269   6.271  71.644  1.00  0.00    -0.279 OA 
BRANCH  17  20
HETATM   20  C   UNL     1     -10.539   5.528  70.091  1.00  0.00    -0.367 A  
HETATM   21  C   UNL     1     -10.365   5.223  68.719  1.00  0.00    -0.206 A  
HETATM   22  C   UNL     1     -10.827   6.107  67.639  1.00  0.00    -0.421 C  
HETATM   23  C   UNL     1     -10.708   5.762  66.350  1.00  0.00    -0.193 C  
HETATM   24  C   UNL     1     -10.130   4.450  65.959  1.00  0.00    -0.239 C  
HETATM   25  N   UNL     1      -9.645   3.666  66.967  1.00  0.00    -0.311 N  
HETATM   26  O   UNL     1     -10.085   4.108  64.789  1.00  0.00    -0.199 OA 
HETATM   27  H   UNL     1      -9.211   2.777  66.718  1.00  0.00     0.000 HD 
HETATM   28  C   UNL     1      -9.713   4.016  68.331  1.00  0.00    -0.066 A  
HETATM   29  C   UNL     1      -9.180   3.158  69.296  1.00  0.00    -0.149 A  
HETATM   30  C   UNL     1      -9.287   3.478  70.640  1.00  0.00    -0.230 A  
HETATM   31  O   UNL     1      -8.528   1.994  68.990  1.00  0.00    -0.054 OA 
HETATM   32  C   UNL     1      -9.949   4.648  71.032  1.00  0.00    -0.270 A  
HETATM   33  H   UNL     1      -8.167   1.409  69.646  1.00  0.00     0.000 HD 
ENDBRANCH  17  20
ENDBRANCH  16  17
ENDBRANCH  14  16
ENDBRANCH  10  14
ENDBRANCH   2   3
TORSDOF 6
ENDMDL
MODEL       61
REMARK 921   NORMALIZED FREE ENERGY PREDICTED BY IDOCK:   -6.44 KCAL/MOL
REMARK 922        TOTAL FREE ENERGY PREDICTED BY IDOCK:   -9.98 KCAL/MOL
REMARK 923 INTER-LIGAND FREE ENERGY PREDICTED BY IDOCK:   -8.39 KCAL/MOL
REMARK 924 INTRA-LIGAND FREE ENERGY PREDICTED BY IDOCK:   -1.59 KCAL/MOL
REMARK 927      BINDING AFFINITY PREDICTED BY RF-SCORE:    0.00 PKD
ROOT
HETATM    1  C   UNL     1     -12.826   8.654  72.082  1.00  0.00    -0.442 C  
HETATM    2  C   UNL     1     -11.871   7.476  72.185  1.00  0.00    -0.338 C  
ENDROOT
BRANCH   2   3
HETATM    3  C   UNL     1     -11.082   7.067  70.956  1.00  0.00    -0.295 A  
HETATM    4  C   UNL     1      -9.677   7.309  70.974  1.00  0.00    -0.169 A  
HETATM    5  C   UNL     1      -8.854   6.623  70.079  1.00  0.00    -0.141 A  
HETATM    6  C   UNL     1     -11.657   6.570  69.769  1.00  0.00    -0.392 A  
HETATM    7  C   UNL     1     -10.797   6.210  68.735  1.00  0.00    -0.402 A  
HETATM    8  C   UNL     1      -9.439   6.010  68.993  1.00  0.00    -0.143 A  
HETATM    9  C   UNL     1      -8.713   5.692  67.725  1.00  0.00    -0.107 C  
HETATM   10  C   UNL     1      -9.422   6.769  66.886  1.00  0.00    -0.156 C  
HETATM   11  C   UNL     1     -10.943   6.411  67.215  1.00  0.00    -0.474 C  
BRANCH   4  12
HETATM   12  C   UNL     1      -9.131   8.472  71.787  1.00  0.00    -0.304 C  
HETATM   13  C   UNL     1      -8.522   8.132  73.148  1.00  0.00    -0.279 C  
ENDBRANCH   4  12
BRANCH  10  14
HETATM   14  N   UNL     1      -8.854   6.963  65.536  1.00  0.00    -0.357 NA 
HETATM   15  H   UNL     1      -9.570   7.182  64.844  1.00  0.00     0.000 HD 
BRANCH  14  16
HETATM   16  C   UNL     1      -7.773   8.018  65.593  1.00  0.00    -0.094 C  
BRANCH  16  17
HETATM   17  C   UNL     1      -8.206   9.471  65.252  1.00  0.00    -0.130 C  
HETATM   18  H   UNL     1      -7.280  11.126  64.796  1.00  0.00     0.000 HD 
HETATM   19  O   UNL     1      -7.015  10.237  65.005  1.00  0.00    -0.135 OA 
BRANCH  17  20
HETATM   20  C   UNL     1      -9.066  10.167  66.326  1.00  0.00    -0.180 A  
HETATM   21  C   UNL     1     -10.119  11.059  66.008  1.00  0.00    -0.297 A  
HETATM   22  C   UNL     1     -10.614  11.254  64.638  1.00  0.00    -0.392 C  
HETATM   23  C   UNL     1     -11.567  12.153  64.358  1.00  0.00    -0.422 C  
HETATM   24  C   UNL     1     -12.142  13.017  65.422  1.00  0.00    -0.444 C  
HETATM   25  N   UNL     1     -11.721  12.782  66.700  1.00  0.00    -0.375 N  
HETATM   26  O   UNL     1     -12.958  13.882  65.155  1.00  0.00    -0.744 OA 
HETATM   27  H   UNL     1     -12.129  13.337  67.451  1.00  0.00     0.000 HD 
HETATM   28  C   UNL     1     -10.753  11.813  67.038  1.00  0.00    -0.246 A  
HETATM   29  C   UNL     1     -10.390  11.631  68.375  1.00  0.00    -0.204 A  
HETATM   30  C   UNL     1      -9.406  10.713  68.705  1.00  0.00    -0.183 A  
HETATM   31  O   UNL     1     -10.971  12.311  69.412  1.00  0.00    -0.426 OA 
HETATM   32  C   UNL     1      -8.759   9.986  67.698  1.00  0.00    -0.121 A  
HETATM   33  H   UNL     1     -10.724  12.188  70.321  1.00  0.00     0.000 HD 
ENDBRANCH  17  20
ENDBRANCH  16  17
ENDBRANCH  14  16
ENDBRANCH  10  14
ENDBRANCH   2   3
TORSDOF 6
ENDMDL
MODEL       62
REMARK 921   NORMALIZED FREE ENERGY PREDICTED BY IDOCK:   -6.44 KCAL/MOL
REMARK 922        TOTAL FREE ENERGY PREDICTED BY IDOCK:   -9.97 KCAL/MOL
REMARK 923 INTER-LIGAND FREE ENERGY PREDICTED BY IDOCK:   -9.17 KCAL/MOL
REMARK 924 INTRA-LIGAND FREE ENERGY PREDICTED BY IDOCK:   -0.80 KCAL/MOL
REMARK 927      BINDING AFFINITY PREDICTED BY RF-SCORE:    0.00 PKD
ROOT
HETATM    1  C   UNL     1     -11.084   4.224  73.022  1.00  0.00    -0.232 C  
HETATM    2  C   UNL     1     -10.144   4.096  71.835  1.00  0.00    -0.224 C  
ENDROOT
BRANCH   2   3
HETATM    3  C   UNL     1     -10.227   5.127  70.725  1.00  0.00    -0.308 A  
HETATM    4  C   UNL     1      -9.799   4.722  69.427  1.00  0.00    -0.282 A  
HETATM    5  C   UNL     1     -10.204   5.460  68.313  1.00  0.00    -0.224 A  
HETATM    6  C   UNL     1     -10.593   6.475  70.915  1.00  0.00    -0.275 A  
HETATM    7  C   UNL     1     -10.652   7.294  69.792  1.00  0.00    -0.247 A  
HETATM    8  C   UNL     1     -10.702   6.728  68.516  1.00  0.00    -0.280 A  
HETATM    9  C   UNL     1     -10.699   7.801  67.474  1.00  0.00    -0.265 C  
HETATM   10  C   UNL     1      -9.606   8.646  68.149  1.00  0.00    -0.147 C  
HETATM   11  C   UNL     1     -10.221   8.762  69.618  1.00  0.00    -0.210 C  
BRANCH   4  12
HETATM   12  C   UNL     1      -8.725   3.655  69.295  1.00  0.00    -0.130 C  
HETATM   13  C   UNL     1      -9.022   2.494  68.346  1.00  0.00    -0.183 C  
ENDBRANCH   4  12
BRANCH  10  14
HETATM   14  N   UNL     1      -9.111   9.772  67.329  1.00  0.00    -0.134 NA 
HETATM   15  H   UNL     1      -8.380   9.484  66.679  1.00  0.00     0.000 HD 
BRANCH  14  16
HETATM   16  C   UNL     1     -10.275  10.429  66.625  1.00  0.00    -0.234 C  
BRANCH  16  17
HETATM   17  C   UNL     1     -10.795  11.757  67.242  1.00  0.00    -0.253 C  
HETATM   18  H   UNL     1     -12.331  12.278  68.325  1.00  0.00     0.000 HD 
HETATM   19  O   UNL     1     -12.014  11.465  67.948  1.00  0.00    -0.626 OA 
BRANCH  17  20
HETATM   20  C   UNL     1     -11.033  12.899  66.232  1.00  0.00    -0.305 A  
HETATM   21  C   UNL     1     -10.209  14.048  66.165  1.00  0.00    -0.308 A  
HETATM   22  C   UNL     1      -8.948  14.172  66.909  1.00  0.00    -0.247 C  
HETATM   23  C   UNL     1      -8.221  15.296  66.877  1.00  0.00    -0.263 C  
HETATM   24  C   UNL     1      -8.680  16.483  66.109  1.00  0.00    -0.300 C  
HETATM   25  N   UNL     1      -9.819  16.335  65.370  1.00  0.00    -0.095 N  
HETATM   26  O   UNL     1      -8.053  17.529  66.137  1.00  0.00    -0.416 OA 
HETATM   27  H   UNL     1     -10.132  17.124  64.806  1.00  0.00     0.000 HD 
HETATM   28  C   UNL     1     -10.585  15.151  65.343  1.00  0.00    -0.391 A  
HETATM   29  C   UNL     1     -11.732  15.083  64.548  1.00  0.00    -0.368 A  
HETATM   30  C   UNL     1     -12.511  13.938  64.556  1.00  0.00    -0.336 A  
HETATM   31  O   UNL     1     -12.139  16.099  63.727  1.00  0.00    -1.355 OA 
HETATM   32  C   UNL     1     -12.164  12.859  65.380  1.00  0.00    -0.528 A  
HETATM   33  H   UNL     1     -12.919  16.054  63.186  1.00  0.00     0.000 HD 
ENDBRANCH  17  20
ENDBRANCH  16  17
ENDBRANCH  14  16
ENDBRANCH  10  14
ENDBRANCH   2   3
TORSDOF 6
ENDMDL
MODEL       63
REMARK 921   NORMALIZED FREE ENERGY PREDICTED BY IDOCK:   -6.34 KCAL/MOL
REMARK 922        TOTAL FREE ENERGY PREDICTED BY IDOCK:   -9.84 KCAL/MOL
REMARK 923 INTER-LIGAND FREE ENERGY PREDICTED BY IDOCK:   -9.04 KCAL/MOL
REMARK 924 INTRA-LIGAND FREE ENERGY PREDICTED BY IDOCK:   -0.80 KCAL/MOL
REMARK 927      BINDING AFFINITY PREDICTED BY RF-SCORE:    0.00 PKD
ROOT
HETATM    1  C   UNL     1     -10.822  15.418  65.070  1.00  0.00    -0.462 C  
HETATM    2  C   UNL     1     -11.622  14.659  66.115  1.00  0.00    -0.332 C  
ENDROOT
BRANCH   2   3
HETATM    3  C   UNL     1     -11.196  13.248  66.476  1.00  0.00    -0.329 A  
HETATM    4  C   UNL     1     -11.583  12.758  67.757  1.00  0.00    -0.405 A  
HETATM    5  C   UNL     1     -11.574  11.383  67.994  1.00  0.00    -0.357 A  
HETATM    6  C   UNL     1     -10.360  12.440  65.678  1.00  0.00    -0.284 A  
HETATM    7  C   UNL     1     -10.082  11.154  66.130  1.00  0.00    -0.284 A  
HETATM    8  C   UNL     1     -10.875  10.575  67.124  1.00  0.00    -0.319 A  
HETATM    9  C   UNL     1     -10.347   9.223  67.485  1.00  0.00    -0.323 C  
HETATM   10  C   UNL     1      -8.871   9.652  67.509  1.00  0.00    -0.125 C  
HETATM   11  C   UNL     1      -8.768  10.352  66.077  1.00  0.00    -0.163 C  
BRANCH   4  12
HETATM   12  C   UNL     1     -11.763  13.737  68.906  1.00  0.00    -0.374 C  
HETATM   13  C   UNL     1     -12.281  13.162  70.224  1.00  0.00    -0.376 C  
ENDBRANCH   4  12
BRANCH  10  14
HETATM   14  N   UNL     1      -7.946   8.628  68.037  1.00  0.00    -0.106 NA 
HETATM   15  H   UNL     1      -6.986   8.967  68.093  1.00  0.00     0.000 HD 
BRANCH  14  16
HETATM   16  C   UNL     1      -8.455   8.132  69.371  1.00  0.00    -0.127 C  
BRANCH  16  17
HETATM   17  C   UNL     1      -8.885   9.220  70.394  1.00  0.00    -0.234 C  
HETATM   18  H   UNL     1      -8.100  10.008  71.996  1.00  0.00     0.000 HD 
HETATM   19  O   UNL     1      -7.836   9.343  71.370  1.00  0.00    -0.325 OA 
BRANCH  17  20
HETATM   20  C   UNL     1     -10.232   8.959  71.099  1.00  0.00    -0.336 A  
HETATM   21  C   UNL     1     -10.525   7.746  71.769  1.00  0.00    -0.259 A  
HETATM   22  C   UNL     1      -9.516   6.708  72.021  1.00  0.00    -0.148 C  
HETATM   23  C   UNL     1      -9.837   5.543  72.599  1.00  0.00    -0.185 C  
HETATM   24  C   UNL     1     -11.240   5.238  72.981  1.00  0.00    -0.324 C  
HETATM   25  N   UNL     1     -12.157   6.235  72.801  1.00  0.00    -0.485 N  
HETATM   26  O   UNL     1     -11.543   4.151  73.443  1.00  0.00    -0.231 OA 
HETATM   27  H   UNL     1     -13.119   6.061  73.091  1.00  0.00     0.000 HD 
HETATM   28  C   UNL     1     -11.847   7.490  72.238  1.00  0.00    -0.289 A  
HETATM   29  C   UNL     1     -12.847   8.457  72.102  1.00  0.00    -0.346 A  
HETATM   30  C   UNL     1     -12.555   9.673  71.507  1.00  0.00    -0.483 A  
HETATM   31  O   UNL     1     -14.129   8.280  72.546  1.00  0.00    -0.593 OA 
HETATM   32  C   UNL     1     -11.266   9.924  71.019  1.00  0.00    -0.435 A  
HETATM   33  H   UNL     1     -14.809   8.937  72.453  1.00  0.00     0.000 HD 
ENDBRANCH  17  20
ENDBRANCH  16  17
ENDBRANCH  14  16
ENDBRANCH  10  14
ENDBRANCH   2   3
TORSDOF 6
ENDMDL
MODEL       64
REMARK 921   NORMALIZED FREE ENERGY PREDICTED BY IDOCK:   -6.33 KCAL/MOL
REMARK 922        TOTAL FREE ENERGY PREDICTED BY IDOCK:   -9.83 KCAL/MOL
REMARK 923 INTER-LIGAND FREE ENERGY PREDICTED BY IDOCK:   -9.05 KCAL/MOL
REMARK 924 INTRA-LIGAND FREE ENERGY PREDICTED BY IDOCK:   -0.78 KCAL/MOL
REMARK 927      BINDING AFFINITY PREDICTED BY RF-SCORE:    0.00 PKD
ROOT
HETATM    1  C   UNL     1     -10.642  16.323  69.111  1.00  0.00    -0.292 C  
HETATM    2  C   UNL     1     -12.028  15.806  69.460  1.00  0.00    -0.326 C  
ENDROOT
BRANCH   2   3
HETATM    3  C   UNL     1     -12.169  14.382  69.963  1.00  0.00    -0.408 A  
HETATM    4  C   UNL     1     -12.431  14.206  71.353  1.00  0.00    -0.438 A  
HETATM    5  C   UNL     1     -12.951  12.990  71.802  1.00  0.00    -0.420 A  
HETATM    6  C   UNL     1     -11.951  13.233  69.176  1.00  0.00    -0.343 A  
HETATM    7  C   UNL     1     -12.149  11.992  69.774  1.00  0.00    -0.317 A  
HETATM    8  C   UNL     1     -12.870  11.898  70.966  1.00  0.00    -0.291 A  
HETATM    9  C   UNL     1     -12.896  10.481  71.444  1.00  0.00    -0.551 C  
HETATM   10  C   UNL     1     -11.412  10.207  71.150  1.00  0.00    -0.307 C  
HETATM   11  C   UNL     1     -11.344  10.687  69.629  1.00  0.00    -0.360 C  
BRANCH   4  12
HETATM   12  C   UNL     1     -11.922  15.239  72.345  1.00  0.00    -0.514 C  
HETATM   13  C   UNL     1     -12.725  15.408  73.635  1.00  0.00    -0.713 C  
ENDBRANCH   4  12
BRANCH  10  14
HETATM   14  N   UNL     1     -10.913   8.917  71.671  1.00  0.00    -0.319 NA 
HETATM   15  H   UNL     1     -11.343   8.120  71.203  1.00  0.00     0.000 HD 
BRANCH  14  16
HETATM   16  C   UNL     1      -9.405   8.889  71.579  1.00  0.00    -0.265 C  
BRANCH  16  17
HETATM   17  C   UNL     1      -8.768   7.561  71.083  1.00  0.00    -0.136 C  
HETATM   18  H   UNL     1      -6.953   6.932  70.746  1.00  0.00     0.000 HD 
HETATM   19  O   UNL     1      -7.342   7.744  71.050  1.00  0.00    -0.069 OA 
BRANCH  17  20
HETATM   20  C   UNL     1      -9.267   7.070  69.709  1.00  0.00    -0.147 A  
HETATM   21  C   UNL     1      -9.228   7.876  68.545  1.00  0.00    -0.138 A  
HETATM   22  C   UNL     1      -8.537   9.172  68.493  1.00  0.00    -0.129 C  
HETATM   23  C   UNL     1      -8.572   9.943  67.398  1.00  0.00    -0.125 C  
HETATM   24  C   UNL     1      -9.342   9.531  66.196  1.00  0.00    -0.198 C  
HETATM   25  N   UNL     1      -9.926   8.297  66.232  1.00  0.00    -0.458 N  
HETATM   26  O   UNL     1      -9.431  10.265  65.226  1.00  0.00    -0.199 OA 
HETATM   27  H   UNL     1     -10.429   7.978  65.404  1.00  0.00     0.000 HD 
HETATM   28  C   UNL     1      -9.872   7.439  67.350  1.00  0.00    -0.169 A  
HETATM   29  C   UNL     1     -10.489   6.187  67.296  1.00  0.00    -0.255 A  
HETATM   30  C   UNL     1     -10.477   5.362  68.409  1.00  0.00    -0.191 A  
HETATM   31  O   UNL     1     -11.109   5.702  66.176  1.00  0.00    -0.743 OA 
HETATM   32  C   UNL     1      -9.870   5.793  69.595  1.00  0.00    -0.230 A  
HETATM   33  H   UNL     1     -11.529   4.850  66.139  1.00  0.00     0.000 HD 
ENDBRANCH  17  20
ENDBRANCH  16  17
ENDBRANCH  14  16
ENDBRANCH  10  14
ENDBRANCH   2   3
TORSDOF 6
ENDMDL
MODEL       65
REMARK 921   NORMALIZED FREE ENERGY PREDICTED BY IDOCK:   -6.32 KCAL/MOL
REMARK 922        TOTAL FREE ENERGY PREDICTED BY IDOCK:   -9.81 KCAL/MOL
REMARK 923 INTER-LIGAND FREE ENERGY PREDICTED BY IDOCK:   -9.40 KCAL/MOL
REMARK 924 INTRA-LIGAND FREE ENERGY PREDICTED BY IDOCK:   -0.41 KCAL/MOL
REMARK 927      BINDING AFFINITY PREDICTED BY RF-SCORE:    0.00 PKD
ROOT
HETATM    1  C   UNL     1     -10.333   5.174  74.284  1.00  0.00    -0.314 C  
HETATM    2  C   UNL     1      -9.875   6.616  74.139  1.00  0.00    -0.335 C  
ENDROOT
BRANCH   2   3
HETATM    3  C   UNL     1     -10.223   7.366  72.867  1.00  0.00    -0.310 A  
HETATM    4  C   UNL     1      -9.266   7.337  71.811  1.00  0.00    -0.153 A  
HETATM    5  C   UNL     1      -9.670   7.655  70.513  1.00  0.00    -0.182 A  
HETATM    6  C   UNL     1     -11.369   8.170  72.704  1.00  0.00    -0.450 A  
HETATM    7  C   UNL     1     -11.566   8.773  71.465  1.00  0.00    -0.374 A  
HETATM    8  C   UNL     1     -10.868   8.314  70.346  1.00  0.00    -0.241 A  
HETATM    9  C   UNL     1     -11.198   9.151  69.151  1.00  0.00     0.147 C  
HETATM   10  C   UNL     1     -11.119  10.494  69.896  1.00  0.00    -0.307 C  
HETATM   11  C   UNL     1     -12.091  10.181  71.125  1.00  0.00    -0.485 C  
BRANCH   4  12
HETATM   12  C   UNL     1      -7.790   7.199  72.147  1.00  0.00    -0.091 C  
HETATM   13  C   UNL     1      -7.021   8.493  72.413  1.00  0.00    -0.081 C  
ENDBRANCH   4  12
BRANCH  10  14
HETATM   14  N   UNL     1     -11.190  11.683  69.022  1.00  0.00    -0.242 NA 
HETATM   15  H   UNL     1     -11.607  12.485  69.494  1.00  0.00     0.000 HD 
BRANCH  14  16
HETATM   16  C   UNL     1      -9.813  11.991  68.481  1.00  0.00    -0.172 C  
BRANCH  16  17
HETATM   17  C   UNL     1      -9.475  11.408  67.081  1.00  0.00    -0.175 C  
HETATM   18  H   UNL     1      -7.841  11.098  66.063  1.00  0.00     0.000 HD 
HETATM   19  O   UNL     1      -8.047  11.454  66.919  1.00  0.00    -0.146 OA 
BRANCH  17  20
HETATM   20  C   UNL     1     -10.161  12.116  65.895  1.00  0.00    -0.272 A  
HETATM   21  C   UNL     1     -10.178  13.524  65.747  1.00  0.00    -0.305 A  
HETATM   22  C   UNL     1      -9.387  14.426  66.595  1.00  0.00    -0.297 C  
HETATM   23  C   UNL     1      -9.472  15.757  66.475  1.00  0.00    -0.298 C  
HETATM   24  C   UNL     1     -10.402  16.380  65.497  1.00  0.00    -0.313 C  
HETATM   25  N   UNL     1     -11.084  15.533  64.671  1.00  0.00    -0.656 N  
HETATM   26  O   UNL     1     -10.531  17.592  65.436  1.00  0.00    -0.647 OA 
HETATM   27  H   UNL     1     -11.700  15.939  63.966  1.00  0.00     0.000 HD 
HETATM   28  C   UNL     1     -10.984  14.128  64.737  1.00  0.00    -0.400 A  
HETATM   29  C   UNL     1     -11.710  13.336  63.844  1.00  0.00    -0.431 A  
HETATM   30  C   UNL     1     -11.650  11.955  63.937  1.00  0.00    -0.515 A  
HETATM   31  O   UNL     1     -12.489  13.852  62.843  1.00  0.00    -1.034 OA 
HETATM   32  C   UNL     1     -10.882  11.354  64.942  1.00  0.00    -0.323 A  
HETATM   33  H   UNL     1     -12.983  13.314  62.236  1.00  0.00     0.000 HD 
ENDBRANCH  17  20
ENDBRANCH  16  17
ENDBRANCH  14  16
ENDBRANCH  10  14
ENDBRANCH   2   3
TORSDOF 6
ENDMDL
MODEL       66
REMARK 921   NORMALIZED FREE ENERGY PREDICTED BY IDOCK:   -6.30 KCAL/MOL
REMARK 922        TOTAL FREE ENERGY PREDICTED BY IDOCK:   -9.79 KCAL/MOL
REMARK 923 INTER-LIGAND FREE ENERGY PREDICTED BY IDOCK:   -8.45 KCAL/MOL
REMARK 924 INTRA-LIGAND FREE ENERGY PREDICTED BY IDOCK:   -1.34 KCAL/MOL
REMARK 927      BINDING AFFINITY PREDICTED BY RF-SCORE:    0.00 PKD
ROOT
HETATM    1  C   UNL     1     -11.259  15.366  66.849  1.00  0.00    -0.214 C  
HETATM    2  C   UNL     1     -11.972  14.137  66.311  1.00  0.00    -0.448 C  
ENDROOT
BRANCH   2   3
HETATM    3  C   UNL     1     -11.250  12.803  66.341  1.00  0.00    -0.339 A  
HETATM    4  C   UNL     1     -10.688  12.339  65.117  1.00  0.00    -0.330 A  
HETATM    5  C   UNL     1      -9.701  11.352  65.149  1.00  0.00    -0.280 A  
HETATM    6  C   UNL     1     -11.194  11.953  67.464  1.00  0.00    -0.359 A  
HETATM    7  C   UNL     1     -10.467  10.773  67.347  1.00  0.00    -0.268 A  
HETATM    8  C   UNL     1      -9.549  10.618  66.305  1.00  0.00    -0.228 A  
HETATM    9  C   UNL     1      -8.939   9.253  66.351  1.00  0.00    -0.185 C  
HETATM   10  C   UNL     1     -10.261   8.520  66.634  1.00  0.00    -0.275 C  
HETATM   11  C   UNL     1     -10.776   9.364  67.888  1.00  0.00    -0.269 C  
BRANCH   4  12
HETATM   12  C   UNL     1     -11.331  12.742  63.800  1.00  0.00    -0.520 C  
HETATM   13  C   UNL     1     -12.617  12.012  63.411  1.00  0.00    -0.592 C  
ENDBRANCH   4  12
BRANCH  10  14
HETATM   14  N   UNL     1     -10.169   7.047  66.565  1.00  0.00    -0.458 NA 
HETATM   15  H   UNL     1     -10.177   6.704  65.605  1.00  0.00     0.000 HD 
BRANCH  14  16
HETATM   16  C   UNL     1      -8.949   6.584  67.328  1.00  0.00    -0.114 C  
BRANCH  16  17
HETATM   17  C   UNL     1      -9.211   5.713  68.587  1.00  0.00    -0.122 C  
HETATM   18  H   UNL     1     -10.083   4.004  68.937  1.00  0.00     0.000 HD 
HETATM   19  O   UNL     1      -9.923   4.536  68.166  1.00  0.00    -0.119 OA 
BRANCH  17  20
HETATM   20  C   UNL     1      -9.985   6.417  69.720  1.00  0.00    -0.196 A  
HETATM   21  C   UNL     1      -9.341   7.100  70.780  1.00  0.00    -0.160 A  
HETATM   22  C   UNL     1      -7.896   7.367  70.798  1.00  0.00    -0.096 C  
HETATM   23  C   UNL     1      -7.303   7.957  71.844  1.00  0.00    -0.080 C  
HETATM   24  C   UNL     1      -8.083   8.340  73.050  1.00  0.00    -0.149 C  
HETATM   25  N   UNL     1      -9.434   8.146  72.996  1.00  0.00    -0.270 N  
HETATM   26  O   UNL     1      -7.532   8.813  74.030  1.00  0.00    -0.404 OA 
HETATM   27  H   UNL     1      -9.994   8.435  73.798  1.00  0.00     0.000 HD 
HETATM   28  C   UNL     1     -10.098   7.570  71.894  1.00  0.00    -0.172 A  
HETATM   29  C   UNL     1     -11.487   7.420  71.919  1.00  0.00    -0.266 A  
HETATM   30  C   UNL     1     -12.136   6.812  70.857  1.00  0.00    -0.421 A  
HETATM   31  O   UNL     1     -12.272   7.863  72.949  1.00  0.00    -0.610 OA 
HETATM   32  C   UNL     1     -11.398   6.324  69.771  1.00  0.00    -0.506 A  
HETATM   33  H   UNL     1     -13.216   7.760  72.967  1.00  0.00     0.000 HD 
ENDBRANCH  17  20
ENDBRANCH  16  17
ENDBRANCH  14  16
ENDBRANCH  10  14
ENDBRANCH   2   3
TORSDOF 6
ENDMDL
MODEL       67
REMARK 921   NORMALIZED FREE ENERGY PREDICTED BY IDOCK:   -6.27 KCAL/MOL
REMARK 922        TOTAL FREE ENERGY PREDICTED BY IDOCK:   -9.74 KCAL/MOL
REMARK 923 INTER-LIGAND FREE ENERGY PREDICTED BY IDOCK:   -8.78 KCAL/MOL
REMARK 924 INTRA-LIGAND FREE ENERGY PREDICTED BY IDOCK:   -0.96 KCAL/MOL
REMARK 927      BINDING AFFINITY PREDICTED BY RF-SCORE:    0.00 PKD
ROOT
HETATM    1  C   UNL     1      -9.411   7.815  73.540  1.00  0.00    -0.346 C  
HETATM    2  C   UNL     1      -9.269   7.924  72.031  1.00  0.00    -0.207 C  
ENDROOT
BRANCH   2   3
HETATM    3  C   UNL     1     -10.033   9.014  71.304  1.00  0.00    -0.381 A  
HETATM    4  C   UNL     1      -9.358   9.688  70.245  1.00  0.00    -0.292 A  
HETATM    5  C   UNL     1     -10.103  10.399  69.303  1.00  0.00    -0.248 A  
HETATM    6  C   UNL     1     -11.313   9.474  71.676  1.00  0.00    -0.411 A  
HETATM    7  C   UNL     1     -11.898  10.463  70.892  1.00  0.00    -0.475 A  
HETATM    8  C   UNL     1     -11.407  10.721  69.610  1.00  0.00    -0.362 A  
HETATM    9  C   UNL     1     -12.152  11.859  68.989  1.00  0.00    -0.245 C  
HETATM   10  C   UNL     1     -12.149  12.734  70.254  1.00  0.00    -0.297 C  
HETATM   11  C   UNL     1     -12.735  11.687  71.308  1.00  0.00    -0.444 C  
BRANCH   4  12
HETATM   12  C   UNL     1      -7.844   9.822  70.292  1.00  0.00    -0.190 C  
HETATM   13  C   UNL     1      -7.228  10.947  69.460  1.00  0.00    -0.113 C  
ENDBRANCH   4  12
BRANCH  10  14
HETATM   14  N   UNL     1     -12.637  14.113  70.045  1.00  0.00    -0.419 NA 
HETATM   15  H   UNL     1     -13.279  14.410  70.778  1.00  0.00     0.000 HD 
BRANCH  14  16
HETATM   16  C   UNL     1     -11.456  15.046  69.906  1.00  0.00    -0.289 C  
BRANCH  16  17
HETATM   17  C   UNL     1     -11.302  15.766  68.537  1.00  0.00    -0.374 C  
HETATM   18  H   UNL     1     -11.871  15.405  66.707  1.00  0.00     0.000 HD 
HETATM   19  O   UNL     1     -11.965  14.965  67.544  1.00  0.00    -0.314 OA 
BRANCH  17  20
HETATM   20  C   UNL     1      -9.849  16.044  68.104  1.00  0.00    -0.222 A  
HETATM   21  C   UNL     1      -9.319  17.352  67.990  1.00  0.00    -0.276 A  
HETATM   22  C   UNL     1     -10.035  18.548  68.455  1.00  0.00    -0.419 C  
HETATM   23  C   UNL     1      -9.537  19.778  68.275  1.00  0.00    -0.467 C  
HETATM   24  C   UNL     1      -8.249  19.987  67.564  1.00  0.00    -0.329 C  
HETATM   25  N   UNL     1      -7.562  18.867  67.194  1.00  0.00    -0.228 N  
HETATM   26  O   UNL     1      -7.831  21.111  67.339  1.00  0.00    -0.300 OA 
HETATM   27  H   UNL     1      -6.658  18.985  66.737  1.00  0.00     0.000 HD 
HETATM   28  C   UNL     1      -8.033  17.555  67.407  1.00  0.00    -0.204 A  
HETATM   29  C   UNL     1      -7.258  16.464  67.006  1.00  0.00    -0.222 A  
HETATM   30  C   UNL     1      -7.739  15.175  67.173  1.00  0.00    -0.223 A  
HETATM   31  O   UNL     1      -6.010  16.589  66.456  1.00  0.00    -0.299 OA 
HETATM   32  C   UNL     1      -9.011  14.967  67.720  1.00  0.00    -0.179 A  
HETATM   33  H   UNL     1      -5.483  15.848  66.182  1.00  0.00     0.000 HD 
ENDBRANCH  17  20
ENDBRANCH  16  17
ENDBRANCH  14  16
ENDBRANCH  10  14
ENDBRANCH   2   3
TORSDOF 6
ENDMDL
MODEL       68
REMARK 921   NORMALIZED FREE ENERGY PREDICTED BY IDOCK:   -6.25 KCAL/MOL
REMARK 922        TOTAL FREE ENERGY PREDICTED BY IDOCK:   -9.72 KCAL/MOL
REMARK 923 INTER-LIGAND FREE ENERGY PREDICTED BY IDOCK:   -7.29 KCAL/MOL
REMARK 924 INTRA-LIGAND FREE ENERGY PREDICTED BY IDOCK:   -2.43 KCAL/MOL
REMARK 927      BINDING AFFINITY PREDICTED BY RF-SCORE:    0.00 PKD
ROOT
HETATM    1  C   UNL     1      -9.039  17.489  68.242  1.00  0.00    -0.274 C  
HETATM    2  C   UNL     1     -10.506  17.092  68.200  1.00  0.00    -0.357 C  
ENDROOT
BRANCH   2   3
HETATM    3  C   UNL     1     -10.911  15.888  67.371  1.00  0.00    -0.291 A  
HETATM    4  C   UNL     1     -11.539  14.807  68.056  1.00  0.00    -0.367 A  
HETATM    5  C   UNL     1     -12.274  13.870  67.326  1.00  0.00    -0.324 A  
HETATM    6  C   UNL     1     -10.611  15.725  66.003  1.00  0.00    -0.334 A  
HETATM    7  C   UNL     1     -11.077  14.576  65.371  1.00  0.00    -0.345 A  
HETATM    8  C   UNL     1     -12.087  13.814  65.962  1.00  0.00    -0.470 A  
HETATM    9  C   UNL     1     -12.375  12.603  65.133  1.00  0.00    -0.547 C  
HETATM   10  C   UNL     1     -10.899  12.266  64.861  1.00  0.00    -0.302 C  
HETATM   11  C   UNL     1     -10.393  13.681  64.320  1.00  0.00    -0.068 C  
BRANCH   4  12
HETATM   12  C   UNL     1     -11.205  14.555  69.517  1.00  0.00    -0.300 C  
HETATM   13  C   UNL     1     -12.149  13.634  70.290  1.00  0.00    -0.427 C  
ENDBRANCH   4  12
BRANCH  10  14
HETATM   14  N   UNL     1     -10.681  10.962  64.202  1.00  0.00    -0.442 NA 
HETATM   15  H   UNL     1     -10.255  11.062  63.281  1.00  0.00     0.000 HD 
BRANCH  14  16
HETATM   16  C   UNL     1      -9.870  10.069  65.113  1.00  0.00    -0.318 C  
BRANCH  16  17
HETATM   17  C   UNL     1      -8.428  10.545  65.443  1.00  0.00    -0.170 C  
HETATM   18  H   UNL     1      -6.631   9.994  64.924  1.00  0.00     0.000 HD 
HETATM   19  O   UNL     1      -7.512   9.703  64.722  1.00  0.00    -0.111 OA 
BRANCH  17  20
HETATM   20  C   UNL     1      -8.068  10.551  66.942  1.00  0.00    -0.120 A  
HETATM   21  C   UNL     1      -7.818  11.741  67.667  1.00  0.00    -0.138 A  
HETATM   22  C   UNL     1      -8.065  13.080  67.114  1.00  0.00    -0.114 C  
HETATM   23  C   UNL     1      -7.757  14.190  67.799  1.00  0.00    -0.175 C  
HETATM   24  C   UNL     1      -7.120  14.111  69.139  1.00  0.00    -0.099 C  
HETATM   25  N   UNL     1      -6.955  12.863  69.669  1.00  0.00    -0.331 N  
HETATM   26  O   UNL     1      -6.777  15.121  69.732  1.00  0.00    -0.162 OA 
HETATM   27  H   UNL     1      -6.553  12.787  70.604  1.00  0.00     0.000 HD 
HETATM   28  C   UNL     1      -7.309  11.675  68.997  1.00  0.00    -0.074 A  
HETATM   29  C   UNL     1      -7.115  10.440  69.621  1.00  0.00    -0.135 A  
HETATM   30  C   UNL     1      -7.418   9.269  68.944  1.00  0.00    -0.075 A  
HETATM   31  O   UNL     1      -6.645  10.308  70.900  1.00  0.00    -0.330 OA 
HETATM   32  C   UNL     1      -7.895   9.323  67.628  1.00  0.00    -0.096 A  
HETATM   33  H   UNL     1      -6.513   9.468  71.324  1.00  0.00     0.000 HD 
ENDBRANCH  17  20
ENDBRANCH  16  17
ENDBRANCH  14  16
ENDBRANCH  10  14
ENDBRANCH   2   3
TORSDOF 6
ENDMDL
MODEL       69
REMARK 921   NORMALIZED FREE ENERGY PREDICTED BY IDOCK:   -6.20 KCAL/MOL
REMARK 922        TOTAL FREE ENERGY PREDICTED BY IDOCK:   -9.66 KCAL/MOL
REMARK 923 INTER-LIGAND FREE ENERGY PREDICTED BY IDOCK:   -9.02 KCAL/MOL
REMARK 924 INTRA-LIGAND FREE ENERGY PREDICTED BY IDOCK:   -0.64 KCAL/MOL
REMARK 927      BINDING AFFINITY PREDICTED BY RF-SCORE:    0.00 PKD
ROOT
HETATM    1  C   UNL     1      -6.327   4.902  71.238  1.00  0.00    -0.023 C  
HETATM    2  C   UNL     1      -7.645   4.520  70.583  1.00  0.00    -0.053 C  
ENDROOT
BRANCH   2   3
HETATM    3  C   UNL     1      -8.799   5.502  70.643  1.00  0.00    -0.142 A  
HETATM    4  C   UNL     1      -9.898   5.270  69.766  1.00  0.00    -0.282 A  
HETATM    5  C   UNL     1     -11.127   5.876  70.034  1.00  0.00    -0.411 A  
HETATM    6  C   UNL     1      -8.807   6.677  71.423  1.00  0.00    -0.139 A  
HETATM    7  C   UNL     1      -9.954   7.464  71.396  1.00  0.00    -0.195 A  
HETATM    8  C   UNL     1     -11.154   6.935  70.915  1.00  0.00    -0.313 A  
HETATM    9  C   UNL     1     -12.223   7.981  70.927  1.00  0.00    -0.122 C  
HETATM   10  C   UNL     1     -11.329   9.100  70.366  1.00  0.00    -0.224 C  
HETATM   11  C   UNL     1     -10.098   8.998  71.379  1.00  0.00    -0.399 C  
BRANCH   4  12
HETATM   12  C   UNL     1      -9.657   4.573  68.437  1.00  0.00    -0.207 C  
HETATM   13  C   UNL     1     -10.248   5.238  67.194  1.00  0.00    -0.264 C  
ENDBRANCH   4  12
BRANCH  10  14
HETATM   14  N   UNL     1     -12.051  10.338  70.008  1.00  0.00    -0.455 NA 
HETATM   15  H   UNL     1     -11.992  11.044  70.740  1.00  0.00     0.000 HD 
BRANCH  14  16
HETATM   16  C   UNL     1     -11.543  10.848  68.679  1.00  0.00    -0.303 C  
BRANCH  16  17
HETATM   17  C   UNL     1     -11.198  12.361  68.606  1.00  0.00    -0.271 C  
HETATM   18  H   UNL     1     -11.807  13.970  69.525  1.00  0.00     0.000 HD 
HETATM   19  O   UNL     1     -12.018  13.045  69.569  1.00  0.00    -0.309 OA 
BRANCH  17  20
HETATM   20  C   UNL     1     -11.370  13.006  67.216  1.00  0.00    -0.348 A  
HETATM   21  C   UNL     1     -10.851  14.283  66.892  1.00  0.00    -0.298 A  
HETATM   22  C   UNL     1      -9.942  15.024  67.777  1.00  0.00    -0.229 C  
HETATM   23  C   UNL     1      -9.518  16.258  67.475  1.00  0.00    -0.227 C  
HETATM   24  C   UNL     1      -9.980  16.945  66.240  1.00  0.00    -0.309 C  
HETATM   25  N   UNL     1     -10.773  16.223  65.394  1.00  0.00    -0.369 N  
HETATM   26  O   UNL     1      -9.649  18.094  66.000  1.00  0.00    -0.496 OA 
HETATM   27  H   UNL     1     -11.071  16.661  64.523  1.00  0.00     0.000 HD 
HETATM   28  C   UNL     1     -11.201  14.905  65.658  1.00  0.00    -0.347 A  
HETATM   29  C   UNL     1     -12.003  14.236  64.730  1.00  0.00    -0.440 A  
HETATM   30  C   UNL     1     -12.463  12.959  65.008  1.00  0.00    -0.553 A  
HETATM   31  O   UNL     1     -12.361  14.770  63.521  1.00  0.00    -1.037 OA 
HETATM   32  C   UNL     1     -12.146  12.350  66.229  1.00  0.00    -0.256 A  
HETATM   33  H   UNL     1     -12.906  14.316  62.890  1.00  0.00     0.000 HD 
ENDBRANCH  17  20
ENDBRANCH  16  17
ENDBRANCH  14  16
ENDBRANCH  10  14
ENDBRANCH   2   3
TORSDOF 6
ENDMDL
MODEL       70
REMARK 921   NORMALIZED FREE ENERGY PREDICTED BY IDOCK:   -6.17 KCAL/MOL
REMARK 922        TOTAL FREE ENERGY PREDICTED BY IDOCK:   -9.62 KCAL/MOL
REMARK 923 INTER-LIGAND FREE ENERGY PREDICTED BY IDOCK:   -8.86 KCAL/MOL
REMARK 924 INTRA-LIGAND FREE ENERGY PREDICTED BY IDOCK:   -0.76 KCAL/MOL
REMARK 927      BINDING AFFINITY PREDICTED BY RF-SCORE:    0.00 PKD
ROOT
HETATM    1  C   UNL     1      -7.479   4.386  66.769  1.00  0.00    -0.081 C  
HETATM    2  C   UNL     1      -8.822   4.940  66.324  1.00  0.00    -0.116 C  
ENDROOT
BRANCH   2   3
HETATM    3  C   UNL     1      -9.030   6.443  66.337  1.00  0.00    -0.162 A  
HETATM    4  C   UNL     1      -9.883   6.974  67.348  1.00  0.00    -0.197 A  
HETATM    5  C   UNL     1      -9.809   8.332  67.660  1.00  0.00    -0.218 A  
HETATM    6  C   UNL     1      -8.529   7.325  65.358  1.00  0.00    -0.096 A  
HETATM    7  C   UNL     1      -8.779   8.684  65.523  1.00  0.00    -0.219 A  
HETATM    8  C   UNL     1      -9.184   9.174  66.766  1.00  0.00    -0.195 A  
HETATM    9  C   UNL     1      -9.449  10.644  66.682  1.00  0.00    -0.195 C  
HETATM   10  C   UNL     1     -10.203  10.572  65.343  1.00  0.00    -0.270 C  
HETATM   11  C   UNL     1      -9.139   9.755  64.476  1.00  0.00    -0.297 C  
BRANCH   4  12
HETATM   12  C   UNL     1     -11.014   6.118  67.895  1.00  0.00    -0.399 C  
HETATM   13  C   UNL     1     -11.231   6.151  69.408  1.00  0.00    -0.466 C  
ENDBRANCH   4  12
BRANCH  10  14
HETATM   14  N   UNL     1     -10.856  11.835  64.941  1.00  0.00    -0.291 NA 
HETATM   15  H   UNL     1     -11.319  11.759  64.036  1.00  0.00     0.000 HD 
BRANCH  14  16
HETATM   16  C   UNL     1     -11.803  12.279  66.032  1.00  0.00    -0.341 C  
BRANCH  16  17
HETATM   17  C   UNL     1     -12.397  13.708  65.892  1.00  0.00    -0.471 C  
HETATM   18  H   UNL     1     -12.952  14.842  64.405  1.00  0.00     0.000 HD 
HETATM   19  O   UNL     1     -12.589  13.967  64.491  1.00  0.00    -0.635 OA 
BRANCH  17  20
HETATM   20  C   UNL     1     -11.550  14.833  66.523  1.00  0.00    -0.306 A  
HETATM   21  C   UNL     1     -11.583  15.134  67.906  1.00  0.00    -0.326 A  
HETATM   22  C   UNL     1     -12.270  14.288  68.892  1.00  0.00    -0.240 C  
HETATM   23  C   UNL     1     -12.340  14.632  70.185  1.00  0.00    -0.390 C  
HETATM   24  C   UNL     1     -11.750  15.907  70.671  1.00  0.00    -0.384 C  
HETATM   25  N   UNL     1     -11.059  16.653  69.759  1.00  0.00    -0.391 N  
HETATM   26  O   UNL     1     -11.875  16.253  71.834  1.00  0.00    -0.496 OA 
HETATM   27  H   UNL     1     -10.615  17.513  70.079  1.00  0.00     0.000 HD 
HETATM   28  C   UNL     1     -10.926  16.299  68.400  1.00  0.00    -0.351 A  
HETATM   29  C   UNL     1     -10.190  17.116  67.539  1.00  0.00    -0.323 A  
HETATM   30  C   UNL     1     -10.096  16.795  66.194  1.00  0.00    -0.360 A  
HETATM   31  O   UNL     1      -9.523  18.237  67.952  1.00  0.00    -0.271 OA 
HETATM   32  C   UNL     1     -10.760  15.667  65.695  1.00  0.00    -0.376 A  
HETATM   33  H   UNL     1      -9.023  18.793  67.366  1.00  0.00     0.000 HD 
ENDBRANCH  17  20
ENDBRANCH  16  17
ENDBRANCH  14  16
ENDBRANCH  10  14
ENDBRANCH   2   3
TORSDOF 6
ENDMDL
MODEL       71
REMARK 921   NORMALIZED FREE ENERGY PREDICTED BY IDOCK:   -6.14 KCAL/MOL
REMARK 922        TOTAL FREE ENERGY PREDICTED BY IDOCK:   -9.57 KCAL/MOL
REMARK 923 INTER-LIGAND FREE ENERGY PREDICTED BY IDOCK:   -7.96 KCAL/MOL
REMARK 924 INTRA-LIGAND FREE ENERGY PREDICTED BY IDOCK:   -1.61 KCAL/MOL
REMARK 927      BINDING AFFINITY PREDICTED BY RF-SCORE:    0.00 PKD
ROOT
HETATM    1  C   UNL     1      -6.910  14.325  69.597  1.00  0.00    -0.087 C  
HETATM    2  C   UNL     1      -7.856  15.514  69.559  1.00  0.00    -0.194 C  
ENDROOT
BRANCH   2   3
HETATM    3  C   UNL     1      -8.762  15.687  68.354  1.00  0.00    -0.178 A  
HETATM    4  C   UNL     1     -10.056  16.236  68.585  1.00  0.00    -0.233 A  
HETATM    5  C   UNL     1     -10.770  16.777  67.515  1.00  0.00    -0.275 A  
HETATM    6  C   UNL     1      -8.449  15.243  67.053  1.00  0.00    -0.258 A  
HETATM    7  C   UNL     1      -9.371  15.501  66.043  1.00  0.00    -0.379 A  
HETATM    8  C   UNL     1     -10.369  16.458  66.236  1.00  0.00    -0.337 A  
HETATM    9  C   UNL     1     -11.270  16.514  65.043  1.00  0.00    -0.091 C  
HETATM   10  C   UNL     1     -11.369  14.989  64.872  1.00  0.00    -0.417 C  
HETATM   11  C   UNL     1      -9.816  14.617  64.863  1.00  0.00     0.072 C  
BRANCH   4  12
HETATM   12  C   UNL     1     -10.733  16.010  69.928  1.00  0.00    -0.334 C  
HETATM   13  C   UNL     1     -12.037  15.212  69.914  1.00  0.00    -0.373 C  
ENDBRANCH   4  12
BRANCH  10  14
HETATM   14  N   UNL     1     -12.367  14.550  63.875  1.00  0.00    -1.047 NA 
HETATM   15  H   UNL     1     -12.475  15.220  63.115  1.00  0.00     0.000 HD 
BRANCH  14  16
HETATM   16  C   UNL     1     -12.001  13.171  63.374  1.00  0.00    -0.483 C  
BRANCH  16  17
HETATM   17  C   UNL     1     -12.388  11.978  64.291  1.00  0.00    -0.302 C  
HETATM   18  H   UNL     1     -14.000  11.419  65.237  1.00  0.00     0.000 HD 
HETATM   19  O   UNL     1     -13.763  12.149  64.676  1.00  0.00    -0.113 OA 
BRANCH  17  20
HETATM   20  C   UNL     1     -11.509  11.805  65.545  1.00  0.00    -0.241 A  
HETATM   21  C   UNL     1     -10.368  10.968  65.573  1.00  0.00    -0.321 A  
HETATM   22  C   UNL     1      -9.806  10.341  64.368  1.00  0.00    -0.374 C  
HETATM   23  C   UNL     1      -8.765   9.501  64.434  1.00  0.00    -0.235 C  
HETATM   24  C   UNL     1      -8.153   9.141  65.739  1.00  0.00    -0.112 C  
HETATM   25  N   UNL     1      -8.640   9.778  66.844  1.00  0.00    -0.124 N  
HETATM   26  O   UNL     1      -7.250   8.322  65.805  1.00  0.00    -0.070 OA 
HETATM   27  H   UNL     1      -8.211   9.574  67.746  1.00  0.00     0.000 HD 
HETATM   28  C   UNL     1      -9.705  10.702  66.808  1.00  0.00    -0.185 A  
HETATM   29  C   UNL     1     -10.132  11.317  67.988  1.00  0.00    -0.177 A  
HETATM   30  C   UNL     1     -11.208  12.190  67.961  1.00  0.00    -0.319 A  
HETATM   31  O   UNL     1      -9.530  11.118  69.200  1.00  0.00    -0.382 OA 
HETATM   32  C   UNL     1     -11.881  12.436  66.758  1.00  0.00    -0.385 A  
HETATM   33  H   UNL     1      -9.821  11.535  70.003  1.00  0.00     0.000 HD 
ENDBRANCH  17  20
ENDBRANCH  16  17
ENDBRANCH  14  16
ENDBRANCH  10  14
ENDBRANCH   2   3
TORSDOF 6
ENDMDL
MODEL       72
REMARK 921   NORMALIZED FREE ENERGY PREDICTED BY IDOCK:   -6.13 KCAL/MOL
REMARK 922        TOTAL FREE ENERGY PREDICTED BY IDOCK:   -9.56 KCAL/MOL
REMARK 923 INTER-LIGAND FREE ENERGY PREDICTED BY IDOCK:   -6.98 KCAL/MOL
REMARK 924 INTRA-LIGAND FREE ENERGY PREDICTED BY IDOCK:   -2.58 KCAL/MOL
REMARK 927      BINDING AFFINITY PREDICTED BY RF-SCORE:    0.00 PKD
ROOT
HETATM    1  C   UNL     1     -12.703   8.803  71.776  1.00  0.00    -0.408 C  
HETATM    2  C   UNL     1     -11.687   7.681  71.920  1.00  0.00    -0.328 C  
ENDROOT
BRANCH   2   3
HETATM    3  C   UNL     1     -10.933   7.218  70.688  1.00  0.00    -0.278 A  
HETATM    4  C   UNL     1      -9.535   7.490  70.639  1.00  0.00    -0.164 A  
HETATM    5  C   UNL     1      -8.730   6.770  69.755  1.00  0.00    -0.141 A  
HETATM    6  C   UNL     1     -11.540   6.640  69.554  1.00  0.00    -0.257 A  
HETATM    7  C   UNL     1     -10.710   6.238  68.511  1.00  0.00    -0.354 A  
HETATM    8  C   UNL     1      -9.340   6.081  68.729  1.00  0.00    -0.128 A  
HETATM    9  C   UNL     1      -8.653   5.705  67.455  1.00  0.00    -0.109 C  
HETATM   10  C   UNL     1      -9.416   6.716  66.582  1.00  0.00    -0.164 C  
HETATM   11  C   UNL     1     -10.916   6.346  66.989  1.00  0.00    -0.463 C  
BRANCH   4  12
HETATM   12  C   UNL     1      -8.987   8.709  71.362  1.00  0.00    -0.286 C  
HETATM   13  C   UNL     1      -8.100   9.651  70.548  1.00  0.00    -0.145 C  
ENDBRANCH   4  12
BRANCH  10  14
HETATM   14  N   UNL     1      -8.902   6.842  65.203  1.00  0.00    -0.360 NA 
HETATM   15  H   UNL     1      -9.569   6.504  64.510  1.00  0.00     0.000 HD 
BRANCH  14  16
HETATM   16  C   UNL     1      -8.493   8.275  64.950  1.00  0.00    -0.096 C  
BRANCH  16  17
HETATM   17  C   UNL     1      -9.528   9.368  65.335  1.00  0.00    -0.253 C  
HETATM   18  H   UNL     1     -10.543  10.723  64.367  1.00  0.00     0.000 HD 
HETATM   19  O   UNL     1      -9.910  10.054  64.131  1.00  0.00    -0.257 OA 
BRANCH  17  20
HETATM   20  C   UNL     1      -9.044  10.385  66.389  1.00  0.00    -0.177 A  
HETATM   21  C   UNL     1      -9.863  10.839  67.451  1.00  0.00    -0.204 A  
HETATM   22  C   UNL     1     -11.171  10.246  67.761  1.00  0.00    -0.262 C  
HETATM   23  C   UNL     1     -11.953  10.738  68.730  1.00  0.00    -0.157 C  
HETATM   24  C   UNL     1     -11.542  11.932  69.514  1.00  0.00    -0.327 C  
HETATM   25  N   UNL     1     -10.298  12.435  69.261  1.00  0.00    -0.399 N  
HETATM   26  O   UNL     1     -12.285  12.422  70.348  1.00  0.00    -0.346 OA 
HETATM   27  H   UNL     1      -9.979  13.231  69.813  1.00  0.00     0.000 HD 
HETATM   28  C   UNL     1      -9.428  11.914  68.280  1.00  0.00    -0.197 A  
HETATM   29  C   UNL     1      -8.166  12.485  68.097  1.00  0.00    -0.170 A  
HETATM   30  C   UNL     1      -7.329  12.005  67.102  1.00  0.00    -0.134 A  
HETATM   31  O   UNL     1      -7.683  13.507  68.868  1.00  0.00    -0.269 OA 
HETATM   32  C   UNL     1      -7.757  10.966  66.266  1.00  0.00    -0.147 A  
HETATM   33  H   UNL     1      -6.825  13.895  68.743  1.00  0.00     0.000 HD 
ENDBRANCH  17  20
ENDBRANCH  16  17
ENDBRANCH  14  16
ENDBRANCH  10  14
ENDBRANCH   2   3
TORSDOF 6
ENDMDL
MODEL       73
REMARK 921   NORMALIZED FREE ENERGY PREDICTED BY IDOCK:   -6.12 KCAL/MOL
REMARK 922        TOTAL FREE ENERGY PREDICTED BY IDOCK:   -9.54 KCAL/MOL
REMARK 923 INTER-LIGAND FREE ENERGY PREDICTED BY IDOCK:   -7.13 KCAL/MOL
REMARK 924 INTRA-LIGAND FREE ENERGY PREDICTED BY IDOCK:   -2.41 KCAL/MOL
REMARK 927      BINDING AFFINITY PREDICTED BY RF-SCORE:    0.00 PKD
ROOT
HETATM    1  C   UNL     1      -6.410   6.214  70.452  1.00  0.00    -0.036 C  
HETATM    2  C   UNL     1      -7.638   5.398  70.085  1.00  0.00    -0.073 C  
ENDROOT
BRANCH   2   3
HETATM    3  C   UNL     1      -9.009   5.956  70.419  1.00  0.00    -0.154 A  
HETATM    4  C   UNL     1      -9.961   6.021  69.360  1.00  0.00    -0.220 A  
HETATM    5  C   UNL     1     -11.318   6.143  69.667  1.00  0.00    -0.442 A  
HETATM    6  C   UNL     1      -9.363   6.507  71.667  1.00  0.00    -0.147 A  
HETATM    7  C   UNL     1     -10.671   6.952  71.830  1.00  0.00    -0.245 A  
HETATM    8  C   UNL     1     -11.665   6.542  70.939  1.00  0.00    -0.416 A  
HETATM    9  C   UNL     1     -12.967   7.194  71.280  1.00  0.00    -0.378 C  
HETATM   10  C   UNL     1     -12.364   8.586  71.532  1.00  0.00    -0.314 C  
HETATM   11  C   UNL     1     -11.206   8.198  72.561  1.00  0.00    -0.459 C  
BRANCH   4  12
HETATM   12  C   UNL     1      -9.475   6.199  67.931  1.00  0.00    -0.115 C  
HETATM   13  C   UNL     1     -10.518   6.034  66.825  1.00  0.00    -0.329 C  
ENDBRANCH   4  12
BRANCH  10  14
HETATM   14  N   UNL     1     -13.361   9.660  71.720  1.00  0.00    -0.405 NA 
HETATM   15  H   UNL     1     -13.263  10.124  72.622  1.00  0.00     0.000 HD 
BRANCH  14  16
HETATM   16  C   UNL     1     -13.277  10.631  70.565  1.00  0.00     0.025 C  
BRANCH  16  17
HETATM   17  C   UNL     1     -12.019  11.542  70.520  1.00  0.00    -0.344 C  
HETATM   18  H   UNL     1     -11.642  13.411  70.933  1.00  0.00     0.000 HD 
HETATM   19  O   UNL     1     -12.411  12.854  70.961  1.00  0.00    -0.371 OA 
BRANCH  17  20
HETATM   20  C   UNL     1     -11.327  11.635  69.144  1.00  0.00    -0.345 A  
HETATM   21  C   UNL     1     -10.121  10.957  68.844  1.00  0.00    -0.211 A  
HETATM   22  C   UNL     1      -9.523   9.957  69.739  1.00  0.00    -0.254 C  
HETATM   23  C   UNL     1      -8.347   9.379  69.460  1.00  0.00    -0.127 C  
HETATM   24  C   UNL     1      -7.580   9.752  68.243  1.00  0.00    -0.081 C  
HETATM   25  N   UNL     1      -8.176  10.634  67.387  1.00  0.00    -0.115 N  
HETATM   26  O   UNL     1      -6.478   9.277  68.025  1.00  0.00    -0.058 OA 
HETATM   27  H   UNL     1      -7.684  10.877  66.527  1.00  0.00     0.000 HD 
HETATM   28  C   UNL     1      -9.432  11.228  67.625  1.00  0.00    -0.167 A  
HETATM   29  C   UNL     1      -9.973  12.112  66.688  1.00  0.00    -0.206 A  
HETATM   30  C   UNL     1     -11.186  12.732  66.942  1.00  0.00    -0.339 A  
HETATM   31  O   UNL     1      -9.371  12.402  65.493  1.00  0.00    -0.437 OA 
HETATM   32  C   UNL     1     -11.857  12.492  68.148  1.00  0.00    -0.371 A  
HETATM   33  H   UNL     1      -9.738  13.003  64.856  1.00  0.00     0.000 HD 
ENDBRANCH  17  20
ENDBRANCH  16  17
ENDBRANCH  14  16
ENDBRANCH  10  14
ENDBRANCH   2   3
TORSDOF 6
ENDMDL
MODEL       74
REMARK 921   NORMALIZED FREE ENERGY PREDICTED BY IDOCK:   -6.11 KCAL/MOL
REMARK 922        TOTAL FREE ENERGY PREDICTED BY IDOCK:   -9.53 KCAL/MOL
REMARK 923 INTER-LIGAND FREE ENERGY PREDICTED BY IDOCK:   -8.59 KCAL/MOL
REMARK 924 INTRA-LIGAND FREE ENERGY PREDICTED BY IDOCK:   -0.94 KCAL/MOL
REMARK 927      BINDING AFFINITY PREDICTED BY RF-SCORE:    0.00 PKD
ROOT
HETATM    1  C   UNL     1     -10.675   7.584  73.293  1.00  0.00    -0.437 C  
HETATM    2  C   UNL     1     -11.635   7.920  72.163  1.00  0.00    -0.380 C  
ENDROOT
BRANCH   2   3
HETATM    3  C   UNL     1     -11.072   8.491  70.875  1.00  0.00    -0.295 A  
HETATM    4  C   UNL     1     -11.313   9.872  70.614  1.00  0.00    -0.413 A  
HETATM    5  C   UNL     1     -10.518  10.540  69.682  1.00  0.00    -0.257 A  
HETATM    6  C   UNL     1     -10.427   7.729  69.880  1.00  0.00    -0.232 A  
HETATM    7  C   UNL     1      -9.937   8.402  68.765  1.00  0.00    -0.197 A  
HETATM    8  C   UNL     1      -9.771   9.788  68.802  1.00  0.00    -0.165 A  
HETATM    9  C   UNL     1      -9.293  10.288  67.476  1.00  0.00    -0.164 C  
HETATM   10  C   UNL     1     -10.254   9.420  66.646  1.00  0.00    -0.249 C  
HETATM   11  C   UNL     1      -9.942   7.988  67.281  1.00  0.00    -0.282 C  
BRANCH   4  12
HETATM   12  C   UNL     1     -12.570  10.526  71.165  1.00  0.00    -0.520 C  
HETATM   13  C   UNL     1     -12.635  12.052  71.102  1.00  0.00    -0.372 C  
ENDBRANCH   4  12
BRANCH  10  14
HETATM   14  N   UNL     1     -10.273   9.738  65.204  1.00  0.00    -0.251 NA 
HETATM   15  H   UNL     1     -11.122   9.406  64.747  1.00  0.00     0.000 HD 
BRANCH  14  16
HETATM   16  C   UNL     1     -10.066  11.223  65.015  1.00  0.00    -0.279 C  
BRANCH  16  17
HETATM   17  C   UNL     1     -11.103  12.158  65.697  1.00  0.00    -0.316 C  
HETATM   18  H   UNL     1     -13.029  12.428  65.562  1.00  0.00     0.000 HD 
HETATM   19  O   UNL     1     -12.395  11.856  65.144  1.00  0.00    -0.333 OA 
BRANCH  17  20
HETATM   20  C   UNL     1     -10.812  13.666  65.562  1.00  0.00    -0.295 A  
HETATM   21  C   UNL     1     -10.000  14.377  66.478  1.00  0.00    -0.291 A  
HETATM   22  C   UNL     1      -9.207  13.715  67.523  1.00  0.00    -0.218 C  
HETATM   23  C   UNL     1      -8.499  14.417  68.418  1.00  0.00    -0.165 C  
HETATM   24  C   UNL     1      -8.513  15.903  68.409  1.00  0.00    -0.176 C  
HETATM   25  N   UNL     1      -9.201  16.506  67.395  1.00  0.00    -0.215 N  
HETATM   26  O   UNL     1      -7.924  16.541  69.266  1.00  0.00    -0.224 OA 
HETATM   27  H   UNL     1      -9.193  17.525  67.348  1.00  0.00     0.000 HD 
HETATM   28  C   UNL     1      -9.920  15.799  66.410  1.00  0.00    -0.277 A  
HETATM   29  C   UNL     1     -10.586  16.498  65.400  1.00  0.00    -0.276 A  
HETATM   30  C   UNL     1     -11.332  15.808  64.458  1.00  0.00    -0.324 A  
HETATM   31  O   UNL     1     -10.537  17.860  65.268  1.00  0.00    -0.637 OA 
HETATM   32  C   UNL     1     -11.437  14.413  64.532  1.00  0.00    -0.352 A  
HETATM   33  H   UNL     1     -10.990  18.335  64.582  1.00  0.00     0.000 HD 
ENDBRANCH  17  20
ENDBRANCH  16  17
ENDBRANCH  14  16
ENDBRANCH  10  14
ENDBRANCH   2   3
TORSDOF 6
ENDMDL
MODEL       75
REMARK 921   NORMALIZED FREE ENERGY PREDICTED BY IDOCK:   -6.09 KCAL/MOL
REMARK 922        TOTAL FREE ENERGY PREDICTED BY IDOCK:   -9.51 KCAL/MOL
REMARK 923 INTER-LIGAND FREE ENERGY PREDICTED BY IDOCK:   -9.35 KCAL/MOL
REMARK 924 INTRA-LIGAND FREE ENERGY PREDICTED BY IDOCK:   -0.15 KCAL/MOL
REMARK 927      BINDING AFFINITY PREDICTED BY RF-SCORE:    0.00 PKD
ROOT
HETATM    1  C   UNL     1      -5.463  21.077  69.499  1.00  0.00    -0.355 C  
HETATM    2  C   UNL     1      -6.071  21.084  68.107  1.00  0.00    -0.385 C  
ENDROOT
BRANCH   2   3
HETATM    3  C   UNL     1      -6.807  19.847  67.626  1.00  0.00    -0.278 A  
HETATM    4  C   UNL     1      -6.301  19.199  66.462  1.00  0.00    -0.200 A  
HETATM    5  C   UNL     1      -6.669  17.878  66.201  1.00  0.00    -0.315 A  
HETATM    6  C   UNL     1      -8.008  19.366  68.187  1.00  0.00    -0.352 A  
HETATM    7  C   UNL     1      -8.549  18.200  67.655  1.00  0.00    -0.252 A  
HETATM    8  C   UNL     1      -7.760  17.361  66.865  1.00  0.00    -0.249 A  
HETATM    9  C   UNL     1      -8.572  16.211  66.361  1.00  0.00    -0.365 C  
HETATM   10  C   UNL     1      -9.804  17.057  65.999  1.00  0.00    -0.241 C  
HETATM   11  C   UNL     1     -10.018  17.829  67.380  1.00  0.00    -0.323 C  
BRANCH   4  12
HETATM   12  C   UNL     1      -5.574  20.020  65.409  1.00  0.00    -0.197 C  
HETATM   13  C   UNL     1      -6.439  20.681  64.335  1.00  0.00    -0.306 C  
ENDBRANCH   4  12
BRANCH  10  14
HETATM   14  N   UNL     1     -10.846  16.329  65.246  1.00  0.00    -0.439 NA 
HETATM   15  H   UNL     1     -11.075  16.786  64.364  1.00  0.00     0.000 HD 
BRANCH  14  16
HETATM   16  C   UNL     1     -10.413  14.894  65.051  1.00  0.00    -0.401 C  
BRANCH  16  17
HETATM   17  C   UNL     1     -11.549  13.843  64.915  1.00  0.00    -0.359 C  
HETATM   18  H   UNL     1     -13.285  13.556  65.759  1.00  0.00     0.000 HD 
HETATM   19  O   UNL     1     -12.590  14.200  65.842  1.00  0.00    -0.486 OA 
BRANCH  17  20
HETATM   20  C   UNL     1     -11.118  12.380  65.147  1.00  0.00    -0.348 A  
HETATM   21  C   UNL     1     -11.131  11.769  66.424  1.00  0.00    -0.360 A  
HETATM   22  C   UNL     1     -11.734  12.401  67.606  1.00  0.00    -0.412 C  
HETATM   23  C   UNL     1     -11.674  11.828  68.816  1.00  0.00    -0.389 C  
HETATM   24  C   UNL     1     -10.963  10.539  69.018  1.00  0.00    -0.243 C  
HETATM   25  N   UNL     1     -10.463   9.930  67.903  1.00  0.00    -0.219 N  
HETATM   26  O   UNL     1     -10.848  10.053  70.131  1.00  0.00    -0.267 OA 
HETATM   27  H   UNL     1     -10.003   9.027  68.012  1.00  0.00     0.000 HD 
HETATM   28  C   UNL     1     -10.548  10.481  66.607  1.00  0.00    -0.198 A  
HETATM   29  C   UNL     1     -10.019   9.782  65.519  1.00  0.00    -0.259 A  
HETATM   30  C   UNL     1     -10.059  10.343  64.252  1.00  0.00    -0.306 A  
HETATM   31  O   UNL     1      -9.460   8.537  65.624  1.00  0.00    -0.421 OA 
HETATM   32  C   UNL     1     -10.607  11.619  64.067  1.00  0.00    -0.426 A  
HETATM   33  H   UNL     1      -9.100   8.062  64.884  1.00  0.00     0.000 HD 
ENDBRANCH  17  20
ENDBRANCH  16  17
ENDBRANCH  14  16
ENDBRANCH  10  14
ENDBRANCH   2   3
TORSDOF 6
ENDMDL
MODEL       76
REMARK 921   NORMALIZED FREE ENERGY PREDICTED BY IDOCK:   -6.05 KCAL/MOL
REMARK 922        TOTAL FREE ENERGY PREDICTED BY IDOCK:   -9.46 KCAL/MOL
REMARK 923 INTER-LIGAND FREE ENERGY PREDICTED BY IDOCK:   -9.02 KCAL/MOL
REMARK 924 INTRA-LIGAND FREE ENERGY PREDICTED BY IDOCK:   -0.43 KCAL/MOL
REMARK 927      BINDING AFFINITY PREDICTED BY RF-SCORE:    0.00 PKD
ROOT
HETATM    1  C   UNL     1      -7.368   6.657  74.447  1.00  0.00    -0.098 C  
HETATM    2  C   UNL     1      -7.372   8.006  73.745  1.00  0.00    -0.188 C  
ENDROOT
BRANCH   2   3
HETATM    3  C   UNL     1      -8.396   8.257  72.655  1.00  0.00    -0.235 A  
HETATM    4  C   UNL     1      -7.904   8.460  71.333  1.00  0.00    -0.137 A  
HETATM    5  C   UNL     1      -8.770   8.305  70.250  1.00  0.00    -0.139 A  
HETATM    6  C   UNL     1      -9.780   8.408  72.881  1.00  0.00    -0.253 A  
HETATM    7  C   UNL     1     -10.598   8.604  71.773  1.00  0.00    -0.395 A  
HETATM    8  C   UNL     1     -10.127   8.305  70.493  1.00  0.00    -0.210 A  
HETATM    9  C   UNL     1     -11.157   8.654  69.467  1.00  0.00     0.019 C  
HETATM   10  C   UNL     1     -11.534  10.003  70.102  1.00  0.00    -0.277 C  
HETATM   11  C   UNL     1     -11.819   9.527  71.599  1.00  0.00    -0.468 C  
BRANCH   4  12
HETATM   12  C   UNL     1      -6.526   9.072  71.137  1.00  0.00    -0.079 C  
HETATM   13  C   UNL     1      -6.456  10.356  70.310  1.00  0.00    -0.141 C  
ENDBRANCH   4  12
BRANCH  10  14
HETATM   14  N   UNL     1     -12.430  10.838  69.276  1.00  0.00    -0.684 NA 
HETATM   15  H   UNL     1     -13.216  11.207  69.811  1.00  0.00     0.000 HD 
BRANCH  14  16
HETATM   16  C   UNL     1     -11.626  11.933  68.612  1.00  0.00    -0.310 C  
BRANCH  16  17
HETATM   17  C   UNL     1     -11.170  11.665  67.151  1.00  0.00    -0.309 C  
HETATM   18  H   UNL     1      -9.564  10.949  66.307  1.00  0.00     0.000 HD 
HETATM   19  O   UNL     1      -9.843  11.112  67.201  1.00  0.00    -0.183 OA 
BRANCH  17  20
HETATM   20  C   UNL     1     -11.192  12.897  66.224  1.00  0.00    -0.337 A  
HETATM   21  C   UNL     1     -10.614  14.139  66.582  1.00  0.00    -0.278 A  
HETATM   22  C   UNL     1      -9.778  14.315  67.778  1.00  0.00    -0.222 C  
HETATM   23  C   UNL     1      -9.298  15.516  68.128  1.00  0.00    -0.197 C  
HETATM   24  C   UNL     1      -9.621  16.731  67.336  1.00  0.00    -0.236 C  
HETATM   25  N   UNL     1     -10.345  16.545  66.192  1.00  0.00    -0.331 N  
HETATM   26  O   UNL     1      -9.243  17.834  67.694  1.00  0.00    -0.246 OA 
HETATM   27  H   UNL     1     -10.547  17.359  65.612  1.00  0.00     0.000 HD 
HETATM   28  C   UNL     1     -10.827  15.289  65.768  1.00  0.00    -0.358 A  
HETATM   29  C   UNL     1     -11.550  15.189  64.576  1.00  0.00    -0.329 A  
HETATM   30  C   UNL     1     -12.065  13.965  64.181  1.00  0.00    -0.464 A  
HETATM   31  O   UNL     1     -11.776  16.250  63.742  1.00  0.00    -1.511 OA 
HETATM   32  C   UNL     1     -11.882  12.834  64.988  1.00  0.00    -0.423 A  
HETATM   33  H   UNL     1     -12.268  16.182  62.932  1.00  0.00     0.000 HD 
ENDBRANCH  17  20
ENDBRANCH  16  17
ENDBRANCH  14  16
ENDBRANCH  10  14
ENDBRANCH   2   3
TORSDOF 6
ENDMDL
MODEL       77
REMARK 921   NORMALIZED FREE ENERGY PREDICTED BY IDOCK:   -6.05 KCAL/MOL
REMARK 922        TOTAL FREE ENERGY PREDICTED BY IDOCK:   -9.45 KCAL/MOL
REMARK 923 INTER-LIGAND FREE ENERGY PREDICTED BY IDOCK:   -8.34 KCAL/MOL
REMARK 924 INTRA-LIGAND FREE ENERGY PREDICTED BY IDOCK:   -1.10 KCAL/MOL
REMARK 927      BINDING AFFINITY PREDICTED BY RF-SCORE:    0.00 PKD
ROOT
HETATM    1  C   UNL     1      -6.336   5.507  68.630  1.00  0.00    -0.041 C  
HETATM    2  C   UNL     1      -6.995   6.199  69.811  1.00  0.00    -0.070 C  
ENDROOT
BRANCH   2   3
HETATM    3  C   UNL     1      -7.866   7.413  69.551  1.00  0.00    -0.121 A  
HETATM    4  C   UNL     1      -9.020   7.575  70.372  1.00  0.00    -0.152 A  
HETATM    5  C   UNL     1      -9.628   8.829  70.457  1.00  0.00    -0.226 A  
HETATM    6  C   UNL     1      -7.670   8.322  68.491  1.00  0.00    -0.112 A  
HETATM    7  C   UNL     1      -8.537   9.407  68.400  1.00  0.00    -0.124 A  
HETATM    8  C   UNL     1      -9.320   9.770  69.498  1.00  0.00    -0.226 A  
HETATM    9  C   UNL     1     -10.210  10.918  69.143  1.00  0.00    -0.215 C  
HETATM   10  C   UNL     1     -10.616  10.359  67.769  1.00  0.00    -0.250 C  
HETATM   11  C   UNL     1      -9.170  10.063  67.158  1.00  0.00    -0.161 C  
BRANCH   4  12
HETATM   12  C   UNL     1      -9.707   6.345  70.943  1.00  0.00    -0.193 C  
HETATM   13  C   UNL     1     -10.774   5.686  70.070  1.00  0.00    -0.390 C  
ENDBRANCH   4  12
BRANCH  10  14
HETATM   14  N   UNL     1     -11.698  11.109  67.099  1.00  0.00    -0.447 NA 
HETATM   15  H   UNL     1     -12.492  11.276  67.717  1.00  0.00     0.000 HD 
BRANCH  14  16
HETATM   16  C   UNL     1     -11.139  12.393  66.528  1.00  0.00    -0.301 C  
BRANCH  16  17
HETATM   17  C   UNL     1     -12.059  13.643  66.610  1.00  0.00    -0.411 C  
HETATM   18  H   UNL     1     -12.963  14.788  65.316  1.00  0.00     0.000 HD 
HETATM   19  O   UNL     1     -12.401  14.023  65.266  1.00  0.00    -0.419 OA 
BRANCH  17  20
HETATM   20  C   UNL     1     -11.458  14.848  67.361  1.00  0.00    -0.354 A  
HETATM   21  C   UNL     1     -11.647  15.060  68.748  1.00  0.00    -0.357 A  
HETATM   22  C   UNL     1     -12.262  14.060  69.633  1.00  0.00    -0.383 C  
HETATM   23  C   UNL     1     -12.486  14.313  70.929  1.00  0.00    -0.424 C  
HETATM   24  C   UNL     1     -12.152  15.635  71.520  1.00  0.00    -0.425 C  
HETATM   25  N   UNL     1     -11.522  16.532  70.705  1.00  0.00    -0.529 N  
HETATM   26  O   UNL     1     -12.421  15.888  72.683  1.00  0.00    -0.402 OA 
HETATM   27  H   UNL     1     -11.250  17.432  71.100  1.00  0.00     0.000 HD 
HETATM   28  C   UNL     1     -11.228  16.283  69.349  1.00  0.00    -0.311 A  
HETATM   29  C   UNL     1     -10.570  17.255  68.591  1.00  0.00    -0.329 A  
HETATM   30  C   UNL     1     -10.322  17.032  67.246  1.00  0.00    -0.311 A  
HETATM   31  O   UNL     1     -10.129  18.443  69.110  1.00  0.00    -0.388 OA 
HETATM   32  C   UNL     1     -10.752  15.844  66.642  1.00  0.00    -0.270 A  
HETATM   33  H   UNL     1      -9.682  19.104  68.595  1.00  0.00     0.000 HD 
ENDBRANCH  17  20
ENDBRANCH  16  17
ENDBRANCH  14  16
ENDBRANCH  10  14
ENDBRANCH   2   3
TORSDOF 6
ENDMDL
MODEL       78
REMARK 921   NORMALIZED FREE ENERGY PREDICTED BY IDOCK:   -6.05 KCAL/MOL
REMARK 922        TOTAL FREE ENERGY PREDICTED BY IDOCK:   -9.44 KCAL/MOL
REMARK 923 INTER-LIGAND FREE ENERGY PREDICTED BY IDOCK:   -7.91 KCAL/MOL
REMARK 924 INTRA-LIGAND FREE ENERGY PREDICTED BY IDOCK:   -1.53 KCAL/MOL
REMARK 927      BINDING AFFINITY PREDICTED BY RF-SCORE:    0.00 PKD
ROOT
HETATM    1  C   UNL     1     -14.395  14.115  72.098  1.00  0.00    -0.606 C  
HETATM    2  C   UNL     1     -13.044  13.421  72.047  1.00  0.00    -0.473 C  
ENDROOT
BRANCH   2   3
HETATM    3  C   UNL     1     -12.449  13.083  70.694  1.00  0.00    -0.347 A  
HETATM    4  C   UNL     1     -12.319  11.702  70.366  1.00  0.00    -0.373 A  
HETATM    5  C   UNL     1     -12.159  11.328  69.031  1.00  0.00    -0.325 A  
HETATM    6  C   UNL     1     -11.922  14.032  69.795  1.00  0.00    -0.393 A  
HETATM    7  C   UNL     1     -11.437  13.570  68.575  1.00  0.00    -0.345 A  
HETATM    8  C   UNL     1     -11.785  12.295  68.123  1.00  0.00    -0.408 A  
HETATM    9  C   UNL     1     -11.098  12.000  66.828  1.00  0.00    -0.353 C  
HETATM   10  C   UNL     1      -9.736  12.568  67.260  1.00  0.00    -0.202 C  
HETATM   11  C   UNL     1     -10.195  14.008  67.777  1.00  0.00    -0.240 C  
BRANCH   4  12
HETATM   12  C   UNL     1     -12.117  10.687  71.480  1.00  0.00    -0.261 C  
HETATM   13  C   UNL     1     -13.275   9.728  71.755  1.00  0.00    -0.532 C  
ENDBRANCH   4  12
BRANCH  10  14
HETATM   14  N   UNL     1      -8.634  12.302  66.312  1.00  0.00    -0.405 NA 
HETATM   15  H   UNL     1      -8.029  13.113  66.187  1.00  0.00     0.000 HD 
BRANCH  14  16
HETATM   16  C   UNL     1      -7.867  11.081  66.765  1.00  0.00    -0.149 C  
BRANCH  16  17
HETATM   17  C   UNL     1      -8.198   9.749  66.037  1.00  0.00    -0.117 C  
HETATM   18  H   UNL     1      -9.200   9.251  64.439  1.00  0.00     0.000 HD 
HETATM   19  O   UNL     1      -8.998  10.066  64.884  1.00  0.00    -0.173 OA 
BRANCH  17  20
HETATM   20  C   UNL     1      -8.916   8.692  66.900  1.00  0.00    -0.161 A  
HETATM   21  C   UNL     1      -9.004   7.328  66.530  1.00  0.00    -0.175 A  
HETATM   22  C   UNL     1      -8.261   6.759  65.397  1.00  0.00    -0.134 C  
HETATM   23  C   UNL     1      -8.413   5.480  65.029  1.00  0.00    -0.147 C  
HETATM   24  C   UNL     1      -9.370   4.589  65.735  1.00  0.00    -0.162 C  
HETATM   25  N   UNL     1     -10.007   5.110  66.825  1.00  0.00    -0.182 N  
HETATM   26  O   UNL     1      -9.560   3.445  65.356  1.00  0.00    -0.158 OA 
HETATM   27  H   UNL     1     -10.640   4.505  67.347  1.00  0.00     0.000 HD 
HETATM   28  C   UNL     1      -9.836   6.438  67.269  1.00  0.00    -0.138 A  
HETATM   29  C   UNL     1     -10.520   6.884  68.403  1.00  0.00    -0.204 A  
HETATM   30  C   UNL     1     -10.390   8.201  68.814  1.00  0.00    -0.220 A  
HETATM   31  O   UNL     1     -11.321   6.078  69.165  1.00  0.00    -0.364 OA 
HETATM   32  C   UNL     1      -9.595   9.090  68.078  1.00  0.00    -0.166 A  
HETATM   33  H   UNL     1     -11.786   6.381  69.936  1.00  0.00     0.000 HD 
ENDBRANCH  17  20
ENDBRANCH  16  17
ENDBRANCH  14  16
ENDBRANCH  10  14
ENDBRANCH   2   3
TORSDOF 6
ENDMDL
MODEL       79
REMARK 921   NORMALIZED FREE ENERGY PREDICTED BY IDOCK:   -6.00 KCAL/MOL
REMARK 922        TOTAL FREE ENERGY PREDICTED BY IDOCK:   -9.39 KCAL/MOL
REMARK 923 INTER-LIGAND FREE ENERGY PREDICTED BY IDOCK:   -8.66 KCAL/MOL
REMARK 924 INTRA-LIGAND FREE ENERGY PREDICTED BY IDOCK:   -0.73 KCAL/MOL
REMARK 927      BINDING AFFINITY PREDICTED BY RF-SCORE:    0.00 PKD
ROOT
HETATM    1  C   UNL     1      -5.940  20.868  66.281  1.00  0.00    -0.288 C  
HETATM    2  C   UNL     1      -7.032  20.944  67.335  1.00  0.00    -0.426 C  
ENDROOT
BRANCH   2   3
HETATM    3  C   UNL     1      -8.040  19.814  67.421  1.00  0.00    -0.332 A  
HETATM    4  C   UNL     1      -7.842  18.841  68.444  1.00  0.00    -0.351 A  
HETATM    5  C   UNL     1      -8.908  18.025  68.827  1.00  0.00    -0.210 A  
HETATM    6  C   UNL     1      -9.086  19.606  66.499  1.00  0.00    -0.436 A  
HETATM    7  C   UNL     1      -9.950  18.540  66.729  1.00  0.00    -0.381 A  
HETATM    8  C   UNL     1      -9.998  17.939  67.989  1.00  0.00    -0.333 A  
HETATM    9  C   UNL     1     -10.949  16.785  67.976  1.00  0.00    -0.296 C  
HETATM   10  C   UNL     1     -10.475  16.229  66.622  1.00  0.00    -0.290 C  
HETATM   11  C   UNL     1     -10.585  17.551  65.733  1.00  0.00    -0.176 C  
BRANCH   4  12
HETATM   12  C   UNL     1      -6.431  18.543  68.926  1.00  0.00    -0.254 C  
HETATM   13  C   UNL     1      -6.188  17.157  69.525  1.00  0.00    -0.242 C  
ENDBRANCH   4  12
BRANCH  10  14
HETATM   14  N   UNL     1     -11.034  14.907  66.275  1.00  0.00    -0.335 NA 
HETATM   15  H   UNL     1     -11.517  14.915  65.377  1.00  0.00     0.000 HD 
BRANCH  14  16
HETATM   16  C   UNL     1      -9.935  13.870  66.322  1.00  0.00    -0.306 C  
BRANCH  16  17
HETATM   17  C   UNL     1      -9.904  12.954  67.577  1.00  0.00    -0.208 C  
HETATM   18  H   UNL     1      -8.620  12.589  68.999  1.00  0.00     0.000 HD 
HETATM   19  O   UNL     1      -8.639  13.150  68.232  1.00  0.00    -0.173 OA 
BRANCH  17  20
HETATM   20  C   UNL     1     -10.124  11.453  67.297  1.00  0.00    -0.218 A  
HETATM   21  C   UNL     1     -10.598  10.550  68.279  1.00  0.00    -0.240 A  
HETATM   22  C   UNL     1     -11.105  10.987  69.587  1.00  0.00    -0.320 C  
HETATM   23  C   UNL     1     -11.486  10.106  70.522  1.00  0.00    -0.417 C  
HETATM   24  C   UNL     1     -11.380   8.643  70.285  1.00  0.00    -0.136 C  
HETATM   25  N   UNL     1     -10.969   8.250  69.043  1.00  0.00    -0.429 N  
HETATM   26  O   UNL     1     -11.661   7.843  71.161  1.00  0.00    -0.281 OA 
HETATM   27  H   UNL     1     -10.924   7.250  68.845  1.00  0.00     0.000 HD 
HETATM   28  C   UNL     1     -10.603   9.148  68.019  1.00  0.00    -0.197 A  
HETATM   29  C   UNL     1     -10.205   8.657  66.773  1.00  0.00    -0.291 A  
HETATM   30  C   UNL     1      -9.801   9.536  65.781  1.00  0.00    -0.363 A  
HETATM   31  O   UNL     1     -10.203   7.326  66.455  1.00  0.00    -0.464 OA 
HETATM   32  C   UNL     1      -9.768  10.913  66.036  1.00  0.00    -0.268 A  
HETATM   33  H   UNL     1      -9.931   6.992  65.608  1.00  0.00     0.000 HD 
ENDBRANCH  17  20
ENDBRANCH  16  17
ENDBRANCH  14  16
ENDBRANCH  10  14
ENDBRANCH   2   3
TORSDOF 6
ENDMDL
MODEL       80
REMARK 921   NORMALIZED FREE ENERGY PREDICTED BY IDOCK:   -6.00 KCAL/MOL
REMARK 922        TOTAL FREE ENERGY PREDICTED BY IDOCK:   -9.38 KCAL/MOL
REMARK 923 INTER-LIGAND FREE ENERGY PREDICTED BY IDOCK:   -8.57 KCAL/MOL
REMARK 924 INTRA-LIGAND FREE ENERGY PREDICTED BY IDOCK:   -0.81 KCAL/MOL
REMARK 927      BINDING AFFINITY PREDICTED BY RF-SCORE:    0.00 PKD
ROOT
HETATM    1  C   UNL     1      -9.512   4.225  66.816  1.00  0.00    -0.202 C  
HETATM    2  C   UNL     1     -10.641   5.008  67.467  1.00  0.00    -0.019 C  
ENDROOT
BRANCH   2   3
HETATM    3  C   UNL     1     -10.373   6.432  67.917  1.00  0.00    -0.234 A  
HETATM    4  C   UNL     1     -10.222   6.655  69.317  1.00  0.00    -0.206 A  
HETATM    5  C   UNL     1      -9.601   7.824  69.760  1.00  0.00    -0.167 A  
HETATM    6  C   UNL     1     -10.373   7.552  67.061  1.00  0.00    -0.395 A  
HETATM    7  C   UNL     1     -10.081   8.793  67.619  1.00  0.00    -0.273 A  
HETATM    8  C   UNL     1      -9.469   8.869  68.872  1.00  0.00    -0.152 A  
HETATM    9  C   UNL     1      -9.314  10.298  69.285  1.00  0.00    -0.221 C  
HETATM   10  C   UNL     1     -10.719  10.728  68.833  1.00  0.00    -0.222 C  
HETATM   11  C   UNL     1     -10.703  10.173  67.335  1.00  0.00    -0.336 C  
BRANCH   4  12
HETATM   12  C   UNL     1     -10.945   5.747  70.299  1.00  0.00    -0.347 C  
HETATM   13  C   UNL     1     -10.084   5.046  71.349  1.00  0.00    -0.268 C  
ENDBRANCH   4  12
BRANCH  10  14
HETATM   14  N   UNL     1     -11.102  12.095  69.243  1.00  0.00    -0.392 NA 
HETATM   15  H   UNL     1     -11.464  12.125  70.195  1.00  0.00     0.000 HD 
BRANCH  14  16
HETATM   16  C   UNL     1      -9.926  13.024  69.048  1.00  0.00     0.234 C  
BRANCH  16  17
HETATM   17  C   UNL     1     -10.253  14.540  68.947  1.00  0.00    -0.229 C  
HETATM   18  H   UNL     1     -11.622  15.717  69.684  1.00  0.00     0.000 HD 
HETATM   19  O   UNL     1     -11.422  14.790  69.746  1.00  0.00    -0.264 OA 
BRANCH  17  20
HETATM   20  C   UNL     1     -10.472  15.068  67.515  1.00  0.00    -0.256 A  
HETATM   21  C   UNL     1     -10.372  16.440  67.180  1.00  0.00    -0.290 A  
HETATM   22  C   UNL     1      -9.866  17.457  68.113  1.00  0.00    -0.301 C  
HETATM   23  C   UNL     1      -9.844  18.757  67.791  1.00  0.00    -0.375 C  
HETATM   24  C   UNL     1     -10.365  19.230  66.482  1.00  0.00    -0.450 C  
HETATM   25  N   UNL     1     -10.772  18.272  65.598  1.00  0.00    -0.236 N  
HETATM   26  O   UNL     1     -10.409  20.420  66.217  1.00  0.00    -0.338 OA 
HETATM   27  H   UNL     1     -11.099  18.571  64.680  1.00  0.00     0.000 HD 
HETATM   28  C   UNL     1     -10.766  16.891  65.886  1.00  0.00    -0.149 A  
HETATM   29  C   UNL     1     -11.191  15.978  64.917  1.00  0.00    -0.312 A  
HETATM   30  C   UNL     1     -11.230  14.625  65.213  1.00  0.00    -0.358 A  
HETATM   31  O   UNL     1     -11.566  16.343  63.652  1.00  0.00    -1.514 OA 
HETATM   32  C   UNL     1     -10.869  14.176  66.489  1.00  0.00    -0.298 A  
HETATM   33  H   UNL     1     -11.855  15.722  62.993  1.00  0.00     0.000 HD 
ENDBRANCH  17  20
ENDBRANCH  16  17
ENDBRANCH  14  16
ENDBRANCH  10  14
ENDBRANCH   2   3
TORSDOF 6
ENDMDL
MODEL       81
REMARK 921   NORMALIZED FREE ENERGY PREDICTED BY IDOCK:   -5.97 KCAL/MOL
REMARK 922        TOTAL FREE ENERGY PREDICTED BY IDOCK:   -9.35 KCAL/MOL
REMARK 923 INTER-LIGAND FREE ENERGY PREDICTED BY IDOCK:   -8.49 KCAL/MOL
REMARK 924 INTRA-LIGAND FREE ENERGY PREDICTED BY IDOCK:   -0.85 KCAL/MOL
REMARK 927      BINDING AFFINITY PREDICTED BY RF-SCORE:    0.00 PKD
ROOT
HETATM    1  C   UNL     1      -5.775  19.719  70.999  1.00  0.00    -0.300 C  
HETATM    2  C   UNL     1      -5.891  19.589  69.489  1.00  0.00    -0.285 C  
ENDROOT
BRANCH   2   3
HETATM    3  C   UNL     1      -7.119  18.914  68.908  1.00  0.00    -0.354 A  
HETATM    4  C   UNL     1      -7.103  17.492  68.824  1.00  0.00    -0.248 A  
HETATM    5  C   UNL     1      -8.308  16.802  68.679  1.00  0.00    -0.252 A  
HETATM    6  C   UNL     1      -8.218  19.601  68.353  1.00  0.00    -0.350 A  
HETATM    7  C   UNL     1      -9.287  18.843  67.885  1.00  0.00    -0.338 A  
HETATM    8  C   UNL     1      -9.420  17.509  68.276  1.00  0.00    -0.296 A  
HETATM    9  C   UNL     1     -10.602  16.888  67.602  1.00  0.00    -0.325 C  
HETATM   10  C   UNL     1     -10.312  17.499  66.221  1.00  0.00    -0.335 C  
HETATM   11  C   UNL     1     -10.160  19.035  66.632  1.00  0.00    -0.453 C  
BRANCH   4  12
HETATM   12  C   UNL     1      -5.776  16.770  68.652  1.00  0.00    -0.124 C  
HETATM   13  C   UNL     1      -5.703  15.721  67.542  1.00  0.00    -0.112 C  
ENDBRANCH   4  12
BRANCH  10  14
HETATM   14  N   UNL     1     -11.161  16.977  65.131  1.00  0.00    -0.399 NA 
HETATM   15  H   UNL     1     -11.203  17.614  64.336  1.00  0.00     0.000 HD 
BRANCH  14  16
HETATM   16  C   UNL     1     -10.679  15.600  64.735  1.00  0.00    -0.276 C  
BRANCH  16  17
HETATM   17  C   UNL     1     -11.748  14.473  64.717  1.00  0.00    -0.422 C  
HETATM   18  H   UNL     1     -13.276  13.990  65.828  1.00  0.00     0.000 HD 
HETATM   19  O   UNL     1     -12.623  14.680  65.839  1.00  0.00    -0.195 OA 
BRANCH  17  20
HETATM   20  C   UNL     1     -11.185  13.037  64.746  1.00  0.00    -0.344 A  
HETATM   21  C   UNL     1     -10.538  12.490  65.880  1.00  0.00    -0.292 A  
HETATM   22  C   UNL     1     -10.512  13.161  67.187  1.00  0.00    -0.247 C  
HETATM   23  C   UNL     1      -9.837  12.651  68.225  1.00  0.00    -0.227 C  
HETATM   24  C   UNL     1      -9.053  11.395  68.087  1.00  0.00    -0.174 C  
HETATM   25  N   UNL     1      -9.137  10.747  66.888  1.00  0.00    -0.148 N  
HETATM   26  O   UNL     1      -8.382  10.968  69.012  1.00  0.00    -0.147 OA 
HETATM   27  H   UNL     1      -8.638   9.864  66.782  1.00  0.00     0.000 HD 
HETATM   28  C   UNL     1      -9.875  11.231  65.787  1.00  0.00    -0.232 A  
HETATM   29  C   UNL     1      -9.915  10.495  64.600  1.00  0.00    -0.347 A  
HETATM   30  C   UNL     1     -10.601  10.991  63.503  1.00  0.00    -0.303 A  
HETATM   31  O   UNL     1      -9.315   9.274  64.450  1.00  0.00    -0.433 OA 
HETATM   32  C   UNL     1     -11.233  12.239  63.577  1.00  0.00    -0.535 A  
HETATM   33  H   UNL     1      -9.341   8.775  63.643  1.00  0.00     0.000 HD 
ENDBRANCH  17  20
ENDBRANCH  16  17
ENDBRANCH  14  16
ENDBRANCH  10  14
ENDBRANCH   2   3
TORSDOF 6
ENDMDL
MODEL       82
REMARK 921   NORMALIZED FREE ENERGY PREDICTED BY IDOCK:   -5.97 KCAL/MOL
REMARK 922        TOTAL FREE ENERGY PREDICTED BY IDOCK:   -9.34 KCAL/MOL
REMARK 923 INTER-LIGAND FREE ENERGY PREDICTED BY IDOCK:   -8.54 KCAL/MOL
REMARK 924 INTRA-LIGAND FREE ENERGY PREDICTED BY IDOCK:   -0.80 KCAL/MOL
REMARK 927      BINDING AFFINITY PREDICTED BY RF-SCORE:    0.00 PKD
ROOT
HETATM    1  C   UNL     1     -10.864  16.567  65.095  1.00  0.00    -0.247 C  
HETATM    2  C   UNL     1     -11.330  15.148  64.810  1.00  0.00    -0.399 C  
ENDROOT
BRANCH   2   3
HETATM    3  C   UNL     1     -11.317  14.137  65.941  1.00  0.00    -0.323 A  
HETATM    4  C   UNL     1     -11.737  12.810  65.633  1.00  0.00    -0.443 A  
HETATM    5  C   UNL     1     -11.386  11.766  66.490  1.00  0.00    -0.370 A  
HETATM    6  C   UNL     1     -11.024  14.447  67.284  1.00  0.00    -0.301 A  
HETATM    7  C   UNL     1     -11.023  13.404  68.204  1.00  0.00    -0.277 A  
HETATM    8  C   UNL     1     -10.957  12.081  67.761  1.00  0.00    -0.279 A  
HETATM    9  C   UNL     1     -11.032  11.141  68.921  1.00  0.00    -0.276 C  
HETATM   10  C   UNL     1     -12.162  11.898  69.640  1.00  0.00    -0.153 C  
HETATM   11  C   UNL     1     -11.537  13.367  69.656  1.00  0.00    -0.334 C  
BRANCH   4  12
HETATM   12  C   UNL     1     -12.752  12.589  64.523  1.00  0.00    -0.440 C  
HETATM   13  C   UNL     1     -12.249  11.884  63.263  1.00  0.00    -0.487 C  
ENDBRANCH   4  12
BRANCH  10  14
HETATM   14  N   UNL     1     -12.728  11.188  70.805  1.00  0.00    -0.320 NA 
HETATM   15  H   UNL     1     -13.657  10.814  70.616  1.00  0.00     0.000 HD 
BRANCH  14  16
HETATM   16  C   UNL     1     -11.762  10.116  71.257  1.00  0.00    -0.341 C  
BRANCH  16  17
HETATM   17  C   UNL     1     -12.352   8.691  71.446  1.00  0.00    -0.304 C  
HETATM   18  H   UNL     1     -13.773   7.908  72.527  1.00  0.00     0.000 HD 
HETATM   19  O   UNL     1     -13.413   8.779  72.412  1.00  0.00    -0.403 OA 
BRANCH  17  20
HETATM   20  C   UNL     1     -11.335   7.615  71.879  1.00  0.00    -0.308 A  
HETATM   21  C   UNL     1     -10.846   6.622  70.996  1.00  0.00    -0.289 A  
HETATM   22  C   UNL     1     -11.107   6.639  69.550  1.00  0.00    -0.378 C  
HETATM   23  C   UNL     1     -10.686   5.651  68.749  1.00  0.00    -0.267 C  
HETATM   24  C   UNL     1      -9.963   4.475  69.298  1.00  0.00    -0.122 C  
HETATM   25  N   UNL     1      -9.669   4.501  70.632  1.00  0.00    -0.196 N  
HETATM   26  O   UNL     1      -9.642   3.543  68.579  1.00  0.00    -0.163 OA 
HETATM   27  H   UNL     1      -9.141   3.722  71.024  1.00  0.00     0.000 HD 
HETATM   28  C   UNL     1     -10.056   5.545  71.497  1.00  0.00    -0.205 A  
HETATM   29  C   UNL     1      -9.702   5.496  72.848  1.00  0.00    -0.154 A  
HETATM   30  C   UNL     1     -10.121   6.497  73.709  1.00  0.00    -0.297 A  
HETATM   31  O   UNL     1      -8.934   4.500  73.388  1.00  0.00    -0.105 OA 
HETATM   32  C   UNL     1     -10.919   7.545  73.231  1.00  0.00    -0.362 A  
HETATM   33  H   UNL     1      -8.694   4.466  74.307  1.00  0.00     0.000 HD 
ENDBRANCH  17  20
ENDBRANCH  16  17
ENDBRANCH  14  16
ENDBRANCH  10  14
ENDBRANCH   2   3
TORSDOF 6
ENDMDL
MODEL       83
REMARK 921   NORMALIZED FREE ENERGY PREDICTED BY IDOCK:   -5.96 KCAL/MOL
REMARK 922        TOTAL FREE ENERGY PREDICTED BY IDOCK:   -9.33 KCAL/MOL
REMARK 923 INTER-LIGAND FREE ENERGY PREDICTED BY IDOCK:   -7.46 KCAL/MOL
REMARK 924 INTRA-LIGAND FREE ENERGY PREDICTED BY IDOCK:   -1.87 KCAL/MOL
REMARK 927      BINDING AFFINITY PREDICTED BY RF-SCORE:    0.00 PKD
ROOT
HETATM    1  C   UNL     1     -13.958  14.143  72.318  1.00  0.00    -0.646 C  
HETATM    2  C   UNL     1     -13.177  12.875  72.011  1.00  0.00    -0.549 C  
ENDROOT
BRANCH   2   3
HETATM    3  C   UNL     1     -12.499  12.746  70.660  1.00  0.00    -0.328 A  
HETATM    4  C   UNL     1     -12.281  11.428  70.164  1.00  0.00    -0.401 A  
HETATM    5  C   UNL     1     -12.035  11.243  68.802  1.00  0.00    -0.350 A  
HETATM    6  C   UNL     1     -11.978  13.830  69.923  1.00  0.00    -0.412 A  
HETATM    7  C   UNL     1     -11.410  13.555  68.684  1.00  0.00    -0.323 A  
HETATM    8  C   UNL     1     -11.668  12.337  68.050  1.00  0.00    -0.417 A  
HETATM    9  C   UNL     1     -10.903  12.248  66.768  1.00  0.00    -0.291 C  
HETATM   10  C   UNL     1      -9.596  12.814  67.347  1.00  0.00    -0.199 C  
HETATM   11  C   UNL     1     -10.154  14.151  68.020  1.00  0.00    -0.233 C  
BRANCH   4  12
HETATM   12  C   UNL     1     -12.082  10.285  71.146  1.00  0.00    -0.494 C  
HETATM   13  C   UNL     1     -10.783   9.488  71.018  1.00  0.00    -0.411 C  
ENDBRANCH   4  12
BRANCH  10  14
HETATM   14  N   UNL     1      -8.436  12.727  66.436  1.00  0.00    -0.394 NA 
HETATM   15  H   UNL     1      -8.078  13.645  66.176  1.00  0.00     0.000 HD 
BRANCH  14  16
HETATM   16  C   UNL     1      -7.371  11.855  67.062  1.00  0.00    -0.118 C  
BRANCH  16  17
HETATM   17  C   UNL     1      -7.567  11.496  68.561  1.00  0.00    -0.130 C  
HETATM   18  H   UNL     1      -6.779  12.085  70.245  1.00  0.00     0.000 HD 
HETATM   19  O   UNL     1      -6.660  12.305  69.329  1.00  0.00    -0.102 OA 
BRANCH  17  20
HETATM   20  C   UNL     1      -7.365  10.007  68.908  1.00  0.00    -0.080 A  
HETATM   21  C   UNL     1      -8.300   9.003  68.558  1.00  0.00    -0.124 A  
HETATM   22  C   UNL     1      -9.444   9.252  67.670  1.00  0.00    -0.156 C  
HETATM   23  C   UNL     1     -10.350   8.300  67.407  1.00  0.00    -0.350 C  
HETATM   24  C   UNL     1     -10.251   6.956  68.033  1.00  0.00    -0.176 C  
HETATM   25  N   UNL     1      -9.150   6.716  68.805  1.00  0.00    -0.131 N  
HETATM   26  O   UNL     1     -11.113   6.113  67.849  1.00  0.00    -0.328 OA 
HETATM   27  H   UNL     1      -9.042   5.788  69.215  1.00  0.00     0.000 HD 
HETATM   28  C   UNL     1      -8.153   7.679  69.066  1.00  0.00    -0.126 A  
HETATM   29  C   UNL     1      -7.052   7.343  69.858  1.00  0.00    -0.065 A  
HETATM   30  C   UNL     1      -6.096   8.301  70.154  1.00  0.00    -0.031 A  
HETATM   31  O   UNL     1      -6.844   6.088  70.363  1.00  0.00    -0.050 OA 
HETATM   32  C   UNL     1      -6.245   9.611  69.681  1.00  0.00    -0.044 A  
HETATM   33  H   UNL     1      -6.096   5.859  70.902  1.00  0.00     0.000 HD 
ENDBRANCH  17  20
ENDBRANCH  16  17
ENDBRANCH  14  16
ENDBRANCH  10  14
ENDBRANCH   2   3
TORSDOF 6
ENDMDL
MODEL       84
REMARK 921   NORMALIZED FREE ENERGY PREDICTED BY IDOCK:   -5.95 KCAL/MOL
REMARK 922        TOTAL FREE ENERGY PREDICTED BY IDOCK:   -9.31 KCAL/MOL
REMARK 923 INTER-LIGAND FREE ENERGY PREDICTED BY IDOCK:   -7.88 KCAL/MOL
REMARK 924 INTRA-LIGAND FREE ENERGY PREDICTED BY IDOCK:   -1.43 KCAL/MOL
REMARK 927      BINDING AFFINITY PREDICTED BY RF-SCORE:    0.00 PKD
ROOT
HETATM    1  C   UNL     1     -10.597   5.381  66.651  1.00  0.00    -0.359 C  
HETATM    2  C   UNL     1     -11.024   6.765  67.112  1.00  0.00    -0.458 C  
ENDROOT
BRANCH   2   3
HETATM    3  C   UNL     1      -9.958   7.741  67.571  1.00  0.00    -0.242 A  
HETATM    4  C   UNL     1      -9.651   7.764  68.963  1.00  0.00    -0.155 A  
HETATM    5  C   UNL     1      -8.447   8.329  69.388  1.00  0.00    -0.123 A  
HETATM    6  C   UNL     1      -9.335   8.693  66.736  1.00  0.00    -0.229 A  
HETATM    7  C   UNL     1      -8.352   9.501  67.298  1.00  0.00    -0.125 A  
HETATM    8  C   UNL     1      -7.763   9.144  68.513  1.00  0.00    -0.093 A  
HETATM    9  C   UNL     1      -6.785  10.191  68.942  1.00  0.00    -0.053 C  
HETATM   10  C   UNL     1      -7.691  11.381  68.583  1.00  0.00    -0.137 C  
HETATM   11  C   UNL     1      -8.060  10.997  67.077  1.00  0.00    -0.136 C  
BRANCH   4  12
HETATM   12  C   UNL     1     -10.730   7.400  69.970  1.00  0.00    -0.258 C  
HETATM   13  C   UNL     1     -11.375   8.556  70.735  1.00  0.00    -0.296 C  
ENDBRANCH   4  12
BRANCH  10  14
HETATM   14  N   UNL     1      -7.186  12.693  69.040  1.00  0.00    -0.270 NA 
HETATM   15  H   UNL     1      -6.437  12.601  69.726  1.00  0.00     0.000 HD 
BRANCH  14  16
HETATM   16  C   UNL     1      -6.765  13.513  67.842  1.00  0.00    -0.150 C  
BRANCH  16  17
HETATM   17  C   UNL     1      -7.527  14.848  67.617  1.00  0.00    -0.185 C  
HETATM   18  H   UNL     1      -7.221  16.717  68.084  1.00  0.00     0.000 HD 
HETATM   19  O   UNL     1      -6.755  15.901  68.221  1.00  0.00    -0.111 OA 
BRANCH  17  20
HETATM   20  C   UNL     1      -8.970  14.878  68.160  1.00  0.00    -0.176 A  
HETATM   21  C   UNL     1     -10.083  14.430  67.408  1.00  0.00    -0.243 A  
HETATM   22  C   UNL     1      -9.949  13.723  66.126  1.00  0.00    -0.318 C  
HETATM   23  C   UNL     1     -11.020  13.370  65.404  1.00  0.00    -0.297 C  
HETATM   24  C   UNL     1     -12.394  13.709  65.856  1.00  0.00    -0.471 C  
HETATM   25  N   UNL     1     -12.510  14.308  67.078  1.00  0.00    -0.543 N  
HETATM   26  O   UNL     1     -13.365  13.449  65.165  1.00  0.00    -0.611 OA 
HETATM   27  H   UNL     1     -13.446  14.517  67.425  1.00  0.00     0.000 HD 
HETATM   28  C   UNL     1     -11.407  14.654  67.887  1.00  0.00    -0.315 A  
HETATM   29  C   UNL     1     -11.618  15.255  69.130  1.00  0.00    -0.332 A  
HETATM   30  C   UNL     1     -10.536  15.637  69.906  1.00  0.00    -0.327 A  
HETATM   31  O   UNL     1     -12.862  15.482  69.654  1.00  0.00    -0.601 OA 
HETATM   32  C   UNL     1      -9.231  15.446  69.432  1.00  0.00    -0.268 A  
HETATM   33  H   UNL     1     -13.006  15.891  70.500  1.00  0.00     0.000 HD 
ENDBRANCH  17  20
ENDBRANCH  16  17
ENDBRANCH  14  16
ENDBRANCH  10  14
ENDBRANCH   2   3
TORSDOF 6
ENDMDL
MODEL       85
REMARK 921   NORMALIZED FREE ENERGY PREDICTED BY IDOCK:   -5.94 KCAL/MOL
REMARK 922        TOTAL FREE ENERGY PREDICTED BY IDOCK:   -9.31 KCAL/MOL
REMARK 923 INTER-LIGAND FREE ENERGY PREDICTED BY IDOCK:   -9.09 KCAL/MOL
REMARK 924 INTRA-LIGAND FREE ENERGY PREDICTED BY IDOCK:   -0.22 KCAL/MOL
REMARK 927      BINDING AFFINITY PREDICTED BY RF-SCORE:    0.00 PKD
ROOT
HETATM    1  C   UNL     1     -10.855   6.923  72.957  1.00  0.00    -0.328 C  
HETATM    2  C   UNL     1     -10.950   5.634  72.158  1.00  0.00    -0.307 C  
ENDROOT
BRANCH   2   3
HETATM    3  C   UNL     1     -10.641   5.673  70.673  1.00  0.00    -0.347 A  
HETATM    4  C   UNL     1      -9.471   4.989  70.233  1.00  0.00    -0.237 A  
HETATM    5  C   UNL     1      -9.341   4.654  68.884  1.00  0.00    -0.200 A  
HETATM    6  C   UNL     1     -11.368   6.424  69.727  1.00  0.00    -0.494 A  
HETATM    7  C   UNL     1     -10.981   6.335  68.394  1.00  0.00    -0.409 A  
HETATM    8  C   UNL     1     -10.160   5.286  67.973  1.00  0.00    -0.208 A  
HETATM    9  C   UNL     1      -9.831   5.436  66.522  1.00  0.00    -0.195 C  
HETATM   10  C   UNL     1      -9.560   6.947  66.596  1.00  0.00    -0.168 C  
HETATM   11  C   UNL     1     -10.904   7.429  67.313  1.00  0.00    -0.326 C  
BRANCH   4  12
HETATM   12  C   UNL     1      -8.288   4.850  71.178  1.00  0.00    -0.114 C  
HETATM   13  C   UNL     1      -6.907   5.162  70.602  1.00  0.00    -0.044 C  
ENDBRANCH   4  12
BRANCH  10  14
HETATM   14  N   UNL     1      -8.983   7.526  65.365  1.00  0.00    -0.379 NA 
HETATM   15  H   UNL     1      -9.525   7.286  64.536  1.00  0.00     0.000 HD 
BRANCH  14  16
HETATM   16  C   UNL     1      -8.832   9.020  65.537  1.00  0.00    -0.194 C  
BRANCH  16  17
HETATM   17  C   UNL     1      -9.203   9.897  64.309  1.00  0.00    -0.265 C  
HETATM   18  H   UNL     1      -8.208  10.939  62.994  1.00  0.00     0.000 HD 
HETATM   19  O   UNL     1      -7.981  10.402  63.745  1.00  0.00    -0.154 OA 
BRANCH  17  20
HETATM   20  C   UNL     1     -10.167  11.064  64.606  1.00  0.00    -0.392 A  
HETATM   21  C   UNL     1     -10.480  11.486  65.921  1.00  0.00    -0.303 A  
HETATM   22  C   UNL     1      -9.775  10.985  67.109  1.00  0.00    -0.198 C  
HETATM   23  C   UNL     1     -10.136  11.353  68.346  1.00  0.00    -0.207 C  
HETATM   24  C   UNL     1     -11.291  12.260  68.569  1.00  0.00    -0.286 C  
HETATM   25  N   UNL     1     -11.897  12.770  67.456  1.00  0.00    -0.363 N  
HETATM   26  O   UNL     1     -11.663  12.539  69.697  1.00  0.00    -0.300 OA 
HETATM   27  H   UNL     1     -12.669  13.424  67.585  1.00  0.00     0.000 HD 
HETATM   28  C   UNL     1     -11.515  12.441  66.138  1.00  0.00    -0.379 A  
HETATM   29  C   UNL     1     -12.184  13.019  65.056  1.00  0.00    -0.453 A  
HETATM   30  C   UNL     1     -11.842  12.663  63.762  1.00  0.00    -0.574 A  
HETATM   31  O   UNL     1     -13.175  13.954  65.196  1.00  0.00    -0.768 OA 
HETATM   32  C   UNL     1     -10.844  11.706  63.539  1.00  0.00    -0.497 A  
HETATM   33  H   UNL     1     -13.630  14.346  64.461  1.00  0.00     0.000 HD 
ENDBRANCH  17  20
ENDBRANCH  16  17
ENDBRANCH  14  16
ENDBRANCH  10  14
ENDBRANCH   2   3
TORSDOF 6
ENDMDL
MODEL       86
REMARK 921   NORMALIZED FREE ENERGY PREDICTED BY IDOCK:   -5.94 KCAL/MOL
REMARK 922        TOTAL FREE ENERGY PREDICTED BY IDOCK:   -9.30 KCAL/MOL
REMARK 923 INTER-LIGAND FREE ENERGY PREDICTED BY IDOCK:   -8.60 KCAL/MOL
REMARK 924 INTRA-LIGAND FREE ENERGY PREDICTED BY IDOCK:   -0.70 KCAL/MOL
REMARK 927      BINDING AFFINITY PREDICTED BY RF-SCORE:    0.00 PKD
ROOT
HETATM    1  C   UNL     1      -5.813  20.690  69.280  1.00  0.00    -0.391 C  
HETATM    2  C   UNL     1      -6.599  20.300  68.039  1.00  0.00    -0.327 C  
ENDROOT
BRANCH   2   3
HETATM    3  C   UNL     1      -7.122  18.881  67.924  1.00  0.00    -0.253 A  
HETATM    4  C   UNL     1      -8.311  18.684  67.164  1.00  0.00    -0.271 A  
HETATM    5  C   UNL     1      -8.620  17.406  66.696  1.00  0.00    -0.283 A  
HETATM    6  C   UNL     1      -6.574  17.773  68.602  1.00  0.00    -0.218 A  
HETATM    7  C   UNL     1      -7.146  16.526  68.371  1.00  0.00    -0.160 A  
HETATM    8  C   UNL     1      -7.971  16.330  67.261  1.00  0.00    -0.195 A  
HETATM    9  C   UNL     1      -8.513  14.936  67.259  1.00  0.00    -0.229 C  
HETATM   10  C   UNL     1      -8.839  14.911  68.761  1.00  0.00    -0.183 C  
HETATM   11  C   UNL     1      -7.429  15.372  69.352  1.00  0.00    -0.218 C  
BRANCH   4  12
HETATM   12  C   UNL     1      -9.337  19.803  67.081  1.00  0.00    -0.458 C  
HETATM   13  C   UNL     1     -10.355  19.720  65.944  1.00  0.00    -0.582 C  
ENDBRANCH   4  12
BRANCH  10  14
HETATM   14  N   UNL     1      -9.614  13.731  69.199  1.00  0.00    -0.385 NA 
HETATM   15  H   UNL     1     -10.488  13.991  69.654  1.00  0.00     0.000 HD 
BRANCH  14  16
HETATM   16  C   UNL     1      -9.834  12.811  68.020  1.00  0.00    -0.226 C  
BRANCH  16  17
HETATM   17  C   UNL     1     -11.177  12.029  67.997  1.00  0.00    -0.258 C  
HETATM   18  H   UNL     1     -13.063  12.510  67.878  1.00  0.00     0.000 HD 
HETATM   19  O   UNL     1     -12.242  12.989  67.892  1.00  0.00    -0.249 OA 
BRANCH  17  20
HETATM   20  C   UNL     1     -11.418  11.107  69.210  1.00  0.00    -0.363 A  
HETATM   21  C   UNL     1     -11.126   9.722  69.191  1.00  0.00    -0.158 A  
HETATM   22  C   UNL     1     -10.392   9.074  68.094  1.00  0.00    -0.262 C  
HETATM   23  C   UNL     1     -10.187   7.751  68.072  1.00  0.00    -0.249 C  
HETATM   24  C   UNL     1     -10.724   6.874  69.145  1.00  0.00    -0.234 C  
HETATM   25  N   UNL     1     -11.348   7.493  70.190  1.00  0.00    -0.435 N  
HETATM   26  O   UNL     1     -10.598   5.662  69.088  1.00  0.00    -0.253 OA 
HETATM   27  H   UNL     1     -11.692   6.914  70.956  1.00  0.00     0.000 HD 
HETATM   28  C   UNL     1     -11.542   8.888  70.270  1.00  0.00    -0.033 A  
HETATM   29  C   UNL     1     -12.181   9.438  71.384  1.00  0.00    -0.356 A  
HETATM   30  C   UNL     1     -12.414  10.803  71.443  1.00  0.00    -0.478 A  
HETATM   31  O   UNL     1     -12.590   8.697  72.460  1.00  0.00    -0.449 OA 
HETATM   32  C   UNL     1     -12.032  11.626  70.376  1.00  0.00    -0.448 A  
HETATM   33  H   UNL     1     -13.025   9.070  73.217  1.00  0.00     0.000 HD 
ENDBRANCH  17  20
ENDBRANCH  16  17
ENDBRANCH  14  16
ENDBRANCH  10  14
ENDBRANCH   2   3
TORSDOF 6
ENDMDL
MODEL       87
REMARK 921   NORMALIZED FREE ENERGY PREDICTED BY IDOCK:   -5.91 KCAL/MOL
REMARK 922        TOTAL FREE ENERGY PREDICTED BY IDOCK:   -9.26 KCAL/MOL
REMARK 923 INTER-LIGAND FREE ENERGY PREDICTED BY IDOCK:   -9.06 KCAL/MOL
REMARK 924 INTRA-LIGAND FREE ENERGY PREDICTED BY IDOCK:   -0.20 KCAL/MOL
REMARK 927      BINDING AFFINITY PREDICTED BY RF-SCORE:    0.00 PKD
ROOT
HETATM    1  C   UNL     1     -10.748   3.853  73.678  1.00  0.00    -0.310 C  
HETATM    2  C   UNL     1     -11.544   5.014  73.106  1.00  0.00    -0.299 C  
ENDROOT
BRANCH   2   3
HETATM    3  C   UNL     1     -10.980   5.769  71.917  1.00  0.00    -0.318 A  
HETATM    4  C   UNL     1     -11.270   7.161  71.831  1.00  0.00    -0.282 A  
HETATM    5  C   UNL     1     -10.484   7.974  71.012  1.00  0.00    -0.229 A  
HETATM    6  C   UNL     1     -10.286   5.166  70.847  1.00  0.00    -0.299 A  
HETATM    7  C   UNL     1      -9.802   5.996  69.841  1.00  0.00    -0.213 A  
HETATM    8  C   UNL     1      -9.691   7.371  70.061  1.00  0.00    -0.175 A  
HETATM    9  C   UNL     1      -9.208   8.056  68.823  1.00  0.00    -0.143 C  
HETATM   10  C   UNL     1     -10.117   7.269  67.865  1.00  0.00    -0.177 C  
HETATM   11  C   UNL     1      -9.762   5.779  68.316  1.00  0.00    -0.153 C  
BRANCH   4  12
HETATM   12  C   UNL     1     -12.562   7.692  72.431  1.00  0.00    -0.057 C  
HETATM   13  C   UNL     1     -12.830   9.188  72.274  1.00  0.00    -0.472 C  
ENDBRANCH   4  12
BRANCH  10  14
HETATM   14  N   UNL     1     -10.122   7.772  66.475  1.00  0.00    -0.453 NA 
HETATM   15  H   UNL     1     -10.833   7.318  65.903  1.00  0.00     0.000 HD 
BRANCH  14  16
HETATM   16  C   UNL     1     -10.272   9.276  66.487  1.00  0.00    -0.246 C  
BRANCH  16  17
HETATM   17  C   UNL     1      -9.904  10.016  65.171  1.00  0.00    -0.318 C  
HETATM   18  H   UNL     1      -8.250  10.618  64.332  1.00  0.00     0.000 HD 
HETATM   19  O   UNL     1      -8.474  10.165  65.137  1.00  0.00    -0.146 OA 
BRANCH  17  20
HETATM   20  C   UNL     1     -10.580  11.389  64.982  1.00  0.00    -0.359 A  
HETATM   21  C   UNL     1     -10.925  12.231  66.068  1.00  0.00    -0.327 A  
HETATM   22  C   UNL     1     -10.500  11.967  67.450  1.00  0.00    -0.239 C  
HETATM   23  C   UNL     1     -10.895  12.745  68.466  1.00  0.00    -0.279 C  
HETATM   24  C   UNL     1     -11.811  13.893  68.241  1.00  0.00    -0.376 C  
HETATM   25  N   UNL     1     -12.147  14.167  66.945  1.00  0.00    -0.468 N  
HETATM   26  O   UNL     1     -12.226  14.559  69.175  1.00  0.00    -0.284 OA 
HETATM   27  H   UNL     1     -12.745  14.973  66.763  1.00  0.00     0.000 HD 
HETATM   28  C   UNL     1     -11.713  13.398  65.846  1.00  0.00    -0.356 A  
HETATM   29  C   UNL     1     -12.096  13.758  64.551  1.00  0.00    -0.428 A  
HETATM   30  C   UNL     1     -11.710  12.978  63.474  1.00  0.00    -0.532 A  
HETATM   31  O   UNL     1     -12.838  14.874  64.269  1.00  0.00    -0.607 OA 
HETATM   32  C   UNL     1     -10.957  11.815  63.685  1.00  0.00    -0.513 A  
HETATM   33  H   UNL     1     -13.099  15.118  63.389  1.00  0.00     0.000 HD 
ENDBRANCH  17  20
ENDBRANCH  16  17
ENDBRANCH  14  16
ENDBRANCH  10  14
ENDBRANCH   2   3
TORSDOF 6
ENDMDL
MODEL       88
REMARK 921   NORMALIZED FREE ENERGY PREDICTED BY IDOCK:   -5.87 KCAL/MOL
REMARK 922        TOTAL FREE ENERGY PREDICTED BY IDOCK:   -9.20 KCAL/MOL
REMARK 923 INTER-LIGAND FREE ENERGY PREDICTED BY IDOCK:   -8.34 KCAL/MOL
REMARK 924 INTRA-LIGAND FREE ENERGY PREDICTED BY IDOCK:   -0.87 KCAL/MOL
REMARK 927      BINDING AFFINITY PREDICTED BY RF-SCORE:    0.00 PKD
ROOT
HETATM    1  C   UNL     1      -6.733   4.860  73.104  1.00  0.00    -0.067 C  
HETATM    2  C   UNL     1      -7.781   5.557  73.956  1.00  0.00    -0.100 C  
ENDROOT
BRANCH   2   3
HETATM    3  C   UNL     1      -8.761   6.497  73.281  1.00  0.00    -0.132 A  
HETATM    4  C   UNL     1     -10.098   6.032  73.110  1.00  0.00    -0.198 A  
HETATM    5  C   UNL     1     -11.117   6.954  72.868  1.00  0.00    -0.297 A  
HETATM    6  C   UNL     1      -8.414   7.744  72.721  1.00  0.00    -0.196 A  
HETATM    7  C   UNL     1      -9.432   8.508  72.161  1.00  0.00    -0.375 A  
HETATM    8  C   UNL     1     -10.766   8.223  72.462  1.00  0.00    -0.411 A  
HETATM    9  C   UNL     1     -11.675   9.134  71.699  1.00  0.00    -0.448 C  
HETATM   10  C   UNL     1     -10.904   9.020  70.373  1.00  0.00    -0.246 C  
HETATM   11  C   UNL     1      -9.432   9.370  70.884  1.00  0.00    -0.279 C  
BRANCH   4  12
HETATM   12  C   UNL     1     -10.353   4.542  72.952  1.00  0.00    -0.243 C  
HETATM   13  C   UNL     1     -10.030   3.929  71.589  1.00  0.00    -0.223 C  
ENDBRANCH   4  12
BRANCH  10  14
HETATM   14  N   UNL     1     -11.584   9.637  69.215  1.00  0.00    -0.437 NA 
HETATM   15  H   UNL     1     -12.594   9.686  69.342  1.00  0.00     0.000 HD 
BRANCH  14  16
HETATM   16  C   UNL     1     -10.977  10.994  68.941  1.00  0.00    -0.227 C  
BRANCH  16  17
HETATM   17  C   UNL     1     -10.356  11.200  67.532  1.00  0.00    -0.196 C  
HETATM   18  H   UNL     1      -8.884  10.400  66.532  1.00  0.00     0.000 HD 
HETATM   19  O   UNL     1      -9.264  10.274  67.394  1.00  0.00    -0.141 OA 
BRANCH  17  20
HETATM   20  C   UNL     1      -9.870  12.633  67.235  1.00  0.00    -0.206 A  
HETATM   21  C   UNL     1     -10.579  13.526  66.395  1.00  0.00    -0.283 A  
HETATM   22  C   UNL     1     -11.929  13.243  65.888  1.00  0.00    -0.466 C  
HETATM   23  C   UNL     1     -12.549  14.076  65.042  1.00  0.00    -0.416 C  
HETATM   24  C   UNL     1     -11.881  15.310  64.554  1.00  0.00    -0.295 C  
HETATM   25  N   UNL     1     -10.654  15.595  65.081  1.00  0.00    -0.422 N  
HETATM   26  O   UNL     1     -12.418  16.032  63.730  1.00  0.00    -0.784 OA 
HETATM   27  H   UNL     1     -10.192  16.456  64.789  1.00  0.00     0.000 HD 
HETATM   28  C   UNL     1      -9.990  14.765  66.008  1.00  0.00    -0.313 A  
HETATM   29  C   UNL     1      -8.739  15.141  66.506  1.00  0.00    -0.245 A  
HETATM   30  C   UNL     1      -8.064  14.305  67.381  1.00  0.00    -0.213 A  
HETATM   31  O   UNL     1      -8.127  16.323  66.188  1.00  0.00    -0.293 OA 
HETATM   32  C   UNL     1      -8.623  13.073  67.746  1.00  0.00    -0.189 A  
HETATM   33  H   UNL     1      -7.276  16.578  66.526  1.00  0.00     0.000 HD 
ENDBRANCH  17  20
ENDBRANCH  16  17
ENDBRANCH  14  16
ENDBRANCH  10  14
ENDBRANCH   2   3
TORSDOF 6
ENDMDL
MODEL       89
REMARK 921   NORMALIZED FREE ENERGY PREDICTED BY IDOCK:   -5.86 KCAL/MOL
REMARK 922        TOTAL FREE ENERGY PREDICTED BY IDOCK:   -9.20 KCAL/MOL
REMARK 923 INTER-LIGAND FREE ENERGY PREDICTED BY IDOCK:   -8.36 KCAL/MOL
REMARK 924 INTRA-LIGAND FREE ENERGY PREDICTED BY IDOCK:   -0.84 KCAL/MOL
REMARK 927      BINDING AFFINITY PREDICTED BY RF-SCORE:    0.00 PKD
ROOT
HETATM    1  C   UNL     1     -11.540  15.004  67.458  1.00  0.00    -0.315 C  
HETATM    2  C   UNL     1     -11.926  13.973  66.411  1.00  0.00    -0.462 C  
ENDROOT
BRANCH   2   3
HETATM    3  C   UNL     1     -11.210  12.635  66.407  1.00  0.00    -0.350 A  
HETATM    4  C   UNL     1     -10.657  12.196  65.169  1.00  0.00    -0.324 A  
HETATM    5  C   UNL     1      -9.675  11.204  65.173  1.00  0.00    -0.296 A  
HETATM    6  C   UNL     1     -11.151  11.760  67.511  1.00  0.00    -0.330 A  
HETATM    7  C   UNL     1     -10.429  10.579  67.362  1.00  0.00    -0.291 A  
HETATM    8  C   UNL     1      -9.519  10.444  66.312  1.00  0.00    -0.215 A  
HETATM    9  C   UNL     1      -8.915   9.076  66.323  1.00  0.00    -0.199 C  
HETATM   10  C   UNL     1     -10.238   8.342  66.599  1.00  0.00    -0.265 C  
HETATM   11  C   UNL     1     -10.742   9.161  67.875  1.00  0.00    -0.224 C  
BRANCH   4  12
HETATM   12  C   UNL     1     -11.307  12.631  63.866  1.00  0.00    -0.501 C  
HETATM   13  C   UNL     1     -12.634  11.965  63.503  1.00  0.00    -0.579 C  
ENDBRANCH   4  12
BRANCH  10  14
HETATM   14  N   UNL     1     -10.154   6.871  66.496  1.00  0.00    -0.418 NA 
HETATM   15  H   UNL     1      -9.209   6.552  66.283  1.00  0.00     0.000 HD 
BRANCH  14  16
HETATM   16  C   UNL     1     -10.695   6.248  67.763  1.00  0.00    -0.306 C  
BRANCH  16  17
HETATM   17  C   UNL     1      -9.651   5.609  68.719  1.00  0.00    -0.131 C  
HETATM   18  H   UNL     1      -9.475   3.900  69.642  1.00  0.00     0.000 HD 
HETATM   19  O   UNL     1     -10.114   4.290  69.057  1.00  0.00    -0.062 OA 
BRANCH  17  20
HETATM   20  C   UNL     1      -9.365   6.411  70.005  1.00  0.00    -0.162 A  
HETATM   21  C   UNL     1     -10.386   7.017  70.775  1.00  0.00    -0.222 A  
HETATM   22  C   UNL     1     -11.816   6.779  70.534  1.00  0.00    -0.418 C  
HETATM   23  C   UNL     1     -12.763   7.416  71.236  1.00  0.00    -0.371 C  
HETATM   24  C   UNL     1     -12.403   8.421  72.271  1.00  0.00    -0.376 C  
HETATM   25  N   UNL     1     -11.072   8.586  72.531  1.00  0.00    -0.325 N  
HETATM   26  O   UNL     1     -13.264   9.051  72.861  1.00  0.00    -0.339 OA 
HETATM   27  H   UNL     1     -10.803   9.243  73.263  1.00  0.00     0.000 HD 
HETATM   28  C   UNL     1     -10.050   7.899  71.844  1.00  0.00    -0.194 A  
HETATM   29  C   UNL     1      -8.713   8.122  72.184  1.00  0.00    -0.175 A  
HETATM   30  C   UNL     1      -7.705   7.483  71.479  1.00  0.00    -0.085 A  
HETATM   31  O   UNL     1      -8.323   8.942  73.208  1.00  0.00    -0.312 OA 
HETATM   32  C   UNL     1      -8.026   6.635  70.411  1.00  0.00    -0.115 A  
HETATM   33  H   UNL     1      -7.414   9.094  73.439  1.00  0.00     0.000 HD 
ENDBRANCH  17  20
ENDBRANCH  16  17
ENDBRANCH  14  16
ENDBRANCH  10  14
ENDBRANCH   2   3
TORSDOF 6
ENDMDL
MODEL       90
REMARK 921   NORMALIZED FREE ENERGY PREDICTED BY IDOCK:   -5.85 KCAL/MOL
REMARK 922        TOTAL FREE ENERGY PREDICTED BY IDOCK:   -9.19 KCAL/MOL
REMARK 923 INTER-LIGAND FREE ENERGY PREDICTED BY IDOCK:   -8.50 KCAL/MOL
REMARK 924 INTRA-LIGAND FREE ENERGY PREDICTED BY IDOCK:   -0.68 KCAL/MOL
REMARK 927      BINDING AFFINITY PREDICTED BY RF-SCORE:    0.00 PKD
ROOT
HETATM    1  C   UNL     1      -9.661   4.204  69.431  1.00  0.00    -0.265 C  
HETATM    2  C   UNL     1     -10.313   5.537  69.760  1.00  0.00    -0.366 C  
ENDROOT
BRANCH   2   3
HETATM    3  C   UNL     1      -9.436   6.769  69.873  1.00  0.00    -0.156 A  
HETATM    4  C   UNL     1      -9.442   7.462  71.118  1.00  0.00    -0.157 A  
HETATM    5  C   UNL     1      -8.398   8.338  71.419  1.00  0.00    -0.163 A  
HETATM    6  C   UNL     1      -8.707   7.329  68.803  1.00  0.00    -0.125 A  
HETATM    7  C   UNL     1      -7.923   8.447  69.070  1.00  0.00    -0.111 A  
HETATM    8  C   UNL     1      -7.591   8.770  70.388  1.00  0.00    -0.082 A  
HETATM    9  C   UNL     1      -6.798  10.037  70.427  1.00  0.00    -0.140 C  
HETATM   10  C   UNL     1      -7.676  10.782  69.407  1.00  0.00    -0.102 C  
HETATM   11  C   UNL     1      -7.683   9.710  68.222  1.00  0.00    -0.082 C  
BRANCH   4  12
HETATM   12  C   UNL     1     -10.690   7.424  71.986  1.00  0.00    -0.254 C  
HETATM   13  C   UNL     1     -10.475   7.287  73.493  1.00  0.00    -0.421 C  
ENDBRANCH   4  12
BRANCH  10  14
HETATM   14  N   UNL     1      -7.366  12.219  69.268  1.00  0.00    -0.328 NA 
HETATM   15  H   UNL     1      -6.362  12.398  69.256  1.00  0.00     0.000 HD 
BRANCH  14  16
HETATM   16  C   UNL     1      -8.059  12.766  68.041  1.00  0.00    -0.162 C  
BRANCH  16  17
HETATM   17  C   UNL     1      -9.272  13.703  68.292  1.00  0.00    -0.198 C  
HETATM   18  H   UNL     1     -11.088  13.472  68.966  1.00  0.00     0.000 HD 
HETATM   19  O   UNL     1     -10.346  12.899  68.812  1.00  0.00    -0.216 OA 
BRANCH  17  20
HETATM   20  C   UNL     1      -9.756  14.492  67.059  1.00  0.00    -0.247 A  
HETATM   21  C   UNL     1      -9.905  15.900  67.059  1.00  0.00    -0.236 A  
HETATM   22  C   UNL     1      -9.433  16.754  68.158  1.00  0.00    -0.234 C  
HETATM   23  C   UNL     1      -9.646  18.076  68.162  1.00  0.00    -0.303 C  
HETATM   24  C   UNL     1     -10.401  18.733  67.063  1.00  0.00    -0.403 C  
HETATM   25  N   UNL     1     -10.778  17.941  66.016  1.00  0.00    -0.238 N  
HETATM   26  O   UNL     1     -10.655  19.925  67.101  1.00  0.00    -0.440 OA 
HETATM   27  H   UNL     1     -11.265  18.377  65.233  1.00  0.00     0.000 HD 
HETATM   28  C   UNL     1     -10.531  16.553  65.957  1.00  0.00    -0.310 A  
HETATM   29  C   UNL     1     -10.942  15.821  64.840  1.00  0.00    -0.427 A  
HETATM   30  C   UNL     1     -10.742  14.451  64.801  1.00  0.00    -0.423 A  
HETATM   31  O   UNL     1     -11.533  16.389  63.744  1.00  0.00    -1.590 OA 
HETATM   32  C   UNL     1     -10.152  13.797  65.890  1.00  0.00    -0.325 A  
HETATM   33  H   UNL     1     -11.813  15.891  62.985  1.00  0.00     0.000 HD 
ENDBRANCH  17  20
ENDBRANCH  16  17
ENDBRANCH  14  16
ENDBRANCH  10  14
ENDBRANCH   2   3
TORSDOF 6
ENDMDL
MODEL       91
REMARK 921   NORMALIZED FREE ENERGY PREDICTED BY IDOCK:   -5.85 KCAL/MOL
REMARK 922        TOTAL FREE ENERGY PREDICTED BY IDOCK:   -9.18 KCAL/MOL
REMARK 923 INTER-LIGAND FREE ENERGY PREDICTED BY IDOCK:   -8.13 KCAL/MOL
REMARK 924 INTRA-LIGAND FREE ENERGY PREDICTED BY IDOCK:   -1.05 KCAL/MOL
REMARK 927      BINDING AFFINITY PREDICTED BY RF-SCORE:    0.00 PKD
ROOT
HETATM    1  C   UNL     1      -5.432  19.647  69.800  1.00  0.00    -0.250 C  
HETATM    2  C   UNL     1      -5.696  18.154  69.700  1.00  0.00    -0.240 C  
ENDROOT
BRANCH   2   3
HETATM    3  C   UNL     1      -7.039  17.685  69.172  1.00  0.00    -0.189 A  
HETATM    4  C   UNL     1      -7.322  16.291  69.257  1.00  0.00    -0.221 A  
HETATM    5  C   UNL     1      -8.645  15.855  69.164  1.00  0.00    -0.252 A  
HETATM    6  C   UNL     1      -7.970  18.514  68.512  1.00  0.00    -0.346 A  
HETATM    7  C   UNL     1      -9.174  17.944  68.112  1.00  0.00    -0.278 A  
HETATM    8  C   UNL     1      -9.584  16.724  68.653  1.00  0.00    -0.255 A  
HETATM    9  C   UNL     1     -10.870  16.286  68.028  1.00  0.00    -0.339 C  
HETATM   10  C   UNL     1     -10.459  16.653  66.592  1.00  0.00    -0.258 C  
HETATM   11  C   UNL     1      -9.988  18.162  66.822  1.00  0.00    -0.353 C  
BRANCH   4  12
HETATM   12  C   UNL     1      -6.177  15.293  69.204  1.00  0.00    -0.108 C  
HETATM   13  C   UNL     1      -5.471  15.127  67.859  1.00  0.00    -0.125 C  
ENDBRANCH   4  12
BRANCH  10  14
HETATM   14  N   UNL     1     -11.399  16.192  65.550  1.00  0.00     0.089 NA 
HETATM   15  H   UNL     1     -11.745  16.959  64.975  1.00  0.00     0.000 HD 
BRANCH  14  16
HETATM   16  C   UNL     1     -10.741  15.110  64.725  1.00  0.00    -0.319 C  
BRANCH  16  17
HETATM   17  C   UNL     1     -11.564  13.810  64.509  1.00  0.00    -0.392 C  
HETATM   18  H   UNL     1     -13.426  13.286  64.762  1.00  0.00     0.000 HD 
HETATM   19  O   UNL     1     -12.923  14.081  64.894  1.00  0.00    -0.707 OA 
BRANCH  17  20
HETATM   20  C   UNL     1     -11.041  12.572  65.265  1.00  0.00    -0.332 A  
HETATM   21  C   UNL     1     -10.293  11.547  64.636  1.00  0.00    -0.349 A  
HETATM   22  C   UNL     1      -9.783  11.659  63.262  1.00  0.00    -0.390 C  
HETATM   23  C   UNL     1      -9.134  10.648  62.670  1.00  0.00    -0.321 C  
HETATM   24  C   UNL     1      -8.931   9.353  63.370  1.00  0.00    -0.119 C  
HETATM   25  N   UNL     1      -9.352   9.283  64.668  1.00  0.00    -0.435 N  
HETATM   26  O   UNL     1      -8.403   8.410  62.806  1.00  0.00    -0.183 OA 
HETATM   27  H   UNL     1      -9.190   8.416  65.180  1.00  0.00     0.000 HD 
HETATM   28  C   UNL     1      -9.998  10.342  65.339  1.00  0.00    -0.295 A  
HETATM   29  C   UNL     1     -10.385  10.187  66.672  1.00  0.00    -0.208 A  
HETATM   30  C   UNL     1     -11.060  11.210  67.319  1.00  0.00    -0.366 A  
HETATM   31  O   UNL     1     -10.118   9.064  67.407  1.00  0.00    -0.196 OA 
HETATM   32  C   UNL     1     -11.377  12.387  66.629  1.00  0.00    -0.394 A  
HETATM   33  H   UNL     1     -10.382   8.958  68.314  1.00  0.00     0.000 HD 
ENDBRANCH  17  20
ENDBRANCH  16  17
ENDBRANCH  14  16
ENDBRANCH  10  14
ENDBRANCH   2   3
TORSDOF 6
ENDMDL
MODEL       92
REMARK 921   NORMALIZED FREE ENERGY PREDICTED BY IDOCK:   -5.85 KCAL/MOL
REMARK 922        TOTAL FREE ENERGY PREDICTED BY IDOCK:   -9.18 KCAL/MOL
REMARK 923 INTER-LIGAND FREE ENERGY PREDICTED BY IDOCK:   -8.33 KCAL/MOL
REMARK 924 INTRA-LIGAND FREE ENERGY PREDICTED BY IDOCK:   -0.85 KCAL/MOL
REMARK 927      BINDING AFFINITY PREDICTED BY RF-SCORE:    0.00 PKD
ROOT
HETATM    1  C   UNL     1      -5.689   3.457  67.230  1.00  0.00    -0.022 C  
HETATM    2  C   UNL     1      -6.963   3.811  66.482  1.00  0.00    -0.059 C  
ENDROOT
BRANCH   2   3
HETATM    3  C   UNL     1      -8.035   4.607  67.203  1.00  0.00    -0.102 A  
HETATM    4  C   UNL     1      -9.301   4.728  66.560  1.00  0.00    -0.145 A  
HETATM    5  C   UNL     1     -10.418   5.091  67.313  1.00  0.00    -0.151 A  
HETATM    6  C   UNL     1      -7.828   5.317  68.404  1.00  0.00    -0.087 A  
HETATM    7  C   UNL     1      -8.918   5.976  68.961  1.00  0.00    -0.124 A  
HETATM    8  C   UNL     1     -10.214   5.652  68.555  1.00  0.00    -0.253 A  
HETATM    9  C   UNL     1     -11.209   6.530  69.245  1.00  0.00    -0.390 C  
HETATM   10  C   UNL     1     -10.400   7.826  69.062  1.00  0.00    -0.211 C  
HETATM   11  C   UNL     1      -8.993   7.352  69.651  1.00  0.00    -0.141 C  
BRANCH   4  12
HETATM   12  C   UNL     1      -9.371   4.698  65.041  1.00  0.00    -0.142 C  
HETATM   13  C   UNL     1     -10.263   3.627  64.415  1.00  0.00    -0.203 C  
ENDBRANCH   4  12
BRANCH  10  14
HETATM   14  N   UNL     1     -11.124   9.056  69.442  1.00  0.00    -0.434 NA 
HETATM   15  H   UNL     1     -11.449   9.030  70.408  1.00  0.00     0.000 HD 
BRANCH  14  16
HETATM   16  C   UNL     1     -10.249  10.258  69.166  1.00  0.00    -0.218 C  
BRANCH  16  17
HETATM   17  C   UNL     1     -10.941  11.477  68.496  1.00  0.00    -0.223 C  
HETATM   18  H   UNL     1     -12.783  12.081  68.278  1.00  0.00     0.000 HD 
HETATM   19  O   UNL     1     -12.359  11.336  68.688  1.00  0.00    -0.534 OA 
BRANCH  17  20
HETATM   20  C   UNL     1     -10.630  11.663  66.997  1.00  0.00    -0.272 A  
HETATM   21  C   UNL     1     -10.691  12.921  66.351  1.00  0.00    -0.286 A  
HETATM   22  C   UNL     1     -10.864  14.186  67.079  1.00  0.00    -0.295 C  
HETATM   23  C   UNL     1     -10.983  15.355  66.436  1.00  0.00    -0.277 C  
HETATM   24  C   UNL     1     -10.979  15.417  64.952  1.00  0.00    -0.437 C  
HETATM   25  N   UNL     1     -10.753  14.246  64.287  1.00  0.00    -0.539 N  
HETATM   26  O   UNL     1     -11.157  16.473  64.367  1.00  0.00    -0.894 OA 
HETATM   27  H   UNL     1     -10.708  14.270  63.269  1.00  0.00     0.000 HD 
HETATM   28  C   UNL     1     -10.577  13.003  64.932  1.00  0.00    -0.337 A  
HETATM   29  C   UNL     1     -10.338  11.854  64.173  1.00  0.00    -0.336 A  
HETATM   30  C   UNL     1     -10.212  10.626  64.801  1.00  0.00    -0.401 A  
HETATM   31  O   UNL     1     -10.202  11.867  62.811  1.00  0.00    -0.537 OA 
HETATM   32  C   UNL     1     -10.348  10.532  66.191  1.00  0.00    -0.276 A  
HETATM   33  H   UNL     1     -10.041  11.086  62.295  1.00  0.00     0.000 HD 
ENDBRANCH  17  20
ENDBRANCH  16  17
ENDBRANCH  14  16
ENDBRANCH  10  14
ENDBRANCH   2   3
TORSDOF 6
ENDMDL
MODEL       93
REMARK 921   NORMALIZED FREE ENERGY PREDICTED BY IDOCK:   -5.84 KCAL/MOL
REMARK 922        TOTAL FREE ENERGY PREDICTED BY IDOCK:   -9.17 KCAL/MOL
REMARK 923 INTER-LIGAND FREE ENERGY PREDICTED BY IDOCK:   -8.66 KCAL/MOL
REMARK 924 INTRA-LIGAND FREE ENERGY PREDICTED BY IDOCK:   -0.51 KCAL/MOL
REMARK 927      BINDING AFFINITY PREDICTED BY RF-SCORE:    0.00 PKD
ROOT
HETATM    1  C   UNL     1      -9.413   2.498  69.220  1.00  0.00    -0.137 C  
HETATM    2  C   UNL     1      -9.305   2.833  70.699  1.00  0.00    -0.218 C  
ENDROOT
BRANCH   2   3
HETATM    3  C   UNL     1      -9.769   4.198  71.172  1.00  0.00    -0.258 A  
HETATM    4  C   UNL     1      -9.642   4.483  72.563  1.00  0.00    -0.183 A  
HETATM    5  C   UNL     1      -9.674   5.810  72.994  1.00  0.00    -0.164 A  
HETATM    6  C   UNL     1     -10.410   5.150  70.353  1.00  0.00    -0.326 A  
HETATM    7  C   UNL     1     -10.751   6.371  70.926  1.00  0.00    -0.301 A  
HETATM    8  C   UNL     1     -10.167   6.765  72.132  1.00  0.00    -0.213 A  
HETATM    9  C   UNL     1     -10.732   8.076  72.577  1.00  0.00    -0.407 C  
HETATM   10  C   UNL     1     -12.190   7.719  72.244  1.00  0.00    -0.256 C  
HETATM   11  C   UNL     1     -12.012   7.235  70.733  1.00  0.00    -0.311 C  
BRANCH   4  12
HETATM   12  C   UNL     1      -9.718   3.344  73.567  1.00  0.00    -0.148 C  
HETATM   13  C   UNL     1     -11.088   2.697  73.772  1.00  0.00    -0.306 C  
ENDBRANCH   4  12
BRANCH  10  14
HETATM   14  N   UNL     1     -13.184   8.702  72.723  1.00  0.00    -0.658 NA 
HETATM   15  H   UNL     1     -12.878   9.179  73.570  1.00  0.00     0.000 HD 
BRANCH  14  16
HETATM   16  C   UNL     1     -13.512   9.669  71.608  1.00  0.00    -0.374 C  
BRANCH  16  17
HETATM   17  C   UNL     1     -12.756  11.026  71.627  1.00  0.00    -0.378 C  
HETATM   18  H   UNL     1     -13.191  12.851  72.160  1.00  0.00     0.000 HD 
HETATM   19  O   UNL     1     -13.653  12.021  72.149  1.00  0.00    -0.406 OA 
BRANCH  17  20
HETATM   20  C   UNL     1     -12.199  11.483  70.263  1.00  0.00    -0.415 A  
HETATM   21  C   UNL     1     -11.944  12.841  69.955  1.00  0.00    -0.368 A  
HETATM   22  C   UNL     1     -12.001  13.913  70.958  1.00  0.00    -0.262 C  
HETATM   23  C   UNL     1     -11.820  15.198  70.625  1.00  0.00    -0.371 C  
HETATM   24  C   UNL     1     -11.585  15.596  69.213  1.00  0.00    -0.366 C  
HETATM   25  N   UNL     1     -11.470  14.587  68.300  1.00  0.00    -0.295 N  
HETATM   26  O   UNL     1     -11.489  16.771  68.900  1.00  0.00    -0.141 OA 
HETATM   27  H   UNL     1     -11.272  14.836  67.330  1.00  0.00     0.000 HD 
HETATM   28  C   UNL     1     -11.609  13.222  68.622  1.00  0.00    -0.327 A  
HETATM   29  C   UNL     1     -11.464  12.254  67.625  1.00  0.00    -0.336 A  
HETATM   30  C   UNL     1     -11.647  10.914  67.930  1.00  0.00    -0.270 A  
HETATM   31  O   UNL     1     -11.128  12.550  66.331  1.00  0.00    -0.267 OA 
HETATM   32  C   UNL     1     -12.002  10.534  69.230  1.00  0.00    -0.194 A  
HETATM   33  H   UNL     1     -11.030  11.893  65.653  1.00  0.00     0.000 HD 
ENDBRANCH  17  20
ENDBRANCH  16  17
ENDBRANCH  14  16
ENDBRANCH  10  14
ENDBRANCH   2   3
TORSDOF 6
ENDMDL
MODEL       94
REMARK 921   NORMALIZED FREE ENERGY PREDICTED BY IDOCK:   -5.84 KCAL/MOL
REMARK 922        TOTAL FREE ENERGY PREDICTED BY IDOCK:   -9.17 KCAL/MOL
REMARK 923 INTER-LIGAND FREE ENERGY PREDICTED BY IDOCK:   -8.58 KCAL/MOL
REMARK 924 INTRA-LIGAND FREE ENERGY PREDICTED BY IDOCK:   -0.59 KCAL/MOL
REMARK 927      BINDING AFFINITY PREDICTED BY RF-SCORE:    0.00 PKD
ROOT
HETATM    1  C   UNL     1      -9.999  20.707  67.410  1.00  0.00    -0.457 C  
HETATM    2  C   UNL     1      -9.944  19.826  68.647  1.00  0.00    -0.535 C  
ENDROOT
BRANCH   2   3
HETATM    3  C   UNL     1      -9.720  18.336  68.472  1.00  0.00    -0.379 A  
HETATM    4  C   UNL     1      -8.388  17.855  68.629  1.00  0.00    -0.276 A  
HETATM    5  C   UNL     1      -8.176  16.496  68.870  1.00  0.00    -0.241 A  
HETATM    6  C   UNL     1     -10.713  17.424  68.060  1.00  0.00    -0.359 A  
HETATM    7  C   UNL     1     -10.361  16.081  67.973  1.00  0.00    -0.266 A  
HETATM    8  C   UNL     1      -9.205  15.619  68.605  1.00  0.00    -0.205 A  
HETATM    9  C   UNL     1      -9.005  14.164  68.320  1.00  0.00    -0.188 C  
HETATM   10  C   UNL     1      -9.354  14.266  66.826  1.00  0.00    -0.276 C  
HETATM   11  C   UNL     1     -10.757  15.023  66.926  1.00  0.00    -0.308 C  
BRANCH   4  12
HETATM   12  C   UNL     1      -7.220  18.770  68.297  1.00  0.00    -0.283 C  
HETATM   13  C   UNL     1      -6.292  19.147  69.453  1.00  0.00    -0.330 C  
ENDBRANCH   4  12
BRANCH  10  14
HETATM   14  N   UNL     1      -9.092  13.035  66.052  1.00  0.00    -0.442 NA 
HETATM   15  H   UNL     1      -9.079  12.203  66.641  1.00  0.00     0.000 HD 
BRANCH  14  16
HETATM   16  C   UNL     1     -10.098  12.924  64.929  1.00  0.00    -0.208 C  
BRANCH  16  17
HETATM   17  C   UNL     1     -11.084  11.726  65.001  1.00  0.00    -0.284 C  
HETATM   18  H   UNL     1     -12.944  11.488  65.537  1.00  0.00     0.000 HD 
HETATM   19  O   UNL     1     -12.341  12.221  65.493  1.00  0.00    -0.602 OA 
BRANCH  17  20
HETATM   20  C   UNL     1     -10.611  10.541  65.868  1.00  0.00    -0.149 A  
HETATM   21  C   UNL     1     -10.870  10.454  67.257  1.00  0.00    -0.324 A  
HETATM   22  C   UNL     1     -11.771  11.377  67.961  1.00  0.00    -0.324 C  
HETATM   23  C   UNL     1     -11.947  11.312  69.287  1.00  0.00    -0.411 C  
HETATM   24  C   UNL     1     -11.208  10.319  70.110  1.00  0.00    -0.318 C  
HETATM   25  N   UNL     1     -10.424   9.425  69.438  1.00  0.00    -0.213 N  
HETATM   26  O   UNL     1     -11.316  10.306  71.325  1.00  0.00    -0.277 OA 
HETATM   27  H   UNL     1      -9.937   8.711  69.978  1.00  0.00     0.000 HD 
HETATM   28  C   UNL     1     -10.251   9.435  68.038  1.00  0.00    -0.204 A  
HETATM   29  C   UNL     1      -9.438   8.474  67.432  1.00  0.00    -0.150 A  
HETATM   30  C   UNL     1      -9.229   8.510  66.062  1.00  0.00    -0.262 A  
HETATM   31  O   UNL     1      -8.828   7.461  68.121  1.00  0.00    -0.128 OA 
HETATM   32  C   UNL     1      -9.812   9.523  65.291  1.00  0.00    -0.179 A  
HETATM   33  H   UNL     1      -8.274   6.808  67.710  1.00  0.00     0.000 HD 
ENDBRANCH  17  20
ENDBRANCH  16  17
ENDBRANCH  14  16
ENDBRANCH  10  14
ENDBRANCH   2   3
TORSDOF 6
ENDMDL
MODEL       95
REMARK 921   NORMALIZED FREE ENERGY PREDICTED BY IDOCK:   -5.84 KCAL/MOL
REMARK 922        TOTAL FREE ENERGY PREDICTED BY IDOCK:   -9.16 KCAL/MOL
REMARK 923 INTER-LIGAND FREE ENERGY PREDICTED BY IDOCK:   -8.24 KCAL/MOL
REMARK 924 INTRA-LIGAND FREE ENERGY PREDICTED BY IDOCK:   -0.92 KCAL/MOL
REMARK 927      BINDING AFFINITY PREDICTED BY RF-SCORE:    0.00 PKD
ROOT
HETATM    1  C   UNL     1      -9.834   4.065  66.343  1.00  0.00    -0.178 C  
HETATM    2  C   UNL     1      -9.555   5.164  67.355  1.00  0.00    -0.154 C  
ENDROOT
BRANCH   2   3
HETATM    3  C   UNL     1      -9.583   6.608  66.888  1.00  0.00    -0.194 A  
HETATM    4  C   UNL     1      -8.413   7.107  66.246  1.00  0.00    -0.138 A  
HETATM    5  C   UNL     1      -8.502   8.258  65.462  1.00  0.00    -0.177 A  
HETATM    6  C   UNL     1     -10.638   7.508  67.143  1.00  0.00    -0.415 A  
HETATM    7  C   UNL     1     -10.531   8.794  66.624  1.00  0.00    -0.240 A  
HETATM    8  C   UNL     1      -9.611   9.063  65.608  1.00  0.00    -0.237 A  
HETATM    9  C   UNL     1      -9.636  10.517  65.259  1.00  0.00    -0.303 C  
HETATM   10  C   UNL     1      -9.688  11.009  66.715  1.00  0.00    -0.193 C  
HETATM   11  C   UNL     1     -10.921  10.146  67.249  1.00  0.00    -0.250 C  
BRANCH   4  12
HETATM   12  C   UNL     1      -7.056   6.529  66.614  1.00  0.00    -0.068 C  
HETATM   13  C   UNL     1      -5.862   7.481  66.549  1.00  0.00    -0.036 C  
ENDBRANCH   4  12
BRANCH  10  14
HETATM   14  N   UNL     1      -9.523  12.469  66.873  1.00  0.00    -0.213 NA 
HETATM   15  H   UNL     1      -8.542  12.742  66.930  1.00  0.00     0.000 HD 
BRANCH  14  16
HETATM   16  C   UNL     1     -10.251  13.180  65.756  1.00  0.00    -0.289 C  
BRANCH  16  17
HETATM   17  C   UNL     1     -11.400  14.136  66.179  1.00  0.00    -0.337 C  
HETATM   18  H   UNL     1     -12.744  15.194  65.241  1.00  0.00     0.000 HD 
HETATM   19  O   UNL     1     -12.041  14.609  64.982  1.00  0.00    -0.386 OA 
BRANCH  17  20
HETATM   20  C   UNL     1     -10.968  15.332  67.052  1.00  0.00    -0.324 A  
HETATM   21  C   UNL     1     -11.237  15.406  68.440  1.00  0.00    -0.318 A  
HETATM   22  C   UNL     1     -11.775  14.276  69.211  1.00  0.00    -0.363 C  
HETATM   23  C   UNL     1     -12.080  14.395  70.510  1.00  0.00    -0.404 C  
HETATM   24  C   UNL     1     -11.918  15.691  71.220  1.00  0.00    -0.415 C  
HETATM   25  N   UNL     1     -11.358  16.715  70.510  1.00  0.00    -0.451 N  
HETATM   26  O   UNL     1     -12.262  15.817  72.383  1.00  0.00    -0.382 OA 
HETATM   27  H   UNL     1     -11.203  17.602  70.988  1.00  0.00     0.000 HD 
HETATM   28  C   UNL     1     -10.981  16.612  69.155  1.00  0.00    -0.276 A  
HETATM   29  C   UNL     1     -10.403  17.709  68.510  1.00  0.00    -0.370 A  
HETATM   30  C   UNL     1     -10.075  17.626  67.166  1.00  0.00    -0.328 A  
HETATM   31  O   UNL     1     -10.117  18.889  69.142  1.00  0.00    -0.486 OA 
HETATM   32  C   UNL     1     -10.347  16.453  66.449  1.00  0.00    -0.319 A  
HETATM   33  H   UNL     1      -9.724  19.634  68.703  1.00  0.00     0.000 HD 
ENDBRANCH  17  20
ENDBRANCH  16  17
ENDBRANCH  14  16
ENDBRANCH  10  14
ENDBRANCH   2   3
TORSDOF 6
ENDMDL
MODEL       96
REMARK 921   NORMALIZED FREE ENERGY PREDICTED BY IDOCK:   -5.82 KCAL/MOL
REMARK 922        TOTAL FREE ENERGY PREDICTED BY IDOCK:   -9.14 KCAL/MOL
REMARK 923 INTER-LIGAND FREE ENERGY PREDICTED BY IDOCK:   -8.96 KCAL/MOL
REMARK 924 INTRA-LIGAND FREE ENERGY PREDICTED BY IDOCK:   -0.19 KCAL/MOL
REMARK 927      BINDING AFFINITY PREDICTED BY RF-SCORE:    0.00 PKD
ROOT
HETATM    1  C   UNL     1     -10.752   5.311  73.271  1.00  0.00    -0.325 C  
HETATM    2  C   UNL     1     -10.849   5.162  71.761  1.00  0.00    -0.149 C  
ENDROOT
BRANCH   2   3
HETATM    3  C   UNL     1     -10.570   6.372  70.890  1.00  0.00    -0.285 A  
HETATM    4  C   UNL     1      -9.410   6.327  70.063  1.00  0.00    -0.164 A  
HETATM    5  C   UNL     1      -9.309   7.201  68.980  1.00  0.00    -0.140 A  
HETATM    6  C   UNL     1     -11.315   7.569  70.927  1.00  0.00    -0.297 A  
HETATM    7  C   UNL     1     -10.955   8.582  70.044  1.00  0.00    -0.197 A  
HETATM    8  C   UNL     1     -10.145   8.295  68.944  1.00  0.00    -0.208 A  
HETATM    9  C   UNL     1      -9.845   9.547  68.181  1.00  0.00    -0.177 C  
HETATM   10  C   UNL     1      -9.570  10.406  69.426  1.00  0.00    -0.192 C  
HETATM   11  C   UNL     1     -10.898  10.106  70.261  1.00  0.00    -0.370 C  
BRANCH   4  12
HETATM   12  C   UNL     1      -8.209   5.508  70.509  1.00  0.00    -0.112 C  
HETATM   13  C   UNL     1      -6.907   6.273  70.749  1.00  0.00    -0.063 C  
ENDBRANCH   4  12
BRANCH  10  14
HETATM   14  N   UNL     1      -9.017  11.745  69.135  1.00  0.00    -0.300 NA 
HETATM   15  H   UNL     1      -8.149  11.923  69.640  1.00  0.00     0.000 HD 
BRANCH  14  16
HETATM   16  C   UNL     1      -8.853  11.906  67.641  1.00  0.00    -0.169 C  
BRANCH  16  17
HETATM   17  C   UNL     1      -8.375  13.298  67.145  1.00  0.00    -0.135 C  
HETATM   18  H   UNL     1      -7.680  14.911  67.992  1.00  0.00     0.000 HD 
HETATM   19  O   UNL     1      -7.972  14.060  68.296  1.00  0.00    -0.129 OA 
BRANCH  17  20
HETATM   20  C   UNL     1      -9.413  14.092  66.326  1.00  0.00    -0.264 A  
HETATM   21  C   UNL     1     -10.374  13.469  65.494  1.00  0.00    -0.309 A  
HETATM   22  C   UNL     1     -10.599  12.017  65.481  1.00  0.00    -0.313 C  
HETATM   23  C   UNL     1     -11.469  11.448  64.637  1.00  0.00    -0.090 C  
HETATM   24  C   UNL     1     -12.223  12.264  63.650  1.00  0.00    -0.567 C  
HETATM   25  N   UNL     1     -12.054  13.618  63.714  1.00  0.00    -0.762 N  
HETATM   26  O   UNL     1     -12.963  11.738  62.834  1.00  0.00    -0.367 OA 
HETATM   27  H   UNL     1     -12.590  14.201  63.071  1.00  0.00     0.000 HD 
HETATM   28  C   UNL     1     -11.181  14.255  64.620  1.00  0.00    -0.366 A  
HETATM   29  C   UNL     1     -11.080  15.649  64.624  1.00  0.00    -0.373 A  
HETATM   30  C   UNL     1     -10.189  16.274  65.482  1.00  0.00    -0.326 A  
HETATM   31  O   UNL     1     -11.837  16.461  63.824  1.00  0.00    -1.455 OA 
HETATM   32  C   UNL     1      -9.373  15.508  66.325  1.00  0.00    -0.355 A  
HETATM   33  H   UNL     1     -11.768  17.408  63.826  1.00  0.00     0.000 HD 
ENDBRANCH  17  20
ENDBRANCH  16  17
ENDBRANCH  14  16
ENDBRANCH  10  14
ENDBRANCH   2   3
TORSDOF 6
ENDMDL
MODEL       97
REMARK 921   NORMALIZED FREE ENERGY PREDICTED BY IDOCK:   -5.81 KCAL/MOL
REMARK 922        TOTAL FREE ENERGY PREDICTED BY IDOCK:   -9.13 KCAL/MOL
REMARK 923 INTER-LIGAND FREE ENERGY PREDICTED BY IDOCK:   -8.60 KCAL/MOL
REMARK 924 INTRA-LIGAND FREE ENERGY PREDICTED BY IDOCK:   -0.53 KCAL/MOL
REMARK 927      BINDING AFFINITY PREDICTED BY RF-SCORE:    0.00 PKD
ROOT
HETATM    1  C   UNL     1      -5.695   5.565  74.124  1.00  0.00    -0.047 C  
HETATM    2  C   UNL     1      -7.080   4.957  74.270  1.00  0.00    -0.077 C  
ENDROOT
BRANCH   2   3
HETATM    3  C   UNL     1      -8.277   5.745  73.774  1.00  0.00    -0.110 A  
HETATM    4  C   UNL     1      -9.510   5.043  73.641  1.00  0.00    -0.131 A  
HETATM    5  C   UNL     1     -10.704   5.764  73.576  1.00  0.00    -0.300 A  
HETATM    6  C   UNL     1      -8.224   7.085  73.338  1.00  0.00    -0.126 A  
HETATM    7  C   UNL     1      -9.415   7.683  72.939  1.00  0.00    -0.262 A  
HETATM    8  C   UNL     1     -10.638   7.111  73.294  1.00  0.00    -0.405 A  
HETATM    9  C   UNL     1     -11.768   7.894  72.703  1.00  0.00    -0.398 C  
HETATM   10  C   UNL     1     -11.109   8.067  71.324  1.00  0.00    -0.247 C  
HETATM   11  C   UNL     1      -9.692   8.650  71.772  1.00  0.00    -0.361 C  
BRANCH   4  12
HETATM   12  C   UNL     1      -9.491   3.555  73.332  1.00  0.00    -0.127 C  
HETATM   13  C   UNL     1      -9.829   2.609  74.484  1.00  0.00    -0.148 C  
ENDBRANCH   4  12
BRANCH  10  14
HETATM   14  N   UNL     1     -11.994   8.647  70.293  1.00  0.00    -0.436 NA 
HETATM   15  H   UNL     1     -12.751   8.015  70.033  1.00  0.00     0.000 HD 
BRANCH  14  16
HETATM   16  C   UNL     1     -12.507   9.987  70.769  1.00  0.00    -0.295 C  
BRANCH  16  17
HETATM   17  C   UNL     1     -12.154  11.215  69.885  1.00  0.00    -0.344 C  
HETATM   18  H   UNL     1     -10.538  11.888  69.024  1.00  0.00     0.000 HD 
HETATM   19  O   UNL     1     -10.754  11.137  69.565  1.00  0.00    -0.222 OA 
BRANCH  17  20
HETATM   20  C   UNL     1     -12.473  12.587  70.513  1.00  0.00    -0.266 A  
HETATM   21  C   UNL     1     -12.151  13.813  69.883  1.00  0.00    -0.412 A  
HETATM   22  C   UNL     1     -11.663  13.897  68.500  1.00  0.00    -0.390 C  
HETATM   23  C   UNL     1     -11.304  15.065  67.951  1.00  0.00    -0.344 C  
HETATM   24  C   UNL     1     -11.353  16.327  68.735  1.00  0.00    -0.329 C  
HETATM   25  N   UNL     1     -11.869  16.247  69.997  1.00  0.00    -0.331 N  
HETATM   26  O   UNL     1     -10.961  17.379  68.258  1.00  0.00    -0.317 OA 
HETATM   27  H   UNL     1     -11.947  17.106  70.541  1.00  0.00     0.000 HD 
HETATM   28  C   UNL     1     -12.300  15.042  70.591  1.00  0.00    -0.348 A  
HETATM   29  C   UNL     1     -12.826  15.054  71.885  1.00  0.00    -0.337 A  
HETATM   30  C   UNL     1     -13.206  13.866  72.488  1.00  0.00    -0.601 A  
HETATM   31  O   UNL     1     -13.010  16.200  72.612  1.00  0.00    -0.429 OA 
HETATM   32  C   UNL     1     -13.040  12.652  71.810  1.00  0.00    -0.461 A  
HETATM   33  H   UNL     1     -13.367  16.208  73.492  1.00  0.00     0.000 HD 
ENDBRANCH  17  20
ENDBRANCH  16  17
ENDBRANCH  14  16
ENDBRANCH  10  14
ENDBRANCH   2   3
TORSDOF 6
ENDMDL
MODEL       98
REMARK 921   NORMALIZED FREE ENERGY PREDICTED BY IDOCK:   -5.79 KCAL/MOL
REMARK 922        TOTAL FREE ENERGY PREDICTED BY IDOCK:   -9.10 KCAL/MOL
REMARK 923 INTER-LIGAND FREE ENERGY PREDICTED BY IDOCK:   -8.71 KCAL/MOL
REMARK 924 INTRA-LIGAND FREE ENERGY PREDICTED BY IDOCK:   -0.39 KCAL/MOL
REMARK 927      BINDING AFFINITY PREDICTED BY RF-SCORE:    0.00 PKD
ROOT
HETATM    1  C   UNL     1     -12.715   6.908  71.771  1.00  0.00    -0.369 C  
HETATM    2  C   UNL     1     -11.897   8.085  72.275  1.00  0.00    -0.424 C  
ENDROOT
BRANCH   2   3
HETATM    3  C   UNL     1     -11.799   9.328  71.411  1.00  0.00    -0.428 A  
HETATM    4  C   UNL     1     -10.809   9.333  70.387  1.00  0.00    -0.302 A  
HETATM    5  C   UNL     1     -10.919  10.243  69.334  1.00  0.00    -0.289 A  
HETATM    6  C   UNL     1     -12.543  10.507  71.624  1.00  0.00    -0.498 A  
HETATM    7  C   UNL     1     -12.365  11.555  70.727  1.00  0.00    -0.472 A  
HETATM    8  C   UNL     1     -11.764  11.320  69.488  1.00  0.00    -0.415 A  
HETATM    9  C   UNL     1     -11.627  12.601  68.728  1.00  0.00    -0.355 C  
HETATM   10  C   UNL     1     -11.143  13.426  69.932  1.00  0.00     0.223 C  
HETATM   11  C   UNL     1     -12.293  13.072  70.983  1.00  0.00    -0.335 C  
BRANCH   4  12
HETATM   12  C   UNL     1      -9.534   8.527  70.578  1.00  0.00    -0.193 C  
HETATM   13  C   UNL     1      -8.227   9.196  70.154  1.00  0.00    -0.161 C  
ENDBRANCH   4  12
BRANCH  10  14
HETATM   14  N   UNL     1     -10.673  14.785  69.593  1.00  0.00    -0.365 NA 
HETATM   15  H   UNL     1     -11.180  15.507  70.103  1.00  0.00     0.000 HD 
BRANCH  14  16
HETATM   16  C   UNL     1      -9.180  14.869  69.813  1.00  0.00     0.199 C  
BRANCH  16  17
HETATM   17  C   UNL     1      -8.301  15.014  68.541  1.00  0.00    -0.161 C  
HETATM   18  H   UNL     1      -6.826  16.167  67.995  1.00  0.00     0.000 HD 
HETATM   19  O   UNL     1      -7.364  16.079  68.774  1.00  0.00    -0.144 OA 
BRANCH  17  20
HETATM   20  C   UNL     1      -9.079  15.275  67.235  1.00  0.00    -0.210 A  
HETATM   21  C   UNL     1      -9.451  16.573  66.809  1.00  0.00    -0.266 A  
HETATM   22  C   UNL     1      -8.969  17.797  67.464  1.00  0.00    -0.244 C  
HETATM   23  C   UNL     1      -9.389  19.010  67.081  1.00  0.00    -0.345 C  
HETATM   24  C   UNL     1     -10.391  19.166  65.994  1.00  0.00    -0.463 C  
HETATM   25  N   UNL     1     -10.782  18.027  65.351  1.00  0.00    -0.095 N  
HETATM   26  O   UNL     1     -10.825  20.266  65.693  1.00  0.00    -0.228 OA 
HETATM   27  H   UNL     1     -11.441  18.114  64.577  1.00  0.00     0.000 HD 
HETATM   28  C   UNL     1     -10.327  16.738  65.696  1.00  0.00    -0.265 A  
HETATM   29  C   UNL     1     -10.772  15.627  64.975  1.00  0.00    -0.436 A  
HETATM   30  C   UNL     1     -10.362  14.355  65.342  1.00  0.00    -0.400 A  
HETATM   31  O   UNL     1     -11.599  15.718  63.888  1.00  0.00    -0.981 OA 
HETATM   32  C   UNL     1      -9.523  14.182  66.450  1.00  0.00    -0.289 A  
HETATM   33  H   UNL     1     -11.902  14.963  63.398  1.00  0.00     0.000 HD 
ENDBRANCH  17  20
ENDBRANCH  16  17
ENDBRANCH  14  16
ENDBRANCH  10  14
ENDBRANCH   2   3
TORSDOF 6
ENDMDL
MODEL       99
REMARK 921   NORMALIZED FREE ENERGY PREDICTED BY IDOCK:   -5.79 KCAL/MOL
REMARK 922        TOTAL FREE ENERGY PREDICTED BY IDOCK:   -9.10 KCAL/MOL
REMARK 923 INTER-LIGAND FREE ENERGY PREDICTED BY IDOCK:   -8.29 KCAL/MOL
REMARK 924 INTRA-LIGAND FREE ENERGY PREDICTED BY IDOCK:   -0.80 KCAL/MOL
REMARK 927      BINDING AFFINITY PREDICTED BY RF-SCORE:    0.00 PKD
ROOT
HETATM    1  C   UNL     1     -10.383   5.058  66.442  1.00  0.00    -0.335 C  
HETATM    2  C   UNL     1     -10.900   6.343  67.067  1.00  0.00    -0.464 C  
ENDROOT
BRANCH   2   3
HETATM    3  C   UNL     1      -9.897   7.387  67.521  1.00  0.00    -0.203 A  
HETATM    4  C   UNL     1      -9.629   7.469  68.919  1.00  0.00    -0.149 A  
HETATM    5  C   UNL     1      -8.468   8.107  69.356  1.00  0.00    -0.127 A  
HETATM    6  C   UNL     1      -9.302   8.343  66.673  1.00  0.00    -0.245 A  
HETATM    7  C   UNL     1      -8.376   9.218  67.232  1.00  0.00    -0.125 A  
HETATM    8  C   UNL     1      -7.803   8.929  68.472  1.00  0.00    -0.103 A  
HETATM    9  C   UNL     1      -6.892  10.038  68.892  1.00  0.00    -0.054 C  
HETATM   10  C   UNL     1      -7.846  11.168  68.473  1.00  0.00    -0.136 C  
HETATM   11  C   UNL     1      -8.154  10.720  66.971  1.00  0.00    -0.124 C  
BRANCH   4  12
HETATM   12  C   UNL     1     -10.715   7.080  69.909  1.00  0.00    -0.265 C  
HETATM   13  C   UNL     1     -10.468   7.437  71.375  1.00  0.00    -0.218 C  
ENDBRANCH   4  12
BRANCH  10  14
HETATM   14  N   UNL     1      -7.421  12.517  68.900  1.00  0.00    -0.283 NA 
HETATM   15  H   UNL     1      -6.444  12.540  69.190  1.00  0.00     0.000 HD 
BRANCH  14  16
HETATM   16  C   UNL     1      -7.712  13.508  67.796  1.00  0.00    -0.163 C  
BRANCH  16  17
HETATM   17  C   UNL     1      -8.549  14.756  68.192  1.00  0.00    -0.159 C  
HETATM   18  H   UNL     1      -9.789  15.198  69.631  1.00  0.00     0.000 HD 
HETATM   19  O   UNL     1      -9.277  14.434  69.390  1.00  0.00     0.096 OA 
BRANCH  17  20
HETATM   20  C   UNL     1      -9.521  15.262  67.107  1.00  0.00    -0.223 A  
HETATM   21  C   UNL     1     -10.481  14.427  66.485  1.00  0.00    -0.289 A  
HETATM   22  C   UNL     1     -10.771  13.062  66.946  1.00  0.00    -0.273 C  
HETATM   23  C   UNL     1     -11.636  12.271  66.299  1.00  0.00    -0.446 C  
HETATM   24  C   UNL     1     -12.318  12.733  65.062  1.00  0.00    -0.499 C  
HETATM   25  N   UNL     1     -12.091  14.024  64.680  1.00  0.00    -0.420 N  
HETATM   26  O   UNL     1     -13.053  11.988  64.435  1.00  0.00    -0.655 OA 
HETATM   27  H   UNL     1     -12.577  14.374  63.854  1.00  0.00     0.000 HD 
HETATM   28  C   UNL     1     -11.222  14.900  65.362  1.00  0.00    -0.359 A  
HETATM   29  C   UNL     1     -11.057  16.211  64.907  1.00  0.00    -0.325 A  
HETATM   30  C   UNL     1     -10.168  17.059  65.548  1.00  0.00    -0.111 A  
HETATM   31  O   UNL     1     -11.749  16.731  63.847  1.00  0.00    -1.363 OA 
HETATM   32  C   UNL     1      -9.417  16.595  66.636  1.00  0.00    -0.271 A  
HETATM   33  H   UNL     1     -11.636  17.622  63.536  1.00  0.00     0.000 HD 
ENDBRANCH  17  20
ENDBRANCH  16  17
ENDBRANCH  14  16
ENDBRANCH  10  14
ENDBRANCH   2   3
TORSDOF 6
ENDMDL
MODEL      100
REMARK 921   NORMALIZED FREE ENERGY PREDICTED BY IDOCK:   -5.78 KCAL/MOL
REMARK 922        TOTAL FREE ENERGY PREDICTED BY IDOCK:   -9.09 KCAL/MOL
REMARK 923 INTER-LIGAND FREE ENERGY PREDICTED BY IDOCK:   -8.33 KCAL/MOL
REMARK 924 INTRA-LIGAND FREE ENERGY PREDICTED BY IDOCK:   -0.76 KCAL/MOL
REMARK 927      BINDING AFFINITY PREDICTED BY RF-SCORE:    0.00 PKD
ROOT
HETATM    1  C   UNL     1      -5.543   4.843  68.820  1.00  0.00    -0.012 C  
HETATM    2  C   UNL     1      -7.007   4.665  68.453  1.00  0.00    -0.056 C  
ENDROOT
BRANCH   2   3
HETATM    3  C   UNL     1      -8.020   5.655  68.997  1.00  0.00    -0.096 A  
HETATM    4  C   UNL     1      -9.397   5.309  68.878  1.00  0.00    -0.163 A  
HETATM    5  C   UNL     1     -10.337   5.956  69.682  1.00  0.00    -0.313 A  
HETATM    6  C   UNL     1      -7.695   6.928  69.508  1.00  0.00    -0.104 A  
HETATM    7  C   UNL     1      -8.734   7.712  69.999  1.00  0.00    -0.142 A  
HETATM    8  C   UNL     1      -9.967   7.130  70.302  1.00  0.00    -0.191 A  
HETATM    9  C   UNL     1     -10.937   8.175  70.752  1.00  0.00    -0.261 C  
HETATM   10  C   UNL     1     -10.555   9.196  69.667  1.00  0.00    -0.228 C  
HETATM   11  C   UNL     1      -8.971   9.229  69.872  1.00  0.00    -0.194 C  
BRANCH   4  12
HETATM   12  C   UNL     1      -9.848   4.428  67.723  1.00  0.00    -0.152 C  
HETATM   13  C   UNL     1     -10.428   5.140  66.501  1.00  0.00    -0.346 C  
ENDBRANCH   4  12
BRANCH  10  14
HETATM   14  N   UNL     1     -11.441  10.376  69.599  1.00  0.00    -0.282 NA 
HETATM   15  H   UNL     1     -11.561  10.821  70.508  1.00  0.00     0.000 HD 
BRANCH  14  16
HETATM   16  C   UNL     1     -10.917  11.337  68.557  1.00  0.00    -0.220 C  
BRANCH  16  17
HETATM   17  C   UNL     1     -11.859  12.508  68.162  1.00  0.00    -0.317 C  
HETATM   18  H   UNL     1     -12.613  13.181  66.494  1.00  0.00     0.000 HD 
HETATM   19  O   UNL     1     -12.037  12.465  66.735  1.00  0.00    -0.578 OA 
BRANCH  17  20
HETATM   20  C   UNL     1     -11.375  13.909  68.589  1.00  0.00    -0.310 A  
HETATM   21  C   UNL     1     -11.677  14.473  69.852  1.00  0.00    -0.354 A  
HETATM   22  C   UNL     1     -12.308  13.709  70.938  1.00  0.00    -0.450 C  
HETATM   23  C   UNL     1     -12.641  14.286  72.100  1.00  0.00    -0.352 C  
HETATM   24  C   UNL     1     -12.416  15.737  72.327  1.00  0.00    -0.450 C  
HETATM   25  N   UNL     1     -11.772  16.422  71.337  1.00  0.00    -0.649 N  
HETATM   26  O   UNL     1     -12.784  16.276  73.358  1.00  0.00    -0.491 OA 
HETATM   27  H   UNL     1     -11.574  17.411  71.486  1.00  0.00     0.000 HD 
HETATM   28  C   UNL     1     -11.365  15.838  70.119  1.00  0.00    -0.355 A  
HETATM   29  C   UNL     1     -10.700  16.612  69.165  1.00  0.00    -0.342 A  
HETATM   30  C   UNL     1     -10.340  16.052  67.950  1.00  0.00    -0.269 A  
HETATM   31  O   UNL     1     -10.356  17.922  69.365  1.00  0.00    -0.384 OA 
HETATM   32  C   UNL     1     -10.666  14.719  67.668  1.00  0.00    -0.270 A  
HETATM   33  H   UNL     1      -9.905  18.448  68.716  1.00  0.00     0.000 HD 
ENDBRANCH  17  20
ENDBRANCH  16  17
ENDBRANCH  14  16
ENDBRANCH  10  14
ENDBRANCH   2   3
TORSDOF 6
ENDMDL
MODEL      101
REMARK 921   NORMALIZED FREE ENERGY PREDICTED BY IDOCK:   -5.77 KCAL/MOL
REMARK 922        TOTAL FREE ENERGY PREDICTED BY IDOCK:   -9.07 KCAL/MOL
REMARK 923 INTER-LIGAND FREE ENERGY PREDICTED BY IDOCK:   -8.29 KCAL/MOL
REMARK 924 INTRA-LIGAND FREE ENERGY PREDICTED BY IDOCK:   -0.78 KCAL/MOL
REMARK 927      BINDING AFFINITY PREDICTED BY RF-SCORE:    0.00 PKD
ROOT
HETATM    1  C   UNL     1      -7.306   2.883  66.904  1.00  0.00    -0.069 C  
HETATM    2  C   UNL     1      -7.220   3.828  68.091  1.00  0.00    -0.055 C  
ENDROOT
BRANCH   2   3
HETATM    3  C   UNL     1      -8.167   5.011  68.151  1.00  0.00    -0.096 A  
HETATM    4  C   UNL     1      -7.627   6.295  67.847  1.00  0.00    -0.102 A  
HETATM    5  C   UNL     1      -8.490   7.336  67.503  1.00  0.00    -0.119 A  
HETATM    6  C   UNL     1      -9.506   4.939  68.588  1.00  0.00    -0.198 A  
HETATM    7  C   UNL     1     -10.260   6.108  68.557  1.00  0.00    -0.221 A  
HETATM    8  C   UNL     1      -9.829   7.199  67.799  1.00  0.00    -0.175 A  
HETATM    9  C   UNL     1     -10.765   8.352  67.972  1.00  0.00    -0.118 C  
HETATM   10  C   UNL     1     -10.908   8.188  69.494  1.00  0.00    -0.121 C  
HETATM   11  C   UNL     1     -11.296   6.640  69.565  1.00  0.00    -0.358 C  
BRANCH   4  12
HETATM   12  C   UNL     1      -6.160   6.573  68.134  1.00  0.00    -0.028 C  
HETATM   13  C   UNL     1      -5.851   7.756  69.051  1.00  0.00    -0.031 C  
ENDBRANCH   4  12
BRANCH  10  14
HETATM   14  N   UNL     1     -11.631   9.290  70.162  1.00  0.00    -0.450 NA 
HETATM   15  H   UNL     1     -11.678   9.164  71.173  1.00  0.00     0.000 HD 
BRANCH  14  16
HETATM   16  C   UNL     1     -11.000  10.609  69.779  1.00  0.00    -0.280 C  
BRANCH  16  17
HETATM   17  C   UNL     1     -11.952  11.684  69.187  1.00  0.00    -0.313 C  
HETATM   18  H   UNL     1     -12.634  12.108  67.410  1.00  0.00     0.000 HD 
HETATM   19  O   UNL     1     -12.052  11.450  67.772  1.00  0.00    -0.637 OA 
BRANCH  17  20
HETATM   20  C   UNL     1     -11.533  13.145  69.450  1.00  0.00    -0.321 A  
HETATM   21  C   UNL     1     -12.061  13.915  70.514  1.00  0.00    -0.426 A  
HETATM   22  C   UNL     1     -12.902  13.343  71.575  1.00  0.00    -0.427 C  
HETATM   23  C   UNL     1     -13.441  14.108  72.533  1.00  0.00    -0.634 C  
HETATM   24  C   UNL     1     -13.236  15.580  72.544  1.00  0.00    -0.473 C  
HETATM   25  N   UNL     1     -12.401  16.092  71.592  1.00  0.00    -0.557 N  
HETATM   26  O   UNL     1     -13.784  16.284  73.375  1.00  0.00    -0.597 OA 
HETATM   27  H   UNL     1     -12.216  17.095  71.603  1.00  0.00     0.000 HD 
HETATM   28  C   UNL     1     -11.779  15.311  70.596  1.00  0.00    -0.332 A  
HETATM   29  C   UNL     1     -10.929  15.917  69.668  1.00  0.00    -0.319 A  
HETATM   30  C   UNL     1     -10.354  15.160  68.660  1.00  0.00    -0.232 A  
HETATM   31  O   UNL     1     -10.605  17.247  69.700  1.00  0.00    -0.340 OA 
HETATM   32  C   UNL     1     -10.645  13.793  68.557  1.00  0.00    -0.261 A  
HETATM   33  H   UNL     1     -10.027  17.659  69.069  1.00  0.00     0.000 HD 
ENDBRANCH  17  20
ENDBRANCH  16  17
ENDBRANCH  14  16
ENDBRANCH  10  14
ENDBRANCH   2   3
TORSDOF 6
ENDMDL
MODEL      102
REMARK 921   NORMALIZED FREE ENERGY PREDICTED BY IDOCK:   -5.77 KCAL/MOL
REMARK 922        TOTAL FREE ENERGY PREDICTED BY IDOCK:   -9.07 KCAL/MOL
REMARK 923 INTER-LIGAND FREE ENERGY PREDICTED BY IDOCK:   -8.43 KCAL/MOL
REMARK 924 INTRA-LIGAND FREE ENERGY PREDICTED BY IDOCK:   -0.63 KCAL/MOL
REMARK 927      BINDING AFFINITY PREDICTED BY RF-SCORE:    0.00 PKD
ROOT
HETATM    1  C   UNL     1      -5.823   8.693  67.202  1.00  0.00    -0.043 C  
HETATM    2  C   UNL     1      -6.530   8.164  65.965  1.00  0.00    -0.046 C  
ENDROOT
BRANCH   2   3
HETATM    3  C   UNL     1      -7.550   9.049  65.274  1.00  0.00    -0.098 A  
HETATM    4  C   UNL     1      -7.197   9.579  63.999  1.00  0.00    -0.111 A  
HETATM    5  C   UNL     1      -8.201  10.057  63.155  1.00  0.00    -0.159 A  
HETATM    6  C   UNL     1      -8.767   9.464  65.853  1.00  0.00    -0.177 A  
HETATM    7  C   UNL     1      -9.615  10.253  65.082  1.00  0.00    -0.337 A  
HETATM    8  C   UNL     1      -9.438  10.323  63.699  1.00  0.00    -0.348 A  
HETATM    9  C   UNL     1     -10.424  11.274  63.098  1.00  0.00    -0.293 C  
HETATM   10  C   UNL     1     -10.254  12.352  64.182  1.00  0.00    -0.351 C  
HETATM   11  C   UNL     1     -10.479  11.461  65.488  1.00  0.00    -0.322 C  
BRANCH   4  12
HETATM   12  C   UNL     1      -5.733   9.838  63.680  1.00  0.00    -0.105 C  
HETATM   13  C   UNL     1      -5.439  10.878  62.598  1.00  0.00    -0.161 C  
ENDBRANCH   4  12
BRANCH  10  14
HETATM   14  N   UNL     1     -10.930  13.631  63.882  1.00  0.00    -0.496 NA 
HETATM   15  H   UNL     1     -11.940  13.572  64.007  1.00  0.00     0.000 HD 
BRANCH  14  16
HETATM   16  C   UNL     1     -10.315  14.731  64.717  1.00  0.00    -0.226 C  
BRANCH  16  17
HETATM   17  C   UNL     1     -11.227  15.947  65.039  1.00  0.00    -0.290 C  
HETATM   18  H   UNL     1     -11.930  17.461  64.031  1.00  0.00     0.000 HD 
HETATM   19  O   UNL     1     -11.372  16.718  63.834  1.00  0.00    -1.033 OA 
BRANCH  17  20
HETATM   20  C   UNL     1     -10.732  16.851  66.185  1.00  0.00    -0.109 A  
HETATM   21  C   UNL     1     -10.807  16.475  67.548  1.00  0.00    -0.237 A  
HETATM   22  C   UNL     1     -11.182  15.122  67.984  1.00  0.00    -0.329 C  
HETATM   23  C   UNL     1     -11.309  14.812  69.281  1.00  0.00    -0.317 C  
HETATM   24  C   UNL     1     -11.107  15.838  70.337  1.00  0.00    -0.366 C  
HETATM   25  N   UNL     1     -10.697  17.074  69.924  1.00  0.00    -0.288 N  
HETATM   26  O   UNL     1     -11.291  15.573  71.513  1.00  0.00    -0.377 OA 
HETATM   27  H   UNL     1     -10.517  17.783  70.634  1.00  0.00     0.000 HD 
HETATM   28  C   UNL     1     -10.509  17.423  68.570  1.00  0.00    -0.370 A  
HETATM   29  C   UNL     1     -10.075  18.709  68.238  1.00  0.00    -0.389 A  
HETATM   30  C   UNL     1      -9.934  19.069  66.908  1.00  0.00    -0.411 A  
HETATM   31  O   UNL     1      -9.757  19.660  69.170  1.00  0.00    -0.403 OA 
HETATM   32  C   UNL     1     -10.250  18.152  65.896  1.00  0.00    -0.239 A  
HETATM   33  H   UNL     1      -9.463  20.534  68.945  1.00  0.00     0.000 HD 
ENDBRANCH  17  20
ENDBRANCH  16  17
ENDBRANCH  14  16
ENDBRANCH  10  14
ENDBRANCH   2   3
TORSDOF 6
ENDMDL
MODEL      103
REMARK 921   NORMALIZED FREE ENERGY PREDICTED BY IDOCK:   -5.75 KCAL/MOL
REMARK 922        TOTAL FREE ENERGY PREDICTED BY IDOCK:   -9.04 KCAL/MOL
REMARK 923 INTER-LIGAND FREE ENERGY PREDICTED BY IDOCK:   -7.77 KCAL/MOL
REMARK 924 INTRA-LIGAND FREE ENERGY PREDICTED BY IDOCK:   -1.27 KCAL/MOL
REMARK 927      BINDING AFFINITY PREDICTED BY RF-SCORE:    0.00 PKD
ROOT
HETATM    1  C   UNL     1     -10.644   5.105  66.248  1.00  0.00    -0.325 C  
HETATM    2  C   UNL     1     -10.851   6.125  67.356  1.00  0.00    -0.431 C  
ENDROOT
BRANCH   2   3
HETATM    3  C   UNL     1     -10.088   7.434  67.292  1.00  0.00    -0.296 A  
HETATM    4  C   UNL     1      -8.682   7.359  67.068  1.00  0.00    -0.123 A  
HETATM    5  C   UNL     1      -8.001   8.490  66.615  1.00  0.00    -0.100 A  
HETATM    6  C   UNL     1     -10.655   8.700  67.545  1.00  0.00    -0.292 A  
HETATM    7  C   UNL     1      -9.832   9.815  67.419  1.00  0.00    -0.219 A  
HETATM    8  C   UNL     1      -8.621   9.715  66.729  1.00  0.00    -0.140 A  
HETATM    9  C   UNL     1      -7.888  11.018  66.779  1.00  0.00    -0.149 C  
HETATM   10  C   UNL     1      -8.171  11.279  68.268  1.00  0.00    -0.143 C  
HETATM   11  C   UNL     1      -9.756  11.089  68.280  1.00  0.00    -0.181 C  
BRANCH   4  12
HETATM   12  C   UNL     1      -7.915   6.139  67.550  1.00  0.00    -0.106 C  
HETATM   13  C   UNL     1      -6.544   5.895  66.919  1.00  0.00    -0.056 C  
ENDBRANCH   4  12
BRANCH  10  14
HETATM   14  N   UNL     1      -7.435  12.427  68.837  1.00  0.00    -0.279 NA 
HETATM   15  H   UNL     1      -6.690  12.134  69.468  1.00  0.00     0.000 HD 
BRANCH  14  16
HETATM   16  C   UNL     1      -6.921  13.300  67.714  1.00  0.00    -0.153 C  
BRANCH  16  17
HETATM   17  C   UNL     1      -7.507  14.737  67.634  1.00  0.00    -0.184 C  
HETATM   18  H   UNL     1      -6.990  16.488  68.321  1.00  0.00     0.000 HD 
HETATM   19  O   UNL     1      -6.632  15.609  68.370  1.00  0.00    -0.109 OA 
BRANCH  17  20
HETATM   20  C   UNL     1      -8.952  14.884  68.150  1.00  0.00    -0.176 A  
HETATM   21  C   UNL     1     -10.083  14.521  67.381  1.00  0.00    -0.235 A  
HETATM   22  C   UNL     1      -9.983  13.795  66.107  1.00  0.00    -0.318 C  
HETATM   23  C   UNL     1     -11.066  13.521  65.367  1.00  0.00    -0.302 C  
HETATM   24  C   UNL     1     -12.417  13.972  65.792  1.00  0.00    -0.494 C  
HETATM   25  N   UNL     1     -12.506  14.588  67.008  1.00  0.00    -0.467 N  
HETATM   26  O   UNL     1     -13.393  13.784  65.085  1.00  0.00    -0.688 OA 
HETATM   27  H   UNL     1     -13.429  14.873  67.336  1.00  0.00     0.000 HD 
HETATM   28  C   UNL     1     -11.394  14.852  67.834  1.00  0.00    -0.327 A  
HETATM   29  C   UNL     1     -11.579  15.477  69.069  1.00  0.00    -0.365 A  
HETATM   30  C   UNL     1     -10.483  15.779  69.862  1.00  0.00    -0.324 A  
HETATM   31  O   UNL     1     -12.810  15.807  69.569  1.00  0.00    -0.506 OA 
HETATM   32  C   UNL     1      -9.190  15.481  69.413  1.00  0.00    -0.280 A  
HETATM   33  H   UNL     1     -12.936  16.233  70.409  1.00  0.00     0.000 HD 
ENDBRANCH  17  20
ENDBRANCH  16  17
ENDBRANCH  14  16
ENDBRANCH  10  14
ENDBRANCH   2   3
TORSDOF 6
ENDMDL
MODEL      104
REMARK 921   NORMALIZED FREE ENERGY PREDICTED BY IDOCK:   -5.75 KCAL/MOL
REMARK 922        TOTAL FREE ENERGY PREDICTED BY IDOCK:   -9.04 KCAL/MOL
REMARK 923 INTER-LIGAND FREE ENERGY PREDICTED BY IDOCK:   -7.63 KCAL/MOL
REMARK 924 INTRA-LIGAND FREE ENERGY PREDICTED BY IDOCK:   -1.41 KCAL/MOL
REMARK 927      BINDING AFFINITY PREDICTED BY RF-SCORE:    0.00 PKD
ROOT
HETATM    1  C   UNL     1      -5.390  16.906  68.674  1.00  0.00    -0.124 C  
HETATM    2  C   UNL     1      -5.841  16.298  67.357  1.00  0.00    -0.182 C  
ENDROOT
BRANCH   2   3
HETATM    3  C   UNL     1      -7.312  15.979  67.167  1.00  0.00    -0.257 A  
HETATM    4  C   UNL     1      -7.762  14.698  67.602  1.00  0.00    -0.194 A  
HETATM    5  C   UNL     1      -9.125  14.490  67.820  1.00  0.00    -0.190 A  
HETATM    6  C   UNL     1      -8.229  16.814  66.497  1.00  0.00    -0.325 A  
HETATM    7  C   UNL     1      -9.555  16.397  66.430  1.00  0.00    -0.313 A  
HETATM    8  C   UNL     1     -10.017  15.395  67.286  1.00  0.00    -0.226 A  
HETATM    9  C   UNL     1     -11.447  15.076  66.987  1.00  0.00    -0.288 C  
HETATM   10  C   UNL     1     -11.273  15.081  65.459  1.00  0.00    -0.344 C  
HETATM   11  C   UNL     1     -10.565  16.501  65.271  1.00  0.00    -0.273 C  
BRANCH   4  12
HETATM   12  C   UNL     1      -6.796  13.525  67.589  1.00  0.00    -0.178 C  
HETATM   13  C   UNL     1      -6.434  12.917  68.944  1.00  0.00    -0.091 C  
ENDBRANCH   4  12
BRANCH  10  14
HETATM   14  N   UNL     1     -12.451  14.599  64.708  1.00  0.00    -0.500 NA 
HETATM   15  H   UNL     1     -13.108  15.349  64.497  1.00  0.00     0.000 HD 
BRANCH  14  16
HETATM   16  C   UNL     1     -11.990  13.876  63.463  1.00  0.00    -0.038 C  
BRANCH  16  17
HETATM   17  C   UNL     1     -12.160  12.332  63.458  1.00  0.00    -0.553 C  
HETATM   18  H   UNL     1     -13.402  11.069  64.274  1.00  0.00     0.000 HD 
HETATM   19  O   UNL     1     -13.298  12.013  64.277  1.00  0.00    -0.709 OA 
BRANCH  17  20
HETATM   20  C   UNL     1     -10.928  11.537  63.938  1.00  0.00    -0.474 A  
HETATM   21  C   UNL     1     -10.660  11.290  65.306  1.00  0.00    -0.323 A  
HETATM   22  C   UNL     1     -11.619  11.596  66.377  1.00  0.00    -0.140 C  
HETATM   23  C   UNL     1     -11.312  11.412  67.668  1.00  0.00    -0.359 C  
HETATM   24  C   UNL     1      -9.970  10.920  68.073  1.00  0.00    -0.171 C  
HETATM   25  N   UNL     1      -9.110  10.578  67.069  1.00  0.00    -0.143 N  
HETATM   26  O   UNL     1      -9.667  10.819  69.251  1.00  0.00    -0.198 OA 
HETATM   27  H   UNL     1      -8.196  10.203  67.323  1.00  0.00     0.000 HD 
HETATM   28  C   UNL     1      -9.415  10.715  65.698  1.00  0.00    -0.212 A  
HETATM   29  C   UNL     1      -8.479  10.329  64.736  1.00  0.00    -0.174 A  
HETATM   30  C   UNL     1      -8.758  10.506  63.390  1.00  0.00    -0.190 A  
HETATM   31  O   UNL     1      -7.274   9.757  65.045  1.00  0.00    -0.114 OA 
HETATM   32  C   UNL     1      -9.967  11.094  62.996  1.00  0.00    -0.347 A  
HETATM   33  H   UNL     1      -6.637   9.495  64.391  1.00  0.00     0.000 HD 
ENDBRANCH  17  20
ENDBRANCH  16  17
ENDBRANCH  14  16
ENDBRANCH  10  14
ENDBRANCH   2   3
TORSDOF 6
ENDMDL
MODEL      105
REMARK 921   NORMALIZED FREE ENERGY PREDICTED BY IDOCK:   -5.75 KCAL/MOL
REMARK 922        TOTAL FREE ENERGY PREDICTED BY IDOCK:   -9.04 KCAL/MOL
REMARK 923 INTER-LIGAND FREE ENERGY PREDICTED BY IDOCK:   -8.15 KCAL/MOL
REMARK 924 INTRA-LIGAND FREE ENERGY PREDICTED BY IDOCK:   -0.89 KCAL/MOL
REMARK 927      BINDING AFFINITY PREDICTED BY RF-SCORE:    0.00 PKD
ROOT
HETATM    1  C   UNL     1      -7.141   1.617  65.978  1.00  0.00    -0.050 C  
HETATM    2  C   UNL     1      -7.692   2.750  65.127  1.00  0.00    -0.081 C  
ENDROOT
BRANCH   2   3
HETATM    3  C   UNL     1      -8.590   3.782  65.783  1.00  0.00    -0.112 A  
HETATM    4  C   UNL     1      -9.847   4.040  65.164  1.00  0.00    -0.203 A  
HETATM    5  C   UNL     1     -10.858   4.660  65.901  1.00  0.00    -0.024 A  
HETATM    6  C   UNL     1      -8.218   4.573  66.890  1.00  0.00    -0.102 A  
HETATM    7  C   UNL     1      -9.164   5.458  67.399  1.00  0.00    -0.112 A  
HETATM    8  C   UNL     1     -10.512   5.309  67.066  1.00  0.00    -0.290 A  
HETATM    9  C   UNL     1     -11.321   6.407  67.678  1.00  0.00    -0.071 C  
HETATM   10  C   UNL     1     -10.324   7.525  67.330  1.00  0.00    -0.296 C  
HETATM   11  C   UNL     1      -8.986   6.893  67.931  1.00  0.00    -0.121 C  
BRANCH   4  12
HETATM   12  C   UNL     1      -9.989   3.860  63.661  1.00  0.00    -0.175 C  
HETATM   13  C   UNL     1     -11.012   2.828  63.185  1.00  0.00    -0.189 C  
ENDBRANCH   4  12
BRANCH  10  14
HETATM   14  N   UNL     1     -10.824   8.892  67.588  1.00  0.00    -0.487 NA 
HETATM   15  H   UNL     1     -11.576   8.904  68.276  1.00  0.00     0.000 HD 
BRANCH  14  16
HETATM   16  C   UNL     1      -9.669   9.781  67.986  1.00  0.00    -0.145 C  
BRANCH  16  17
HETATM   17  C   UNL     1      -9.641  10.255  69.466  1.00  0.00    -0.202 C  
HETATM   18  H   UNL     1      -8.450   9.986  70.988  1.00  0.00     0.000 HD 
HETATM   19  O   UNL     1      -8.467   9.697  70.083  1.00  0.00    -0.182 OA 
BRANCH  17  20
HETATM   20  C   UNL     1     -10.891   9.893  70.293  1.00  0.00    -0.367 A  
HETATM   21  C   UNL     1     -11.786  10.867  70.797  1.00  0.00    -0.424 A  
HETATM   22  C   UNL     1     -11.718  12.286  70.420  1.00  0.00    -0.127 C  
HETATM   23  C   UNL     1     -12.537  13.197  70.963  1.00  0.00    -0.397 C  
HETATM   24  C   UNL     1     -13.532  12.812  71.998  1.00  0.00    -0.444 C  
HETATM   25  N   UNL     1     -13.630  11.482  72.292  1.00  0.00    -0.453 N  
HETATM   26  O   UNL     1     -14.229  13.653  72.542  1.00  0.00    -0.724 OA 
HETATM   27  H   UNL     1     -14.332  11.191  72.972  1.00  0.00     0.000 HD 
HETATM   28  C   UNL     1     -12.816  10.490  71.707  1.00  0.00    -0.454 A  
HETATM   29  C   UNL     1     -12.994   9.149  72.059  1.00  0.00    -0.424 A  
HETATM   30  C   UNL     1     -12.165   8.178  71.521  1.00  0.00    -0.332 A  
HETATM   31  O   UNL     1     -13.973   8.719  72.914  1.00  0.00    -0.885 OA 
HETATM   32  C   UNL     1     -11.134   8.543  70.646  1.00  0.00    -0.280 A  
HETATM   33  H   UNL     1     -14.094   7.808  73.154  1.00  0.00     0.000 HD 
ENDBRANCH  17  20
ENDBRANCH  16  17
ENDBRANCH  14  16
ENDBRANCH  10  14
ENDBRANCH   2   3
TORSDOF 6
ENDMDL
MODEL      106
REMARK 921   NORMALIZED FREE ENERGY PREDICTED BY IDOCK:   -5.73 KCAL/MOL
REMARK 922        TOTAL FREE ENERGY PREDICTED BY IDOCK:   -9.02 KCAL/MOL
REMARK 923 INTER-LIGAND FREE ENERGY PREDICTED BY IDOCK:   -7.94 KCAL/MOL
REMARK 924 INTRA-LIGAND FREE ENERGY PREDICTED BY IDOCK:   -1.08 KCAL/MOL
REMARK 927      BINDING AFFINITY PREDICTED BY RF-SCORE:    0.00 PKD
ROOT
HETATM    1  C   UNL     1      -5.606  19.741  70.048  1.00  0.00    -0.286 C  
HETATM    2  C   UNL     1      -5.413  18.795  68.874  1.00  0.00    -0.195 C  
ENDROOT
BRANCH   2   3
HETATM    3  C   UNL     1      -6.590  17.957  68.413  1.00  0.00    -0.205 A  
HETATM    4  C   UNL     1      -7.273  18.384  67.236  1.00  0.00    -0.213 A  
HETATM    5  C   UNL     1      -8.083  17.479  66.549  1.00  0.00    -0.305 A  
HETATM    6  C   UNL     1      -7.115  16.859  69.124  1.00  0.00    -0.224 A  
HETATM    7  C   UNL     1      -8.181  16.169  68.556  1.00  0.00    -0.186 A  
HETATM    8  C   UNL     1      -8.474  16.329  67.200  1.00  0.00    -0.213 A  
HETATM    9  C   UNL     1      -9.692  15.541  66.837  1.00  0.00    -0.243 C  
HETATM   10  C   UNL     1     -10.495  15.942  68.085  1.00  0.00    -0.270 C  
HETATM   11  C   UNL     1      -9.435  15.569  69.220  1.00  0.00    -0.263 C  
BRANCH   4  12
HETATM   12  C   UNL     1      -7.302  19.864  66.887  1.00  0.00    -0.259 C  
HETATM   13  C   UNL     1      -8.635  20.588  67.076  1.00  0.00    -0.326 C  
ENDBRANCH   4  12
BRANCH  10  14
HETATM   14  N   UNL     1     -11.913  15.528  68.059  1.00  0.00    -0.372 NA 
HETATM   15  H   UNL     1     -12.465  16.083  67.407  1.00  0.00     0.000 HD 
BRANCH  14  16
HETATM   16  C   UNL     1     -11.997  14.047  67.765  1.00  0.00    -0.357 C  
BRANCH  16  17
HETATM   17  C   UNL     1     -12.250  13.114  68.981  1.00  0.00    -0.073 C  
HETATM   18  H   UNL     1     -12.323  13.345  70.917  1.00  0.00     0.000 HD 
HETATM   19  O   UNL     1     -12.169  13.916  70.173  1.00  0.00    -0.324 OA 
BRANCH  17  20
HETATM   20  C   UNL     1     -11.293  11.910  69.092  1.00  0.00    -0.338 A  
HETATM   21  C   UNL     1     -11.459  10.883  70.052  1.00  0.00    -0.411 A  
HETATM   22  C   UNL     1     -12.655  10.766  70.897  1.00  0.00    -0.498 C  
HETATM   23  C   UNL     1     -12.757   9.822  71.843  1.00  0.00    -0.501 C  
HETATM   24  C   UNL     1     -11.644   8.871  72.098  1.00  0.00    -0.330 C  
HETATM   25  N   UNL     1     -10.565   8.948  71.265  1.00  0.00    -0.255 N  
HETATM   26  O   UNL     1     -11.709   8.057  73.005  1.00  0.00    -0.309 OA 
HETATM   27  H   UNL     1      -9.806   8.281  71.398  1.00  0.00     0.000 HD 
HETATM   28  C   UNL     1     -10.444   9.898  70.230  1.00  0.00    -0.291 A  
HETATM   29  C   UNL     1      -9.308   9.897  69.415  1.00  0.00    -0.214 A  
HETATM   30  C   UNL     1      -9.165  10.859  68.428  1.00  0.00    -0.168 A  
HETATM   31  O   UNL     1      -8.306   8.971  69.523  1.00  0.00    -0.109 OA 
HETATM   32  C   UNL     1     -10.145  11.846  68.264  1.00  0.00    -0.203 A  
HETATM   33  H   UNL     1      -7.533   8.971  68.970  1.00  0.00     0.000 HD 
ENDBRANCH  17  20
ENDBRANCH  16  17
ENDBRANCH  14  16
ENDBRANCH  10  14
ENDBRANCH   2   3
TORSDOF 6
ENDMDL
MODEL      107
REMARK 921   NORMALIZED FREE ENERGY PREDICTED BY IDOCK:   -5.72 KCAL/MOL
REMARK 922        TOTAL FREE ENERGY PREDICTED BY IDOCK:   -9.00 KCAL/MOL
REMARK 923 INTER-LIGAND FREE ENERGY PREDICTED BY IDOCK:   -7.56 KCAL/MOL
REMARK 924 INTRA-LIGAND FREE ENERGY PREDICTED BY IDOCK:   -1.45 KCAL/MOL
REMARK 927      BINDING AFFINITY PREDICTED BY RF-SCORE:    0.00 PKD
ROOT
HETATM    1  C   UNL     1      -9.423   1.794  68.673  1.00  0.00    -0.218 C  
HETATM    2  C   UNL     1      -8.679   3.088  68.956  1.00  0.00    -0.133 C  
ENDROOT
BRANCH   2   3
HETATM    3  C   UNL     1      -9.477   4.316  69.353  1.00  0.00    -0.256 A  
HETATM    4  C   UNL     1     -10.102   5.054  68.306  1.00  0.00    -0.170 A  
HETATM    5  C   UNL     1     -11.143   5.930  68.615  1.00  0.00    -0.191 A  
HETATM    6  C   UNL     1      -9.549   4.829  70.664  1.00  0.00    -0.255 A  
HETATM    7  C   UNL     1     -10.348   5.948  70.878  1.00  0.00    -0.288 A  
HETATM    8  C   UNL     1     -11.303   6.316  69.928  1.00  0.00    -0.504 A  
HETATM    9  C   UNL     1     -11.990   7.577  70.347  1.00  0.00     0.004 C  
HETATM   10  C   UNL     1     -10.706   8.291  70.800  1.00  0.00    -0.218 C  
HETATM   11  C   UNL     1     -10.105   7.177  71.774  1.00  0.00    -0.197 C  
BRANCH   4  12
HETATM   12  C   UNL     1      -9.475   5.059  66.921  1.00  0.00    -0.148 C  
HETATM   13  C   UNL     1     -10.333   4.522  65.776  1.00  0.00    -0.287 C  
ENDBRANCH   4  12
BRANCH  10  14
HETATM   14  N   UNL     1     -10.886   9.720  71.131  1.00  0.00    -0.319 NA 
HETATM   15  H   UNL     1      -9.996  10.204  71.250  1.00  0.00     0.000 HD 
BRANCH  14  16
HETATM   16  C   UNL     1     -11.754  10.373  70.079  1.00  0.00    -0.286 C  
BRANCH  16  17
HETATM   17  C   UNL     1     -11.164  11.627  69.378  1.00  0.00    -0.246 C  
HETATM   18  H   UNL     1     -11.517  13.545  69.433  1.00  0.00     0.000 HD 
HETATM   19  O   UNL     1     -11.878  12.778  69.862  1.00  0.00    -0.324 OA 
BRANCH  17  20
HETATM   20  C   UNL     1     -11.204  11.594  67.837  1.00  0.00    -0.334 A  
HETATM   21  C   UNL     1     -10.520  10.619  67.072  1.00  0.00    -0.295 A  
HETATM   22  C   UNL     1      -9.873   9.443  67.670  1.00  0.00    -0.217 C  
HETATM   23  C   UNL     1      -9.177   8.571  66.929  1.00  0.00    -0.197 C  
HETATM   24  C   UNL     1      -9.003   8.776  65.467  1.00  0.00    -0.181 C  
HETATM   25  N   UNL     1      -9.661   9.836  64.912  1.00  0.00    -0.415 N  
HETATM   26  O   UNL     1      -8.311   8.020  64.805  1.00  0.00    -0.144 OA 
HETATM   27  H   UNL     1      -9.586   9.975  63.904  1.00  0.00     0.000 HD 
HETATM   28  C   UNL     1     -10.440  10.748  65.654  1.00  0.00    -0.186 A  
HETATM   29  C   UNL     1     -11.090  11.799  65.001  1.00  0.00    -0.284 A  
HETATM   30  C   UNL     1     -11.817  12.723  65.733  1.00  0.00    -0.484 A  
HETATM   31  O   UNL     1     -11.066  11.970  63.643  1.00  0.00    -0.383 OA 
HETATM   32  C   UNL     1     -11.880  12.619  67.129  1.00  0.00    -0.399 A  
HETATM   33  H   UNL     1     -11.507  12.685  63.199  1.00  0.00     0.000 HD 
ENDBRANCH  17  20
ENDBRANCH  16  17
ENDBRANCH  14  16
ENDBRANCH  10  14
ENDBRANCH   2   3
TORSDOF 6
ENDMDL
MODEL      108
REMARK 921   NORMALIZED FREE ENERGY PREDICTED BY IDOCK:   -5.72 KCAL/MOL
REMARK 922        TOTAL FREE ENERGY PREDICTED BY IDOCK:   -9.00 KCAL/MOL
REMARK 923 INTER-LIGAND FREE ENERGY PREDICTED BY IDOCK:   -7.85 KCAL/MOL
REMARK 924 INTRA-LIGAND FREE ENERGY PREDICTED BY IDOCK:   -1.15 KCAL/MOL
REMARK 927      BINDING AFFINITY PREDICTED BY RF-SCORE:    0.00 PKD
ROOT
HETATM    1  C   UNL     1      -8.491   5.814  65.250  1.00  0.00    -0.148 C  
HETATM    2  C   UNL     1      -8.430   6.495  66.607  1.00  0.00    -0.116 C  
ENDROOT
BRANCH   2   3
HETATM    3  C   UNL     1      -9.087   7.853  66.771  1.00  0.00    -0.189 A  
HETATM    4  C   UNL     1     -10.205   7.934  67.652  1.00  0.00    -0.289 A  
HETATM    5  C   UNL     1     -10.598   9.180  68.144  1.00  0.00    -0.235 A  
HETATM    6  C   UNL     1      -8.736   9.002  66.034  1.00  0.00    -0.184 A  
HETATM    7  C   UNL     1      -9.411  10.185  66.318  1.00  0.00    -0.229 A  
HETATM    8  C   UNL     1     -10.131  10.310  67.508  1.00  0.00    -0.239 A  
HETATM    9  C   UNL     1     -10.817  11.638  67.562  1.00  0.00    -0.287 C  
HETATM   10  C   UNL     1     -11.299  11.604  66.102  1.00  0.00    -0.209 C  
HETATM   11  C   UNL     1      -9.917  11.286  65.367  1.00  0.00    -0.297 C  
BRANCH   4  12
HETATM   12  C   UNL     1     -11.090   6.714  67.848  1.00  0.00    -0.310 C  
HETATM   13  C   UNL     1     -11.301   6.242  69.287  1.00  0.00    -0.411 C  
ENDBRANCH   4  12
BRANCH  10  14
HETATM   14  N   UNL     1     -12.238  12.688  65.743  1.00  0.00    -0.598 NA 
HETATM   15  H   UNL     1     -13.202  12.362  65.695  1.00  0.00     0.000 HD 
BRANCH  14  16
HETATM   16  C   UNL     1     -12.069  13.837  66.710  1.00  0.00    -0.418 C  
BRANCH  16  17
HETATM   17  C   UNL     1     -11.502  15.158  66.121  1.00  0.00    -0.157 C  
HETATM   18  H   UNL     1     -11.243  15.880  64.328  1.00  0.00     0.000 HD 
HETATM   19  O   UNL     1     -11.590  15.072  64.688  1.00  0.00    -0.410 OA 
BRANCH  17  20
HETATM   20  C   UNL     1     -10.056  15.494  66.540  1.00  0.00    -0.290 A  
HETATM   21  C   UNL     1      -9.555  16.817  66.575  1.00  0.00    -0.285 A  
HETATM   22  C   UNL     1     -10.410  18.000  66.405  1.00  0.00    -0.382 C  
HETATM   23  C   UNL     1      -9.898  19.238  66.378  1.00  0.00    -0.455 C  
HETATM   24  C   UNL     1      -8.433  19.464  66.486  1.00  0.00    -0.337 C  
HETATM   25  N   UNL     1      -7.656  18.363  66.707  1.00  0.00    -0.218 N  
HETATM   26  O   UNL     1      -7.962  20.585  66.391  1.00  0.00    -0.162 OA 
HETATM   27  H   UNL     1      -6.652  18.498  66.822  1.00  0.00     0.000 HD 
HETATM   28  C   UNL     1      -8.165  17.050  66.788  1.00  0.00    -0.238 A  
HETATM   29  C   UNL     1      -7.296  15.982  67.030  1.00  0.00    -0.223 A  
HETATM   30  C   UNL     1      -7.787  14.687  67.063  1.00  0.00    -0.056 A  
HETATM   31  O   UNL     1      -5.956  16.139  67.258  1.00  0.00    -0.201 OA 
HETATM   32  C   UNL     1      -9.147  14.446  66.829  1.00  0.00    -0.278 A  
HETATM   33  H   UNL     1      -5.366  15.413  67.422  1.00  0.00     0.000 HD 
ENDBRANCH  17  20
ENDBRANCH  16  17
ENDBRANCH  14  16
ENDBRANCH  10  14
ENDBRANCH   2   3
TORSDOF 6
ENDMDL
MODEL      109
REMARK 921   NORMALIZED FREE ENERGY PREDICTED BY IDOCK:   -5.72 KCAL/MOL
REMARK 922        TOTAL FREE ENERGY PREDICTED BY IDOCK:   -9.00 KCAL/MOL
REMARK 923 INTER-LIGAND FREE ENERGY PREDICTED BY IDOCK:   -7.85 KCAL/MOL
REMARK 924 INTRA-LIGAND FREE ENERGY PREDICTED BY IDOCK:   -1.15 KCAL/MOL
REMARK 927      BINDING AFFINITY PREDICTED BY RF-SCORE:    0.00 PKD
ROOT
HETATM    1  C   UNL     1      -9.668   4.554  70.587  1.00  0.00    -0.282 C  
HETATM    2  C   UNL     1     -10.749   5.222  69.753  1.00  0.00    -0.179 C  
ENDROOT
BRANCH   2   3
HETATM    3  C   UNL     1     -10.795   6.737  69.699  1.00  0.00    -0.314 A  
HETATM    4  C   UNL     1     -11.393   7.411  70.802  1.00  0.00    -0.303 A  
HETATM    5  C   UNL     1     -11.124   8.766  71.004  1.00  0.00    -0.328 A  
HETATM    6  C   UNL     1     -10.386   7.508  68.590  1.00  0.00    -0.218 A  
HETATM    7  C   UNL     1     -10.461   8.892  68.702  1.00  0.00    -0.223 A  
HETATM    8  C   UNL     1     -10.585   9.486  69.960  1.00  0.00    -0.280 A  
HETATM    9  C   UNL     1     -10.707  10.971  69.822  1.00  0.00    -0.135 C  
HETATM   10  C   UNL     1     -11.691  10.920  68.641  1.00  0.00    -0.263 C  
HETATM   11  C   UNL     1     -10.889   9.945  67.662  1.00  0.00    -0.318 C  
BRANCH   4  12
HETATM   12  C   UNL     1     -12.491   6.718  71.593  1.00  0.00    -0.398 C  
HETATM   13  C   UNL     1     -13.625   7.601  72.114  1.00  0.00    -0.117 C  
ENDBRANCH   4  12
BRANCH  10  14
HETATM   14  N   UNL     1     -12.270  12.228  68.272  1.00  0.00    -0.238 NA 
HETATM   15  H   UNL     1     -13.124  12.432  68.790  1.00  0.00     0.000 HD 
BRANCH  14  16
HETATM   16  C   UNL     1     -11.225  13.306  68.443  1.00  0.00    -0.280 C  
BRANCH  16  17
HETATM   17  C   UNL     1     -10.640  13.914  67.139  1.00  0.00    -0.277 C  
HETATM   18  H   UNL     1     -11.078  15.432  65.996  1.00  0.00     0.000 HD 
HETATM   19  O   UNL     1     -11.436  15.060  66.794  1.00  0.00    -0.330 OA 
BRANCH  17  20
HETATM   20  C   UNL     1     -10.565  12.945  65.941  1.00  0.00    -0.287 A  
HETATM   21  C   UNL     1      -9.472  12.072  65.727  1.00  0.00    -0.186 A  
HETATM   22  C   UNL     1      -8.405  11.868  66.718  1.00  0.00    -0.153 C  
HETATM   23  C   UNL     1      -7.349  11.086  66.461  1.00  0.00    -0.144 C  
HETATM   24  C   UNL     1      -7.194  10.415  65.144  1.00  0.00    -0.081 C  
HETATM   25  N   UNL     1      -8.221  10.560  64.256  1.00  0.00    -0.310 N  
HETATM   26  O   UNL     1      -6.198   9.760  64.886  1.00  0.00    -0.083 OA 
HETATM   27  H   UNL     1      -8.154  10.078  63.360  1.00  0.00     0.000 HD 
HETATM   28  C   UNL     1      -9.370  11.338  64.509  1.00  0.00    -0.128 A  
HETATM   29  C   UNL     1     -10.379  11.421  63.546  1.00  0.00    -0.423 A  
HETATM   30  C   UNL     1     -11.487  12.222  63.773  1.00  0.00    -0.545 A  
HETATM   31  O   UNL     1     -10.351  10.730  62.365  1.00  0.00    -0.666 OA 
HETATM   32  C   UNL     1     -11.583  12.967  64.956  1.00  0.00    -0.359 A  
HETATM   33  H   UNL     1     -11.037  10.787  61.710  1.00  0.00     0.000 HD 
ENDBRANCH  17  20
ENDBRANCH  16  17
ENDBRANCH  14  16
ENDBRANCH  10  14
ENDBRANCH   2   3
TORSDOF 6
ENDMDL
MODEL      110
REMARK 921   NORMALIZED FREE ENERGY PREDICTED BY IDOCK:   -5.67 KCAL/MOL
REMARK 922        TOTAL FREE ENERGY PREDICTED BY IDOCK:   -8.93 KCAL/MOL
REMARK 923 INTER-LIGAND FREE ENERGY PREDICTED BY IDOCK:   -8.25 KCAL/MOL
REMARK 924 INTRA-LIGAND FREE ENERGY PREDICTED BY IDOCK:   -0.68 KCAL/MOL
REMARK 927      BINDING AFFINITY PREDICTED BY RF-SCORE:    0.00 PKD
ROOT
HETATM    1  C   UNL     1     -10.074  20.553  66.967  1.00  0.00    -0.416 C  
HETATM    2  C   UNL     1      -9.918  19.814  68.286  1.00  0.00    -0.557 C  
ENDROOT
BRANCH   2   3
HETATM    3  C   UNL     1      -9.700  18.313  68.259  1.00  0.00    -0.350 A  
HETATM    4  C   UNL     1      -8.386  17.840  68.545  1.00  0.00    -0.298 A  
HETATM    5  C   UNL     1      -8.206  16.507  68.918  1.00  0.00    -0.241 A  
HETATM    6  C   UNL     1     -10.675  17.374  67.867  1.00  0.00    -0.351 A  
HETATM    7  C   UNL     1     -10.334  16.026  67.923  1.00  0.00    -0.269 A  
HETATM    8  C   UNL     1      -9.226  15.615  68.666  1.00  0.00    -0.205 A  
HETATM    9  C   UNL     1      -9.025  14.140  68.526  1.00  0.00    -0.174 C  
HETATM   10  C   UNL     1      -9.277  14.110  67.009  1.00  0.00    -0.239 C  
HETATM   11  C   UNL     1     -10.674  14.880  66.950  1.00  0.00    -0.308 C  
BRANCH   4  12
HETATM   12  C   UNL     1      -7.189  18.715  68.209  1.00  0.00    -0.279 C  
HETATM   13  C   UNL     1      -6.497  19.412  69.380  1.00  0.00    -0.357 C  
ENDBRANCH   4  12
BRANCH  10  14
HETATM   14  N   UNL     1      -8.979  12.813  66.366  1.00  0.00    -0.429 NA 
HETATM   15  H   UNL     1      -8.013  12.523  66.511  1.00  0.00     0.000 HD 
BRANCH  14  16
HETATM   16  C   UNL     1      -9.966  11.775  66.850  1.00  0.00    -0.199 C  
BRANCH  16  17
HETATM   17  C   UNL     1      -9.434  10.745  67.883  1.00  0.00    -0.157 C  
HETATM   18  H   UNL     1      -7.672  10.118  68.438  1.00  0.00     0.000 HD 
HETATM   19  O   UNL     1      -7.998  10.748  67.806  1.00  0.00    -0.108 OA 
BRANCH  17  20
HETATM   20  C   UNL     1      -9.966   9.308  67.708  1.00  0.00    -0.235 A  
HETATM   21  C   UNL     1     -10.608   8.595  68.749  1.00  0.00    -0.169 A  
HETATM   22  C   UNL     1     -10.999   9.218  70.021  1.00  0.00    -0.254 C  
HETATM   23  C   UNL     1     -11.547   8.504  71.014  1.00  0.00    -0.317 C  
HETATM   24  C   UNL     1     -11.752   7.038  70.880  1.00  0.00    -0.343 C  
HETATM   25  N   UNL     1     -11.445   6.482  69.670  1.00  0.00    -0.582 N  
HETATM   26  O   UNL     1     -12.186   6.377  71.809  1.00  0.00    -0.342 OA 
HETATM   27  H   UNL     1     -11.613   5.484  69.543  1.00  0.00     0.000 HD 
HETATM   28  C   UNL     1     -10.910   7.211  68.588  1.00  0.00    -0.108 A  
HETATM   29  C   UNL     1     -10.637   6.562  67.381  1.00  0.00    -0.298 A  
HETATM   30  C   UNL     1     -10.068   7.266  66.332  1.00  0.00    -0.057 A  
HETATM   31  O   UNL     1     -10.916   5.241  67.156  1.00  0.00    -0.288 OA 
HETATM   32  C   UNL     1      -9.744   8.619  66.490  1.00  0.00    -0.325 A  
HETATM   33  H   UNL     1     -10.730   4.800  66.336  1.00  0.00     0.000 HD 
ENDBRANCH  17  20
ENDBRANCH  16  17
ENDBRANCH  14  16
ENDBRANCH  10  14
ENDBRANCH   2   3
TORSDOF 6
ENDMDL
MODEL      111
REMARK 921   NORMALIZED FREE ENERGY PREDICTED BY IDOCK:   -5.66 KCAL/MOL
REMARK 922        TOTAL FREE ENERGY PREDICTED BY IDOCK:   -8.92 KCAL/MOL
REMARK 923 INTER-LIGAND FREE ENERGY PREDICTED BY IDOCK:   -8.07 KCAL/MOL
REMARK 924 INTRA-LIGAND FREE ENERGY PREDICTED BY IDOCK:   -0.86 KCAL/MOL
REMARK 927      BINDING AFFINITY PREDICTED BY RF-SCORE:    0.00 PKD
ROOT
HETATM    1  C   UNL     1      -6.119  20.150  71.112  1.00  0.00    -0.267 C  
HETATM    2  C   UNL     1      -5.914  20.156  69.606  1.00  0.00    -0.379 C  
ENDROOT
BRANCH   2   3
HETATM    3  C   UNL     1      -6.645  19.126  68.767  1.00  0.00    -0.306 A  
HETATM    4  C   UNL     1      -6.195  18.938  67.428  1.00  0.00    -0.179 A  
HETATM    5  C   UNL     1      -6.544  17.770  66.747  1.00  0.00    -0.220 A  
HETATM    6  C   UNL     1      -7.797  18.429  69.185  1.00  0.00    -0.036 A  
HETATM    7  C   UNL     1      -8.339  17.491  68.312  1.00  0.00    -0.265 A  
HETATM    8  C   UNL     1      -7.579  17.009  67.244  1.00  0.00    -0.192 A  
HETATM    9  C   UNL     1      -8.390  16.064  66.416  1.00  0.00    -0.344 C  
HETATM   10  C   UNL     1      -9.663  16.928  66.426  1.00  0.00    -0.284 C  
HETATM   11  C   UNL     1      -9.813  17.171  67.998  1.00  0.00    -0.283 C  
BRANCH   4  12
HETATM   12  C   UNL     1      -5.554  20.100  66.686  1.00  0.00    -0.183 C  
HETATM   13  C   UNL     1      -6.456  20.890  65.737  1.00  0.00    -0.210 C  
ENDBRANCH   4  12
BRANCH  10  14
HETATM   14  N   UNL     1     -10.730  16.454  65.521  1.00  0.00    -0.384 NA 
HETATM   15  H   UNL     1     -10.923  17.118  64.771  1.00  0.00     0.000 HD 
BRANCH  14  16
HETATM   16  C   UNL     1     -10.368  15.085  64.993  1.00  0.00    -0.357 C  
BRANCH  16  17
HETATM   17  C   UNL     1     -11.463  13.989  65.109  1.00  0.00    -0.328 C  
HETATM   18  H   UNL     1     -13.201  13.849  65.983  1.00  0.00     0.000 HD 
HETATM   19  O   UNL     1     -12.532  14.520  65.912  1.00  0.00    -0.312 OA 
BRANCH  17  20
HETATM   20  C   UNL     1     -10.984  12.645  65.694  1.00  0.00    -0.313 A  
HETATM   21  C   UNL     1     -10.302  11.672  64.923  1.00  0.00    -0.331 A  
HETATM   22  C   UNL     1      -9.819  11.927  63.559  1.00  0.00    -0.359 C  
HETATM   23  C   UNL     1      -9.235  10.968  62.830  1.00  0.00    -0.374 C  
HETATM   24  C   UNL     1      -9.081   9.589  63.361  1.00  0.00    -0.107 C  
HETATM   25  N   UNL     1      -9.474   9.380  64.652  1.00  0.00    -0.434 N  
HETATM   26  O   UNL     1      -8.612   8.699  62.671  1.00  0.00    -0.192 OA 
HETATM   27  H   UNL     1      -9.343   8.450  65.051  1.00  0.00     0.000 HD 
HETATM   28  C   UNL     1     -10.050  10.377  65.465  1.00  0.00    -0.283 A  
HETATM   29  C   UNL     1     -10.413  10.078  66.781  1.00  0.00    -0.198 A  
HETATM   30  C   UNL     1     -11.022  11.043  67.567  1.00  0.00    -0.338 A  
HETATM   31  O   UNL     1     -10.185   8.862  67.366  1.00  0.00    -0.211 OA 
HETATM   32  C   UNL     1     -11.297  12.309  67.034  1.00  0.00    -0.395 A  
HETATM   33  H   UNL     1     -10.432   8.658  68.261  1.00  0.00     0.000 HD 
ENDBRANCH  17  20
ENDBRANCH  16  17
ENDBRANCH  14  16
ENDBRANCH  10  14
ENDBRANCH   2   3
TORSDOF 6
ENDMDL
MODEL      112
REMARK 921   NORMALIZED FREE ENERGY PREDICTED BY IDOCK:   -5.66 KCAL/MOL
REMARK 922        TOTAL FREE ENERGY PREDICTED BY IDOCK:   -8.92 KCAL/MOL
REMARK 923 INTER-LIGAND FREE ENERGY PREDICTED BY IDOCK:   -7.99 KCAL/MOL
REMARK 924 INTRA-LIGAND FREE ENERGY PREDICTED BY IDOCK:   -0.93 KCAL/MOL
REMARK 927      BINDING AFFINITY PREDICTED BY RF-SCORE:    0.00 PKD
ROOT
HETATM    1  C   UNL     1      -9.215   3.637  70.159  1.00  0.00    -0.221 C  
HETATM    2  C   UNL     1      -8.489   4.293  68.996  1.00  0.00    -0.099 C  
ENDROOT
BRANCH   2   3
HETATM    3  C   UNL     1      -8.978   5.639  68.496  1.00  0.00    -0.115 A  
HETATM    4  C   UNL     1      -9.238   5.761  67.100  1.00  0.00    -0.115 A  
HETATM    5  C   UNL     1     -10.041   6.807  66.643  1.00  0.00    -0.205 A  
HETATM    6  C   UNL     1      -9.089   6.794  69.297  1.00  0.00    -0.139 A  
HETATM    7  C   UNL     1      -9.583   7.950  68.701  1.00  0.00    -0.155 A  
HETATM    8  C   UNL     1     -10.269   7.871  67.487  1.00  0.00    -0.308 A  
HETATM    9  C   UNL     1     -10.647   9.240  67.017  1.00  0.00    -0.263 C  
HETATM   10  C   UNL     1      -9.293   9.884  67.359  1.00  0.00    -0.137 C  
HETATM   11  C   UNL     1      -9.147   9.416  68.879  1.00  0.00    -0.140 C  
BRANCH   4  12
HETATM   12  C   UNL     1      -8.450   4.908  66.118  1.00  0.00    -0.112 C  
HETATM   13  C   UNL     1      -8.128   5.539  64.764  1.00  0.00    -0.126 C  
ENDBRANCH   4  12
BRANCH  10  14
HETATM   14  N   UNL     1      -9.130  11.265  66.861  1.00  0.00    -0.163 NA 
HETATM   15  H   UNL     1      -8.702  11.295  65.937  1.00  0.00     0.000 HD 
BRANCH  14  16
HETATM   16  C   UNL     1     -10.467  11.971  66.895  1.00  0.00    -0.223 C  
BRANCH  16  17
HETATM   17  C   UNL     1     -10.673  13.006  68.035  1.00  0.00    -0.232 C  
HETATM   18  H   UNL     1      -9.502  13.993  69.243  1.00  0.00     0.000 HD 
HETATM   19  O   UNL     1      -9.376  13.360  68.545  1.00  0.00    -0.181 OA 
BRANCH  17  20
HETATM   20  C   UNL     1     -11.581  12.536  69.189  1.00  0.00    -0.375 A  
HETATM   21  C   UNL     1     -12.164  13.429  70.120  1.00  0.00    -0.385 A  
HETATM   22  C   UNL     1     -12.119  14.890  69.962  1.00  0.00    -0.387 C  
HETATM   23  C   UNL     1     -12.622  15.712  70.892  1.00  0.00    -0.503 C  
HETATM   24  C   UNL     1     -13.221  15.179  72.143  1.00  0.00    -0.376 C  
HETATM   25  N   UNL     1     -13.316  13.820  72.249  1.00  0.00    -0.477 N  
HETATM   26  O   UNL     1     -13.616  15.929  73.020  1.00  0.00    -0.575 OA 
HETATM   27  H   UNL     1     -13.757  13.433  73.083  1.00  0.00     0.000 HD 
HETATM   28  C   UNL     1     -12.839  12.925  71.270  1.00  0.00    -0.270 A  
HETATM   29  C   UNL     1     -12.989  11.548  71.456  1.00  0.00    -0.380 A  
HETATM   30  C   UNL     1     -12.479  10.664  70.518  1.00  0.00    -0.445 A  
HETATM   31  O   UNL     1     -13.639  11.000  72.529  1.00  0.00    -0.471 OA 
HETATM   32  C   UNL     1     -11.792  11.150  69.398  1.00  0.00    -0.415 A  
HETATM   33  H   UNL     1     -13.740  10.064  72.655  1.00  0.00     0.000 HD 
ENDBRANCH  17  20
ENDBRANCH  16  17
ENDBRANCH  14  16
ENDBRANCH  10  14
ENDBRANCH   2   3
TORSDOF 6
ENDMDL
MODEL      113
REMARK 921   NORMALIZED FREE ENERGY PREDICTED BY IDOCK:   -5.64 KCAL/MOL
REMARK 922        TOTAL FREE ENERGY PREDICTED BY IDOCK:   -8.90 KCAL/MOL
REMARK 923 INTER-LIGAND FREE ENERGY PREDICTED BY IDOCK:   -8.16 KCAL/MOL
REMARK 924 INTRA-LIGAND FREE ENERGY PREDICTED BY IDOCK:   -0.73 KCAL/MOL
REMARK 927      BINDING AFFINITY PREDICTED BY RF-SCORE:    0.00 PKD
ROOT
HETATM    1  C   UNL     1      -7.441   1.941  64.340  1.00  0.00    -0.059 C  
HETATM    2  C   UNL     1      -7.482   3.455  64.208  1.00  0.00    -0.074 C  
ENDROOT
BRANCH   2   3
HETATM    3  C   UNL     1      -8.354   4.246  65.164  1.00  0.00    -0.114 A  
HETATM    4  C   UNL     1      -9.757   4.254  64.913  1.00  0.00    -0.182 A  
HETATM    5  C   UNL     1     -10.633   4.614  65.937  1.00  0.00    -0.265 A  
HETATM    6  C   UNL     1      -7.861   5.054  66.210  1.00  0.00    -0.099 A  
HETATM    7  C   UNL     1      -8.789   5.697  67.023  1.00  0.00    -0.111 A  
HETATM    8  C   UNL     1     -10.121   5.277  67.031  1.00  0.00    -0.243 A  
HETATM    9  C   UNL     1     -10.934   6.153  67.930  1.00  0.00    -0.399 C  
HETATM   10  C   UNL     1     -10.306   7.470  67.446  1.00  0.00    -0.276 C  
HETATM   11  C   UNL     1      -8.759   7.115  67.625  1.00  0.00    -0.121 C  
BRANCH   4  12
HETATM   12  C   UNL     1     -10.259   4.106  63.485  1.00  0.00    -0.066 C  
HETATM   13  C   UNL     1     -10.763   2.723  63.073  1.00  0.00    -0.208 C  
ENDBRANCH   4  12
BRANCH  10  14
HETATM   14  N   UNL     1     -10.975   8.687  67.950  1.00  0.00    -0.487 NA 
HETATM   15  H   UNL     1     -11.482   8.518  68.818  1.00  0.00     0.000 HD 
BRANCH  14  16
HETATM   16  C   UNL     1      -9.959   9.798  68.088  1.00  0.00    -0.154 C  
BRANCH  16  17
HETATM   17  C   UNL     1      -9.764  10.382  69.515  1.00  0.00    -0.170 C  
HETATM   18  H   UNL     1      -8.366  10.296  70.872  1.00  0.00     0.000 HD 
HETATM   19  O   UNL     1      -8.485   9.939  70.000  1.00  0.00    -0.193 OA 
BRANCH  17  20
HETATM   20  C   UNL     1     -10.867  10.014  70.528  1.00  0.00    -0.380 A  
HETATM   21  C   UNL     1     -10.905   8.770  71.203  1.00  0.00    -0.335 A  
HETATM   22  C   UNL     1      -9.805   7.798  71.149  1.00  0.00    -0.187 C  
HETATM   23  C   UNL     1      -9.896   6.601  71.744  1.00  0.00    -0.171 C  
HETATM   24  C   UNL     1     -11.134   6.193  72.458  1.00  0.00    -0.274 C  
HETATM   25  N   UNL     1     -12.124   7.128  72.557  1.00  0.00    -0.503 N  
HETATM   26  O   UNL     1     -11.242   5.077  72.940  1.00  0.00    -0.270 OA 
HETATM   27  H   UNL     1     -12.968   6.883  73.075  1.00  0.00     0.000 HD 
HETATM   28  C   UNL     1     -12.045   8.414  71.983  1.00  0.00    -0.356 A  
HETATM   29  C   UNL     1     -13.102   9.313  72.143  1.00  0.00    -0.443 A  
HETATM   30  C   UNL     1     -13.046  10.560  71.541  1.00  0.00    -0.532 A  
HETATM   31  O   UNL     1     -14.215   9.040  72.891  1.00  0.00    -1.042 OA 
HETATM   32  C   UNL     1     -11.943  10.909  70.752  1.00  0.00    -0.449 A  
HETATM   33  H   UNL     1     -14.935   9.651  73.000  1.00  0.00     0.000 HD 
ENDBRANCH  17  20
ENDBRANCH  16  17
ENDBRANCH  14  16
ENDBRANCH  10  14
ENDBRANCH   2   3
TORSDOF 6
ENDMDL
MODEL      114
REMARK 921   NORMALIZED FREE ENERGY PREDICTED BY IDOCK:   -5.64 KCAL/MOL
REMARK 922        TOTAL FREE ENERGY PREDICTED BY IDOCK:   -8.89 KCAL/MOL
REMARK 923 INTER-LIGAND FREE ENERGY PREDICTED BY IDOCK:   -7.61 KCAL/MOL
REMARK 924 INTRA-LIGAND FREE ENERGY PREDICTED BY IDOCK:   -1.28 KCAL/MOL
REMARK 927      BINDING AFFINITY PREDICTED BY RF-SCORE:    0.00 PKD
ROOT
HETATM    1  C   UNL     1      -6.596  19.727  70.579  1.00  0.00    -0.048 C  
HETATM    2  C   UNL     1      -6.717  19.694  69.065  1.00  0.00    -0.372 C  
ENDROOT
BRANCH   2   3
HETATM    3  C   UNL     1      -7.404  18.509  68.414  1.00  0.00    -0.301 A  
HETATM    4  C   UNL     1      -6.764  17.925  67.282  1.00  0.00    -0.192 A  
HETATM    5  C   UNL     1      -7.116  16.633  66.888  1.00  0.00    -0.264 A  
HETATM    6  C   UNL     1      -8.674  18.021  68.786  1.00  0.00    -0.206 A  
HETATM    7  C   UNL     1      -9.160  16.905  68.113  1.00  0.00    -0.231 A  
HETATM    8  C   UNL     1      -8.291  16.100  67.373  1.00  0.00    -0.191 A  
HETATM    9  C   UNL     1      -9.050  15.004  66.695  1.00  0.00    -0.309 C  
HETATM   10  C   UNL     1     -10.212  15.902  66.239  1.00  0.00    -0.311 C  
HETATM   11  C   UNL     1     -10.588  16.587  67.631  1.00  0.00    -0.321 C  
BRANCH   4  12
HETATM   12  C   UNL     1      -5.897  18.795  66.386  1.00  0.00    -0.180 C  
HETATM   13  C   UNL     1      -6.388  19.011  64.954  1.00  0.00    -0.238 C  
ENDBRANCH   4  12
BRANCH  10  14
HETATM   14  N   UNL     1     -11.161  15.249  65.314  1.00  0.00    -0.352 NA 
HETATM   15  H   UNL     1     -11.462  15.872  64.565  1.00  0.00     0.000 HD 
BRANCH  14  16
HETATM   16  C   UNL     1     -10.548  13.973  64.784  1.00  0.00    -0.421 C  
BRANCH  16  17
HETATM   17  C   UNL     1     -11.262  12.649  65.173  1.00  0.00    -0.301 C  
HETATM   18  H   UNL     1     -13.116  12.053  65.285  1.00  0.00     0.000 HD 
HETATM   19  O   UNL     1     -12.679  12.862  65.047  1.00  0.00    -0.613 OA 
BRANCH  17  20
HETATM   20  C   UNL     1     -10.934  12.119  66.583  1.00  0.00    -0.325 A  
HETATM   21  C   UNL     1      -9.883  11.204  66.834  1.00  0.00    -0.223 A  
HETATM   22  C   UNL     1      -8.893  10.825  65.816  1.00  0.00    -0.201 C  
HETATM   23  C   UNL     1      -7.949   9.907  66.062  1.00  0.00    -0.114 C  
HETATM   24  C   UNL     1      -7.885   9.206  67.371  1.00  0.00    -0.099 C  
HETATM   25  N   UNL     1      -8.769   9.612  68.330  1.00  0.00    -0.119 N  
HETATM   26  O   UNL     1      -7.069   8.321  67.570  1.00  0.00    -0.080 OA 
HETATM   27  H   UNL     1      -8.719   9.170  69.248  1.00  0.00     0.000 HD 
HETATM   28  C   UNL     1      -9.746  10.607  68.122  1.00  0.00    -0.156 A  
HETATM   29  C   UNL     1     -10.603  10.968  69.165  1.00  0.00    -0.219 A  
HETATM   30  C   UNL     1     -11.594  11.912  68.949  1.00  0.00    -0.370 A  
HETATM   31  O   UNL     1     -10.515  10.446  70.427  1.00  0.00    -0.432 OA 
HETATM   32  C   UNL     1     -11.753  12.484  67.680  1.00  0.00    -0.423 A  
HETATM   33  H   UNL     1     -11.098  10.691  71.135  1.00  0.00     0.000 HD 
ENDBRANCH  17  20
ENDBRANCH  16  17
ENDBRANCH  14  16
ENDBRANCH  10  14
ENDBRANCH   2   3
TORSDOF 6
ENDMDL
MODEL      115
REMARK 921   NORMALIZED FREE ENERGY PREDICTED BY IDOCK:   -5.64 KCAL/MOL
REMARK 922        TOTAL FREE ENERGY PREDICTED BY IDOCK:   -8.89 KCAL/MOL
REMARK 923 INTER-LIGAND FREE ENERGY PREDICTED BY IDOCK:   -8.00 KCAL/MOL
REMARK 924 INTRA-LIGAND FREE ENERGY PREDICTED BY IDOCK:   -0.89 KCAL/MOL
REMARK 927      BINDING AFFINITY PREDICTED BY RF-SCORE:    0.00 PKD
ROOT
HETATM    1  C   UNL     1      -7.339   9.837  70.499  1.00  0.00    -0.126 C  
HETATM    2  C   UNL     1      -7.841   9.097  69.269  1.00  0.00    -0.095 C  
ENDROOT
BRANCH   2   3
HETATM    3  C   UNL     1      -8.813   9.802  68.342  1.00  0.00    -0.120 A  
HETATM    4  C   UNL     1      -8.300  10.277  67.100  1.00  0.00    -0.122 A  
HETATM    5  C   UNL     1      -9.186  10.568  66.061  1.00  0.00    -0.205 A  
HETATM    6  C   UNL     1     -10.149  10.110  68.671  1.00  0.00    -0.186 A  
HETATM    7  C   UNL     1     -10.927  10.734  67.702  1.00  0.00    -0.365 A  
HETATM    8  C   UNL     1     -10.520  10.723  66.366  1.00  0.00    -0.293 A  
HETATM    9  C   UNL     1     -11.480  11.505  65.526  1.00  0.00    -0.074 C  
HETATM   10  C   UNL     1     -11.617  12.671  66.519  1.00  0.00    -0.381 C  
HETATM   11  C   UNL     1     -11.972  11.856  67.847  1.00  0.00    -0.189 C  
BRANCH   4  12
HETATM   12  C   UNL     1      -6.838  10.685  67.004  1.00  0.00    -0.091 C  
HETATM   13  C   UNL     1      -6.041  10.115  65.831  1.00  0.00    -0.087 C  
ENDBRANCH   4  12
BRANCH  10  14
HETATM   14  N   UNL     1     -12.361  13.835  65.996  1.00  0.00    -0.453 NA 
HETATM   15  H   UNL     1     -12.702  14.442  66.741  1.00  0.00     0.000 HD 
BRANCH  14  16
HETATM   16  C   UNL     1     -11.496  14.579  65.004  1.00  0.00    -0.382 C  
BRANCH  16  17
HETATM   17  C   UNL     1     -11.204  16.070  65.325  1.00  0.00    -0.112 C  
HETATM   18  H   UNL     1     -11.004  17.703  64.277  1.00  0.00     0.000 HD 
HETATM   19  O   UNL     1     -11.183  16.791  64.081  1.00  0.00    -1.155 OA 
BRANCH  17  20
HETATM   20  C   UNL     1      -9.897  16.328  66.103  1.00  0.00    -0.358 A  
HETATM   21  C   UNL     1      -9.456  17.627  66.454  1.00  0.00    -0.274 A  
HETATM   22  C   UNL     1     -10.288  18.827  66.283  1.00  0.00    -0.497 C  
HETATM   23  C   UNL     1      -9.820  20.051  66.562  1.00  0.00    -0.581 C  
HETATM   24  C   UNL     1      -8.423  20.249  67.028  1.00  0.00    -0.319 C  
HETATM   25  N   UNL     1      -7.681  19.123  67.244  1.00  0.00    -0.233 N  
HETATM   26  O   UNL     1      -7.977  21.369  67.215  1.00  0.00    -0.217 OA 
HETATM   27  H   UNL     1      -6.731  19.233  67.599  1.00  0.00     0.000 HD 
HETATM   28  C   UNL     1      -8.155  17.816  67.005  1.00  0.00    -0.219 A  
HETATM   29  C   UNL     1      -7.330  16.719  67.266  1.00  0.00    -0.175 A  
HETATM   30  C   UNL     1      -7.777  15.437  66.988  1.00  0.00    -0.220 A  
HETATM   31  O   UNL     1      -6.079  16.831  67.809  1.00  0.00    -0.123 OA 
HETATM   32  C   UNL     1      -9.043  15.244  66.422  1.00  0.00    -0.347 A  
HETATM   33  H   UNL     1      -5.517  16.086  67.986  1.00  0.00     0.000 HD 
ENDBRANCH  17  20
ENDBRANCH  16  17
ENDBRANCH  14  16
ENDBRANCH  10  14
ENDBRANCH   2   3
TORSDOF 6
ENDMDL
MODEL      116
REMARK 921   NORMALIZED FREE ENERGY PREDICTED BY IDOCK:   -5.64 KCAL/MOL
REMARK 922        TOTAL FREE ENERGY PREDICTED BY IDOCK:   -8.89 KCAL/MOL
REMARK 923 INTER-LIGAND FREE ENERGY PREDICTED BY IDOCK:   -7.62 KCAL/MOL
REMARK 924 INTRA-LIGAND FREE ENERGY PREDICTED BY IDOCK:   -1.28 KCAL/MOL
REMARK 927      BINDING AFFINITY PREDICTED BY RF-SCORE:    0.00 PKD
ROOT
HETATM    1  C   UNL     1      -6.380  19.724  70.203  1.00  0.00    -0.323 C  
HETATM    2  C   UNL     1      -6.449  19.157  68.794  1.00  0.00    -0.286 C  
ENDROOT
BRANCH   2   3
HETATM    3  C   UNL     1      -7.643  18.303  68.411  1.00  0.00    -0.302 A  
HETATM    4  C   UNL     1      -7.658  16.957  68.880  1.00  0.00    -0.234 A  
HETATM    5  C   UNL     1      -8.865  16.255  68.905  1.00  0.00    -0.253 A  
HETATM    6  C   UNL     1      -8.672  18.716  67.541  1.00  0.00    -0.284 A  
HETATM    7  C   UNL     1      -9.718  17.828  67.308  1.00  0.00    -0.285 A  
HETATM    8  C   UNL     1      -9.920  16.746  68.167  1.00  0.00    -0.270 A  
HETATM    9  C   UNL     1     -11.057  15.905  67.681  1.00  0.00    -0.266 C  
HETATM   10  C   UNL     1     -10.636  15.941  66.203  1.00  0.00    -0.305 C  
HETATM   11  C   UNL     1     -10.478  17.518  66.005  1.00  0.00    -0.274 C  
BRANCH   4  12
HETATM   12  C   UNL     1      -6.342  16.234  69.115  1.00  0.00    -0.168 C  
HETATM   13  C   UNL     1      -5.791  15.414  67.948  1.00  0.00    -0.162 C  
ENDBRANCH   4  12
BRANCH  10  14
HETATM   14  N   UNL     1     -11.405  15.035  65.326  1.00  0.00    -0.358 NA 
HETATM   15  H   UNL     1     -11.863  15.532  64.563  1.00  0.00     0.000 HD 
BRANCH  14  16
HETATM   16  C   UNL     1     -10.499  13.932  64.827  1.00  0.00    -0.429 C  
BRANCH  16  17
HETATM   17  C   UNL     1     -10.965  12.476  65.106  1.00  0.00    -0.297 C  
HETATM   18  H   UNL     1     -12.612  11.468  64.832  1.00  0.00     0.000 HD 
HETATM   19  O   UNL     1     -12.327  12.359  64.661  1.00  0.00    -0.452 OA 
BRANCH  17  20
HETATM   20  C   UNL     1     -10.851  12.024  66.576  1.00  0.00    -0.314 A  
HETATM   21  C   UNL     1      -9.847  11.136  67.031  1.00  0.00    -0.212 A  
HETATM   22  C   UNL     1      -8.713  10.717  66.195  1.00  0.00    -0.178 C  
HETATM   23  C   UNL     1      -7.813   9.824  66.629  1.00  0.00    -0.109 C  
HETATM   24  C   UNL     1      -7.944   9.193  67.967  1.00  0.00    -0.101 C  
HETATM   25  N   UNL     1      -8.964   9.637  68.760  1.00  0.00    -0.131 N  
HETATM   26  O   UNL     1      -7.165   8.329  68.334  1.00  0.00    -0.088 OA 
HETATM   27  H   UNL     1      -9.052   9.244  69.697  1.00  0.00     0.000 HD 
HETATM   28  C   UNL     1      -9.903  10.608  68.354  1.00  0.00    -0.161 A  
HETATM   29  C   UNL     1     -10.909  11.013  69.235  1.00  0.00    -0.238 A  
HETATM   30  C   UNL     1     -11.860  11.933  68.823  1.00  0.00    -0.371 A  
HETATM   31  O   UNL     1     -11.010  10.558  70.522  1.00  0.00    -0.412 OA 
HETATM   32  C   UNL     1     -11.828  12.436  67.516  1.00  0.00    -0.354 A  
HETATM   33  H   UNL     1     -11.694  10.833  71.121  1.00  0.00     0.000 HD 
ENDBRANCH  17  20
ENDBRANCH  16  17
ENDBRANCH  14  16
ENDBRANCH  10  14
ENDBRANCH   2   3
TORSDOF 6
ENDMDL
MODEL      117
REMARK 921   NORMALIZED FREE ENERGY PREDICTED BY IDOCK:   -5.63 KCAL/MOL
REMARK 922        TOTAL FREE ENERGY PREDICTED BY IDOCK:   -8.88 KCAL/MOL
REMARK 923 INTER-LIGAND FREE ENERGY PREDICTED BY IDOCK:   -7.76 KCAL/MOL
REMARK 924 INTRA-LIGAND FREE ENERGY PREDICTED BY IDOCK:   -1.13 KCAL/MOL
REMARK 927      BINDING AFFINITY PREDICTED BY RF-SCORE:    0.00 PKD
ROOT
HETATM    1  C   UNL     1      -5.546  19.759  70.704  1.00  0.00    -0.296 C  
HETATM    2  C   UNL     1      -6.463  19.341  69.565  1.00  0.00    -0.338 C  
ENDROOT
BRANCH   2   3
HETATM    3  C   UNL     1      -6.501  17.880  69.160  1.00  0.00    -0.243 A  
HETATM    4  C   UNL     1      -7.270  17.543  68.008  1.00  0.00    -0.206 A  
HETATM    5  C   UNL     1      -7.038  16.327  67.363  1.00  0.00    -0.200 A  
HETATM    6  C   UNL     1      -5.921  16.831  69.903  1.00  0.00    -0.217 A  
HETATM    7  C   UNL     1      -6.014  15.543  69.385  1.00  0.00    -0.119 A  
HETATM    8  C   UNL     1      -6.339  15.352  68.040  1.00  0.00    -0.151 A  
HETATM    9  C   UNL     1      -6.439  13.892  67.734  1.00  0.00    -0.178 C  
HETATM   10  C   UNL     1      -7.220  13.536  69.010  1.00  0.00    -0.031 C  
HETATM   11  C   UNL     1      -6.271  14.206  70.105  1.00  0.00    -0.151 C  
BRANCH   4  12
HETATM   12  C   UNL     1      -8.479  18.390  67.645  1.00  0.00    -0.264 C  
HETATM   13  C   UNL     1      -8.423  19.135  66.312  1.00  0.00    -0.311 C  
ENDBRANCH   4  12
BRANCH  10  14
HETATM   14  N   UNL     1      -7.735  12.151  69.045  1.00  0.00    -0.331 NA 
HETATM   15  H   UNL     1      -8.436  12.018  69.773  1.00  0.00     0.000 HD 
BRANCH  14  16
HETATM   16  C   UNL     1      -8.253  11.773  67.676  1.00  0.00    -0.145 C  
BRANCH  16  17
HETATM   17  C   UNL     1      -9.783  11.530  67.560  1.00  0.00    -0.179 C  
HETATM   18  H   UNL     1     -11.131  11.798  66.176  1.00  0.00     0.000 HD 
HETATM   19  O   UNL     1     -10.195  11.947  66.247  1.00  0.00    -0.208 OA 
BRANCH  17  20
HETATM   20  C   UNL     1     -10.641  12.237  68.629  1.00  0.00    -0.249 A  
HETATM   21  C   UNL     1     -11.308  11.539  69.664  1.00  0.00    -0.329 A  
HETATM   22  C   UNL     1     -11.092  10.110  69.931  1.00  0.00    -0.346 C  
HETATM   23  C   UNL     1     -11.785   9.459  70.875  1.00  0.00    -0.378 C  
HETATM   24  C   UNL     1     -12.831  10.153  71.672  1.00  0.00    -0.454 C  
HETATM   25  N   UNL     1     -12.978  11.494  71.459  1.00  0.00    -0.430 N  
HETATM   26  O   UNL     1     -13.510   9.544  72.482  1.00  0.00    -0.426 OA 
HETATM   27  H   UNL     1     -13.664  11.998  72.021  1.00  0.00     0.000 HD 
HETATM   28  C   UNL     1     -12.233  12.221  70.507  1.00  0.00    -0.300 A  
HETATM   29  C   UNL     1     -12.441  13.595  70.364  1.00  0.00    -0.294 A  
HETATM   30  C   UNL     1     -11.745  14.302  69.397  1.00  0.00    -0.363 A  
HETATM   31  O   UNL     1     -13.302  14.312  71.151  1.00  0.00    -0.346 OA 
HETATM   32  C   UNL     1     -10.853  13.636  68.547  1.00  0.00    -0.275 A  
HETATM   33  H   UNL     1     -13.444  15.246  71.054  1.00  0.00     0.000 HD 
ENDBRANCH  17  20
ENDBRANCH  16  17
ENDBRANCH  14  16
ENDBRANCH  10  14
ENDBRANCH   2   3
TORSDOF 6
ENDMDL
MODEL      118
REMARK 921   NORMALIZED FREE ENERGY PREDICTED BY IDOCK:   -5.63 KCAL/MOL
REMARK 922        TOTAL FREE ENERGY PREDICTED BY IDOCK:   -8.88 KCAL/MOL
REMARK 923 INTER-LIGAND FREE ENERGY PREDICTED BY IDOCK:   -8.44 KCAL/MOL
REMARK 924 INTRA-LIGAND FREE ENERGY PREDICTED BY IDOCK:   -0.44 KCAL/MOL
REMARK 927      BINDING AFFINITY PREDICTED BY RF-SCORE:    0.00 PKD
ROOT
HETATM    1  C   UNL     1      -8.060   2.536  69.656  1.00  0.00    -0.057 C  
HETATM    2  C   UNL     1      -9.422   3.205  69.562  1.00  0.00    -0.190 C  
ENDROOT
BRANCH   2   3
HETATM    3  C   UNL     1      -9.484   4.710  69.382  1.00  0.00    -0.239 A  
HETATM    4  C   UNL     1      -9.529   5.506  70.564  1.00  0.00    -0.209 A  
HETATM    5  C   UNL     1      -9.196   6.860  70.489  1.00  0.00    -0.156 A  
HETATM    6  C   UNL     1      -9.607   5.360  68.137  1.00  0.00    -0.154 A  
HETATM    7  C   UNL     1      -9.621   6.751  68.131  1.00  0.00    -0.122 A  
HETATM    8  C   UNL     1      -9.173   7.459  69.248  1.00  0.00    -0.147 A  
HETATM    9  C   UNL     1      -9.340   8.929  69.031  1.00  0.00    -0.144 C  
HETATM   10  C   UNL     1     -10.746   8.819  68.416  1.00  0.00    -0.062 C  
HETATM   11  C   UNL     1     -10.463   7.726  67.287  1.00  0.00    -0.392 C  
BRANCH   4  12
HETATM   12  C   UNL     1     -10.164   4.937  71.822  1.00  0.00    -0.268 C  
HETATM   13  C   UNL     1     -11.161   5.835  72.556  1.00  0.00    -0.327 C  
ENDBRANCH   4  12
BRANCH  10  14
HETATM   14  N   UNL     1     -11.426  10.115  68.212  1.00  0.00    -0.601 NA 
HETATM   15  H   UNL     1     -11.890  10.445  69.057  1.00  0.00     0.000 HD 
BRANCH  14  16
HETATM   16  C   UNL     1     -10.435  11.122  67.673  1.00  0.00    -0.196 C  
BRANCH  16  17
HETATM   17  C   UNL     1     -10.251  11.152  66.130  1.00  0.00    -0.244 C  
HETATM   18  H   UNL     1      -8.760  10.873  64.904  1.00  0.00     0.000 HD 
HETATM   19  O   UNL     1      -8.873  10.855  65.848  1.00  0.00    -0.177 OA 
BRANCH  17  20
HETATM   20  C   UNL     1     -10.654  12.475  65.449  1.00  0.00    -0.310 A  
HETATM   21  C   UNL     1     -10.110  13.728  65.822  1.00  0.00    -0.322 A  
HETATM   22  C   UNL     1      -8.979  13.863  66.751  1.00  0.00    -0.206 C  
HETATM   23  C   UNL     1      -8.527  15.063  67.137  1.00  0.00    -0.244 C  
HETATM   24  C   UNL     1      -9.176  16.314  66.665  1.00  0.00    -0.244 C  
HETATM   25  N   UNL     1     -10.183  16.178  65.753  1.00  0.00    -0.359 N  
HETATM   26  O   UNL     1      -8.808  17.404  67.071  1.00  0.00    -0.222 OA 
HETATM   27  H   UNL     1     -10.618  17.024  65.386  1.00  0.00     0.000 HD 
HETATM   28  C   UNL     1     -10.655  14.932  65.289  1.00  0.00    -0.401 A  
HETATM   29  C   UNL     1     -11.683  14.887  64.344  1.00  0.00    -0.328 A  
HETATM   30  C   UNL     1     -12.180  13.664  63.922  1.00  0.00    -0.429 A  
HETATM   31  O   UNL     1     -12.238  16.004  63.781  1.00  0.00    -1.269 OA 
HETATM   32  C   UNL     1     -11.669  12.476  64.460  1.00  0.00    -0.423 A  
HETATM   33  H   UNL     1     -12.938  15.974  63.140  1.00  0.00     0.000 HD 
ENDBRANCH  17  20
ENDBRANCH  16  17
ENDBRANCH  14  16
ENDBRANCH  10  14
ENDBRANCH   2   3
TORSDOF 6
ENDMDL
MODEL      119
REMARK 921   NORMALIZED FREE ENERGY PREDICTED BY IDOCK:   -5.63 KCAL/MOL
REMARK 922        TOTAL FREE ENERGY PREDICTED BY IDOCK:   -8.88 KCAL/MOL
REMARK 923 INTER-LIGAND FREE ENERGY PREDICTED BY IDOCK:   -8.09 KCAL/MOL
REMARK 924 INTRA-LIGAND FREE ENERGY PREDICTED BY IDOCK:   -0.79 KCAL/MOL
REMARK 927      BINDING AFFINITY PREDICTED BY RF-SCORE:    0.00 PKD
ROOT
HETATM    1  C   UNL     1      -5.985   3.331  73.413  1.00  0.00    -0.004 C  
HETATM    2  C   UNL     1      -7.326   3.393  74.127  1.00  0.00    -0.053 C  
ENDROOT
BRANCH   2   3
HETATM    3  C   UNL     1      -8.323   4.459  73.713  1.00  0.00    -0.100 A  
HETATM    4  C   UNL     1      -9.689   4.242  74.055  1.00  0.00    -0.148 A  
HETATM    5  C   UNL     1     -10.572   5.322  74.062  1.00  0.00    -0.321 A  
HETATM    6  C   UNL     1      -8.004   5.585  72.927  1.00  0.00    -0.101 A  
HETATM    7  C   UNL     1      -9.023   6.493  72.654  1.00  0.00    -0.134 A  
HETATM    8  C   UNL     1     -10.194   6.479  73.415  1.00  0.00    -0.256 A  
HETATM    9  C   UNL     1     -11.160   7.497  72.899  1.00  0.00    -0.426 C  
HETATM   10  C   UNL     1     -10.930   7.167  71.415  1.00  0.00    -0.234 C  
HETATM   11  C   UNL     1      -9.337   7.265  71.359  1.00  0.00    -0.153 C  
BRANCH   4  12
HETATM   12  C   UNL     1     -10.211   2.818  74.169  1.00  0.00    -0.186 C  
HETATM   13  C   UNL     1     -10.647   2.140  72.870  1.00  0.00    -0.240 C  
ENDBRANCH   4  12
BRANCH  10  14
HETATM   14  N   UNL     1     -11.868   7.833  70.488  1.00  0.00    -0.479 NA 
HETATM   15  H   UNL     1     -12.823   7.491  70.594  1.00  0.00     0.000 HD 
BRANCH  14  16
HETATM   16  C   UNL     1     -11.774   9.331  70.669  1.00  0.00    -0.222 C  
BRANCH  16  17
HETATM   17  C   UNL     1     -11.182  10.134  69.478  1.00  0.00    -0.238 C  
HETATM   18  H   UNL     1      -9.387  10.574  68.855  1.00  0.00     0.000 HD 
HETATM   19  O   UNL     1      -9.748  10.083  69.584  1.00  0.00    -0.212 OA 
BRANCH  17  20
HETATM   20  C   UNL     1     -11.650  11.600  69.381  1.00  0.00    -0.392 A  
HETATM   21  C   UNL     1     -11.608  12.341  68.175  1.00  0.00    -0.396 A  
HETATM   22  C   UNL     1     -11.300  11.733  66.874  1.00  0.00    -0.386 C  
HETATM   23  C   UNL     1     -11.202  12.470  65.759  1.00  0.00    -0.356 C  
HETATM   24  C   UNL     1     -11.370  13.946  65.800  1.00  0.00    -0.307 C  
HETATM   25  N   UNL     1     -11.719  14.492  67.002  1.00  0.00    -0.391 N  
HETATM   26  O   UNL     1     -11.213  14.624  64.799  1.00  0.00    -0.379 OA 
HETATM   27  H   UNL     1     -11.876  15.499  67.046  1.00  0.00     0.000 HD 
HETATM   28  C   UNL     1     -11.876  13.741  68.186  1.00  0.00    -0.376 A  
HETATM   29  C   UNL     1     -12.247  14.382  69.371  1.00  0.00    -0.266 A  
HETATM   30  C   UNL     1     -12.356  13.654  70.545  1.00  0.00    -0.425 A  
HETATM   31  O   UNL     1     -12.534  15.718  69.446  1.00  0.00    -0.540 OA 
HETATM   32  C   UNL     1     -12.069  12.283  70.549  1.00  0.00    -0.371 A  
HETATM   33  H   UNL     1     -12.785  16.154  70.252  1.00  0.00     0.000 HD 
ENDBRANCH  17  20
ENDBRANCH  16  17
ENDBRANCH  14  16
ENDBRANCH  10  14
ENDBRANCH   2   3
TORSDOF 6
ENDMDL
MODEL      120
REMARK 921   NORMALIZED FREE ENERGY PREDICTED BY IDOCK:   -5.59 KCAL/MOL
REMARK 922        TOTAL FREE ENERGY PREDICTED BY IDOCK:   -8.83 KCAL/MOL
REMARK 923 INTER-LIGAND FREE ENERGY PREDICTED BY IDOCK:   -7.78 KCAL/MOL
REMARK 924 INTRA-LIGAND FREE ENERGY PREDICTED BY IDOCK:   -1.05 KCAL/MOL
REMARK 927      BINDING AFFINITY PREDICTED BY RF-SCORE:    0.00 PKD
ROOT
HETATM    1  C   UNL     1     -12.018  13.877  69.063  1.00  0.00    -0.402 C  
HETATM    2  C   UNL     1     -11.938  13.655  67.561  1.00  0.00    -0.393 C  
ENDROOT
BRANCH   2   3
HETATM    3  C   UNL     1     -11.136  12.477  67.041  1.00  0.00    -0.326 A  
HETATM    4  C   UNL     1     -11.173  12.232  65.637  1.00  0.00    -0.375 A  
HETATM    5  C   UNL     1     -10.181  11.442  65.054  1.00  0.00    -0.333 A  
HETATM    6  C   UNL     1     -10.452  11.554  67.859  1.00  0.00    -0.211 A  
HETATM    7  C   UNL     1      -9.734  10.541  67.232  1.00  0.00    -0.197 A  
HETATM    8  C   UNL     1      -9.412  10.648  65.877  1.00  0.00    -0.239 A  
HETATM    9  C   UNL     1      -8.697   9.418  65.416  1.00  0.00    -0.194 C  
HETATM   10  C   UNL     1      -9.628   8.435  66.146  1.00  0.00    -0.176 C  
HETATM   11  C   UNL     1      -9.580   9.057  67.616  1.00  0.00    -0.183 C  
BRANCH   4  12
HETATM   12  C   UNL     1     -12.409  12.628  64.844  1.00  0.00    -0.563 C  
HETATM   13  C   UNL     1     -12.207  12.919  63.357  1.00  0.00    -0.574 C  
ENDBRANCH   4  12
BRANCH  10  14
HETATM   14  N   UNL     1      -9.406   7.015  65.802  1.00  0.00    -0.381 NA 
HETATM   15  H   UNL     1      -8.880   6.904  64.937  1.00  0.00     0.000 HD 
BRANCH  14  16
HETATM   16  C   UNL     1      -8.745   6.314  66.967  1.00  0.00    -0.108 C  
BRANCH  16  17
HETATM   17  C   UNL     1      -9.575   5.202  67.666  1.00  0.00    -0.140 C  
HETATM   18  H   UNL     1     -11.165   4.165  67.215  1.00  0.00     0.000 HD 
HETATM   19  O   UNL     1     -10.657   4.845  66.788  1.00  0.00    -0.226 OA 
BRANCH  17  20
HETATM   20  C   UNL     1     -10.128   5.574  69.057  1.00  0.00    -0.275 A  
HETATM   21  C   UNL     1      -9.588   5.060  70.260  1.00  0.00    -0.255 A  
HETATM   22  C   UNL     1      -8.341   4.284  70.309  1.00  0.00    -0.081 C  
HETATM   23  C   UNL     1      -7.888   3.755  71.453  1.00  0.00    -0.060 C  
HETATM   24  C   UNL     1      -8.650   3.903  72.720  1.00  0.00    -0.099 C  
HETATM   25  N   UNL     1      -9.773   4.679  72.676  1.00  0.00    -0.139 N  
HETATM   26  O   UNL     1      -8.274   3.361  73.746  1.00  0.00    -0.073 OA 
HETATM   27  H   UNL     1     -10.292   4.825  73.541  1.00  0.00     0.000 HD 
HETATM   28  C   UNL     1     -10.255   5.290  71.499  1.00  0.00    -0.212 A  
HETATM   29  C   UNL     1     -11.407   6.079  71.548  1.00  0.00    -0.246 A  
HETATM   30  C   UNL     1     -11.908   6.642  70.385  1.00  0.00    -0.407 A  
HETATM   31  O   UNL     1     -12.084   6.351  72.706  1.00  0.00    -0.495 OA 
HETATM   32  C   UNL     1     -11.275   6.400  69.159  1.00  0.00    -0.421 A  
HETATM   33  H   UNL     1     -12.868   6.887  72.739  1.00  0.00     0.000 HD 
ENDBRANCH  17  20
ENDBRANCH  16  17
ENDBRANCH  14  16
ENDBRANCH  10  14
ENDBRANCH   2   3
TORSDOF 6
ENDMDL
MODEL      121
REMARK 921   NORMALIZED FREE ENERGY PREDICTED BY IDOCK:   -5.58 KCAL/MOL
REMARK 922        TOTAL FREE ENERGY PREDICTED BY IDOCK:   -8.82 KCAL/MOL
REMARK 923 INTER-LIGAND FREE ENERGY PREDICTED BY IDOCK:   -8.39 KCAL/MOL
REMARK 924 INTRA-LIGAND FREE ENERGY PREDICTED BY IDOCK:   -0.43 KCAL/MOL
REMARK 927      BINDING AFFINITY PREDICTED BY RF-SCORE:    0.00 PKD
ROOT
HETATM    1  C   UNL     1      -9.364   2.758  69.307  1.00  0.00    -0.193 C  
HETATM    2  C   UNL     1      -9.549   3.231  70.740  1.00  0.00    -0.228 C  
ENDROOT
BRANCH   2   3
HETATM    3  C   UNL     1      -9.770   4.710  70.996  1.00  0.00    -0.258 A  
HETATM    4  C   UNL     1     -10.203   5.088  72.300  1.00  0.00    -0.257 A  
HETATM    5  C   UNL     1     -10.048   6.412  72.715  1.00  0.00    -0.195 A  
HETATM    6  C   UNL     1      -9.681   5.712  70.008  1.00  0.00    -0.227 A  
HETATM    7  C   UNL     1      -9.882   7.030  70.403  1.00  0.00    -0.184 A  
HETATM    8  C   UNL     1      -9.813   7.373  71.756  1.00  0.00    -0.187 A  
HETATM    9  C   UNL     1     -10.122   8.825  71.939  1.00  0.00    -0.409 C  
HETATM   10  C   UNL     1     -11.312   8.837  70.965  1.00  0.00    -0.278 C  
HETATM   11  C   UNL     1     -10.623   8.174  69.686  1.00  0.00    -0.223 C  
BRANCH   4  12
HETATM   12  C   UNL     1     -11.036   4.116  73.120  1.00  0.00    -0.278 C  
HETATM   13  C   UNL     1     -10.309   3.351  74.226  1.00  0.00    -0.245 C  
ENDBRANCH   4  12
BRANCH  10  14
HETATM   14  N   UNL     1     -12.094  10.091  70.972  1.00  0.00    -0.344 NA 
HETATM   15  H   UNL     1     -11.866  10.684  71.770  1.00  0.00     0.000 HD 
BRANCH  14  16
HETATM   16  C   UNL     1     -11.903  10.808  69.655  1.00  0.00    -0.320 C  
BRANCH  16  17
HETATM   17  C   UNL     1     -11.567  12.322  69.735  1.00  0.00    -0.243 C  
HETATM   18  H   UNL     1     -12.451  13.905  70.457  1.00  0.00     0.000 HD 
HETATM   19  O   UNL     1     -12.656  12.978  70.408  1.00  0.00    -0.212 OA 
BRANCH  17  20
HETATM   20  C   UNL     1     -11.299  13.006  68.379  1.00  0.00    -0.326 A  
HETATM   21  C   UNL     1     -11.027  14.390  68.257  1.00  0.00    -0.259 A  
HETATM   22  C   UNL     1     -10.784  15.261  69.415  1.00  0.00    -0.266 C  
HETATM   23  C   UNL     1     -10.593  16.580  69.274  1.00  0.00    -0.327 C  
HETATM   24  C   UNL     1     -10.653  17.223  67.936  1.00  0.00    -0.384 C  
HETATM   25  N   UNL     1     -10.815  16.396  66.862  1.00  0.00    -0.191 N  
HETATM   26  O   UNL     1     -10.549  18.433  67.816  1.00  0.00    -0.409 OA 
HETATM   27  H   UNL     1     -10.822  16.811  65.931  1.00  0.00     0.000 HD 
HETATM   28  C   UNL     1     -10.973  14.998  66.969  1.00  0.00    -0.318 A  
HETATM   29  C   UNL     1     -11.122  14.225  65.814  1.00  0.00    -0.310 A  
HETATM   30  C   UNL     1     -11.323  12.859  65.919  1.00  0.00    -0.348 A  
HETATM   31  O   UNL     1     -11.064  14.744  64.549  1.00  0.00    -0.575 OA 
HETATM   32  C   UNL     1     -11.404  12.256  67.181  1.00  0.00    -0.398 A  
HETATM   33  H   UNL     1     -11.165  14.219  63.764  1.00  0.00     0.000 HD 
ENDBRANCH  17  20
ENDBRANCH  16  17
ENDBRANCH  14  16
ENDBRANCH  10  14
ENDBRANCH   2   3
TORSDOF 6
ENDMDL
MODEL      122
REMARK 921   NORMALIZED FREE ENERGY PREDICTED BY IDOCK:   -5.56 KCAL/MOL
REMARK 922        TOTAL FREE ENERGY PREDICTED BY IDOCK:   -8.79 KCAL/MOL
REMARK 923 INTER-LIGAND FREE ENERGY PREDICTED BY IDOCK:   -7.20 KCAL/MOL
REMARK 924 INTRA-LIGAND FREE ENERGY PREDICTED BY IDOCK:   -1.59 KCAL/MOL
REMARK 927      BINDING AFFINITY PREDICTED BY RF-SCORE:    0.00 PKD
ROOT
HETATM    1  C   UNL     1     -12.832  15.273  70.892  1.00  0.00    -0.511 C  
HETATM    2  C   UNL     1     -12.348  13.832  70.943  1.00  0.00    -0.456 C  
ENDROOT
BRANCH   2   3
HETATM    3  C   UNL     1     -11.735  13.225  69.695  1.00  0.00    -0.369 A  
HETATM    4  C   UNL     1     -11.859  11.815  69.529  1.00  0.00    -0.402 A  
HETATM    5  C   UNL     1     -11.678  11.258  68.262  1.00  0.00    -0.344 A  
HETATM    6  C   UNL     1     -10.967  13.942  68.755  1.00  0.00    -0.286 A  
HETATM    7  C   UNL     1     -10.495  13.251  67.643  1.00  0.00    -0.231 A  
HETATM    8  C   UNL     1     -11.056  12.019  67.297  1.00  0.00    -0.341 A  
HETATM    9  C   UNL     1     -10.348  11.444  66.111  1.00  0.00    -0.294 C  
HETATM   10  C   UNL     1      -8.936  11.794  66.609  1.00  0.00    -0.195 C  
HETATM   11  C   UNL     1      -9.136  13.346  66.925  1.00  0.00    -0.237 C  
BRANCH   4  12
HETATM   12  C   UNL     1     -11.942  10.924  70.758  1.00  0.00    -0.449 C  
HETATM   13  C   UNL     1     -13.199  10.064  70.899  1.00  0.00    -0.336 C  
ENDBRANCH   4  12
BRANCH  10  14
HETATM   14  N   UNL     1      -7.843  11.211  65.804  1.00  0.00    -0.370 NA 
HETATM   15  H   UNL     1      -7.200  11.921  65.454  1.00  0.00     0.000 HD 
BRANCH  14  16
HETATM   16  C   UNL     1      -7.135  10.149  66.613  1.00  0.00    -0.101 C  
BRANCH  16  17
HETATM   17  C   UNL     1      -7.546   8.677  66.330  1.00  0.00    -0.094 C  
HETATM   18  H   UNL     1      -8.246   7.702  64.792  1.00  0.00     0.000 HD 
HETATM   19  O   UNL     1      -7.994   8.602  64.965  1.00  0.00    -0.115 OA 
BRANCH  17  20
HETATM   20  C   UNL     1      -8.627   8.107  67.270  1.00  0.00    -0.124 A  
HETATM   21  C   UNL     1      -8.317   7.431  68.475  1.00  0.00    -0.126 A  
HETATM   22  C   UNL     1      -6.960   7.378  69.035  1.00  0.00    -0.077 C  
HETATM   23  C   UNL     1      -6.684   6.676  70.142  1.00  0.00    -0.052 C  
HETATM   24  C   UNL     1      -7.739   5.890  70.833  1.00  0.00    -0.098 C  
HETATM   25  N   UNL     1      -9.009   5.998  70.342  1.00  0.00    -0.147 N  
HETATM   26  O   UNL     1      -7.473   5.195  71.800  1.00  0.00    -0.084 OA 
HETATM   27  H   UNL     1      -9.756   5.498  70.822  1.00  0.00     0.000 HD 
HETATM   28  C   UNL     1      -9.344   6.765  69.206  1.00  0.00    -0.144 A  
HETATM   29  C   UNL     1     -10.673   6.829  68.779  1.00  0.00    -0.239 A  
HETATM   30  C   UNL     1     -10.998   7.543  67.637  1.00  0.00    -0.093 A  
HETATM   31  O   UNL     1     -11.707   6.227  69.443  1.00  0.00    -0.545 OA 
HETATM   32  C   UNL     1      -9.992   8.179  66.898  1.00  0.00    -0.343 A  
HETATM   33  H   UNL     1     -12.610   6.270  69.153  1.00  0.00     0.000 HD 
ENDBRANCH  17  20
ENDBRANCH  16  17
ENDBRANCH  14  16
ENDBRANCH  10  14
ENDBRANCH   2   3
TORSDOF 6
ENDMDL
MODEL      123
REMARK 921   NORMALIZED FREE ENERGY PREDICTED BY IDOCK:   -5.56 KCAL/MOL
REMARK 922        TOTAL FREE ENERGY PREDICTED BY IDOCK:   -8.78 KCAL/MOL
REMARK 923 INTER-LIGAND FREE ENERGY PREDICTED BY IDOCK:   -7.72 KCAL/MOL
REMARK 924 INTRA-LIGAND FREE ENERGY PREDICTED BY IDOCK:   -1.07 KCAL/MOL
REMARK 927      BINDING AFFINITY PREDICTED BY RF-SCORE:    0.00 PKD
ROOT
HETATM    1  C   UNL     1      -9.748   3.948  70.815  1.00  0.00    -0.255 C  
HETATM    2  C   UNL     1      -9.218   5.303  71.254  1.00  0.00    -0.178 C  
ENDROOT
BRANCH   2   3
HETATM    3  C   UNL     1      -9.193   6.437  70.247  1.00  0.00    -0.158 A  
HETATM    4  C   UNL     1      -9.920   7.617  70.577  1.00  0.00    -0.184 A  
HETATM    5  C   UNL     1      -9.629   8.808  69.910  1.00  0.00    -0.182 A  
HETATM    6  C   UNL     1      -8.595   6.358  68.973  1.00  0.00    -0.124 A  
HETATM    7  C   UNL     1      -8.628   7.494  68.171  1.00  0.00    -0.123 A  
HETATM    8  C   UNL     1      -8.912   8.740  68.735  1.00  0.00    -0.138 A  
HETATM    9  C   UNL     1      -8.952   9.792  67.673  1.00  0.00    -0.133 C  
HETATM   10  C   UNL     1      -9.752   8.946  66.669  1.00  0.00    -0.237 C  
HETATM   11  C   UNL     1      -8.854   7.625  66.653  1.00  0.00    -0.159 C  
BRANCH   4  12
HETATM   12  C   UNL     1     -11.150   7.512  71.464  1.00  0.00    -0.263 C  
HETATM   13  C   UNL     1     -12.399   6.894  70.836  1.00  0.00    -0.365 C  
ENDBRANCH   4  12
BRANCH  10  14
HETATM   14  N   UNL     1     -10.216   9.687  65.478  1.00  0.00    -0.262 NA 
HETATM   15  H   UNL     1     -11.207   9.537  65.293  1.00  0.00     0.000 HD 
BRANCH  14  16
HETATM   16  C   UNL     1      -9.880  11.153  65.637  1.00  0.00    -0.235 C  
BRANCH  16  17
HETATM   17  C   UNL     1     -11.029  12.159  65.352  1.00  0.00    -0.302 C  
HETATM   18  H   UNL     1     -11.914  12.839  63.752  1.00  0.00     0.000 HD 
HETATM   19  O   UNL     1     -11.212  12.223  63.927  1.00  0.00    -0.350 OA 
BRANCH  17  20
HETATM   20  C   UNL     1     -10.811  13.578  65.917  1.00  0.00    -0.279 A  
HETATM   21  C   UNL     1     -11.154  13.936  67.243  1.00  0.00    -0.312 A  
HETATM   22  C   UNL     1     -11.565  12.953  68.256  1.00  0.00    -0.374 C  
HETATM   23  C   UNL     1     -11.946  13.328  69.484  1.00  0.00    -0.366 C  
HETATM   24  C   UNL     1     -12.002  14.764  69.864  1.00  0.00    -0.328 C  
HETATM   25  N   UNL     1     -11.557  15.663  68.937  1.00  0.00    -0.365 N  
HETATM   26  O   UNL     1     -12.416  15.108  70.959  1.00  0.00    -0.302 OA 
HETATM   27  H   UNL     1     -11.551  16.651  69.190  1.00  0.00     0.000 HD 
HETATM   28  C   UNL     1     -11.105  15.301  67.651  1.00  0.00    -0.323 A  
HETATM   29  C   UNL     1     -10.655  16.288  66.770  1.00  0.00    -0.257 A  
HETATM   30  C   UNL     1     -10.255  15.940  65.490  1.00  0.00    -0.394 A  
HETATM   31  O   UNL     1     -10.568  17.612  67.104  1.00  0.00    -0.339 OA 
HETATM   32  C   UNL     1     -10.324  14.605  65.072  1.00  0.00    -0.432 A  
HETATM   33  H   UNL     1     -10.263  18.283  66.504  1.00  0.00     0.000 HD 
ENDBRANCH  17  20
ENDBRANCH  16  17
ENDBRANCH  14  16
ENDBRANCH  10  14
ENDBRANCH   2   3
TORSDOF 6
ENDMDL
MODEL      124
REMARK 921   NORMALIZED FREE ENERGY PREDICTED BY IDOCK:   -5.56 KCAL/MOL
REMARK 922        TOTAL FREE ENERGY PREDICTED BY IDOCK:   -8.78 KCAL/MOL
REMARK 923 INTER-LIGAND FREE ENERGY PREDICTED BY IDOCK:   -8.04 KCAL/MOL
REMARK 924 INTRA-LIGAND FREE ENERGY PREDICTED BY IDOCK:   -0.75 KCAL/MOL
REMARK 927      BINDING AFFINITY PREDICTED BY RF-SCORE:    0.00 PKD
ROOT
HETATM    1  C   UNL     1      -9.264   1.864  64.126  1.00  0.00    -0.118 C  
HETATM    2  C   UNL     1      -9.114   1.851  65.638  1.00  0.00    -0.067 C  
ENDROOT
BRANCH   2   3
HETATM    3  C   UNL     1      -9.180   3.169  66.388  1.00  0.00    -0.147 A  
HETATM    4  C   UNL     1      -8.782   3.161  67.756  1.00  0.00    -0.134 A  
HETATM    5  C   UNL     1      -8.446   4.365  68.378  1.00  0.00    -0.101 A  
HETATM    6  C   UNL     1      -9.707   4.363  65.855  1.00  0.00    -0.214 A  
HETATM    7  C   UNL     1      -9.671   5.500  66.656  1.00  0.00    -0.175 A  
HETATM    8  C   UNL     1      -8.836   5.541  67.775  1.00  0.00    -0.105 A  
HETATM    9  C   UNL     1      -9.015   6.832  68.508  1.00  0.00    -0.121 C  
HETATM   10  C   UNL     1     -10.550   6.837  68.407  1.00  0.00    -0.227 C  
HETATM   11  C   UNL     1     -10.719   6.615  66.834  1.00  0.00    -0.401 C  
BRANCH   4  12
HETATM   12  C   UNL     1      -8.959   1.893  68.576  1.00  0.00    -0.171 C  
HETATM   13  C   UNL     1      -8.998   2.057  70.096  1.00  0.00    -0.147 C  
ENDBRANCH   4  12
BRANCH  10  14
HETATM   14  N   UNL     1     -11.211   7.890  69.205  1.00  0.00    -0.420 NA 
HETATM   15  H   UNL     1     -11.420   7.581  70.154  1.00  0.00     0.000 HD 
BRANCH  14  16
HETATM   16  C   UNL     1     -10.364   9.141  69.185  1.00  0.00    -0.212 C  
BRANCH  16  17
HETATM   17  C   UNL     1     -10.504  10.051  67.933  1.00  0.00    -0.231 C  
HETATM   18  H   UNL     1      -9.274  10.818  66.629  1.00  0.00     0.000 HD 
HETATM   19  O   UNL     1      -9.188  10.262  67.394  1.00  0.00    -0.141 OA 
BRANCH  17  20
HETATM   20  C   UNL     1     -11.193  11.408  68.185  1.00  0.00    -0.343 A  
HETATM   21  C   UNL     1     -11.633  12.251  67.136  1.00  0.00    -0.423 A  
HETATM   22  C   UNL     1     -11.651  11.832  65.728  1.00  0.00    -0.194 C  
HETATM   23  C   UNL     1     -12.011  12.673  64.749  1.00  0.00    -0.458 C  
HETATM   24  C   UNL     1     -12.377  14.082  65.047  1.00  0.00    -0.441 C  
HETATM   25  N   UNL     1     -12.418  14.442  66.364  1.00  0.00    -0.466 N  
HETATM   26  O   UNL     1     -12.637  14.867  64.149  1.00  0.00    -0.785 OA 
HETATM   27  H   UNL     1     -12.703  15.394  66.594  1.00  0.00     0.000 HD 
HETATM   28  C   UNL     1     -12.091  13.571  67.423  1.00  0.00    -0.318 A  
HETATM   29  C   UNL     1     -12.172  14.020  68.743  1.00  0.00    -0.202 A  
HETATM   30  C   UNL     1     -11.806  13.180  69.783  1.00  0.00    -0.386 A  
HETATM   31  O   UNL     1     -12.618  15.268  69.087  1.00  0.00    -0.583 OA 
HETATM   32  C   UNL     1     -11.331  11.892  69.509  1.00  0.00    -0.306 A  
HETATM   33  H   UNL     1     -12.673  15.574  69.985  1.00  0.00     0.000 HD 
ENDBRANCH  17  20
ENDBRANCH  16  17
ENDBRANCH  14  16
ENDBRANCH  10  14
ENDBRANCH   2   3
TORSDOF 6
ENDMDL
MODEL      125
REMARK 921   NORMALIZED FREE ENERGY PREDICTED BY IDOCK:   -5.55 KCAL/MOL
REMARK 922        TOTAL FREE ENERGY PREDICTED BY IDOCK:   -8.78 KCAL/MOL
REMARK 923 INTER-LIGAND FREE ENERGY PREDICTED BY IDOCK:   -7.78 KCAL/MOL
REMARK 924 INTRA-LIGAND FREE ENERGY PREDICTED BY IDOCK:   -0.99 KCAL/MOL
REMARK 927      BINDING AFFINITY PREDICTED BY RF-SCORE:    0.00 PKD
ROOT
HETATM    1  C   UNL     1     -12.414  15.602  74.214  1.00  0.00    -0.804 C  
HETATM    2  C   UNL     1     -13.208  15.004  73.064  1.00  0.00    -0.596 C  
ENDROOT
BRANCH   2   3
HETATM    3  C   UNL     1     -12.574  14.957  71.687  1.00  0.00    -0.396 A  
HETATM    4  C   UNL     1     -12.701  13.742  70.952  1.00  0.00    -0.394 A  
HETATM    5  C   UNL     1     -12.499  13.755  69.571  1.00  0.00    -0.123 A  
HETATM    6  C   UNL     1     -11.782  15.987  71.139  1.00  0.00    -0.487 A  
HETATM    7  C   UNL     1     -11.293  15.809  69.849  1.00  0.00    -0.349 A  
HETATM    8  C   UNL     1     -11.852  14.838  69.016  1.00  0.00    -0.337 A  
HETATM    9  C   UNL     1     -11.125  14.794  67.710  1.00  0.00    -0.306 C  
HETATM   10  C   UNL     1      -9.721  14.888  68.330  1.00  0.00    -0.209 C  
HETATM   11  C   UNL     1      -9.919  16.175  69.255  1.00  0.00    -0.253 C  
BRANCH   4  12
HETATM   12  C   UNL     1     -12.815  12.425  71.702  1.00  0.00    -0.375 C  
HETATM   13  C   UNL     1     -12.440  11.160  70.930  1.00  0.00    -0.509 C  
ENDBRANCH   4  12
BRANCH  10  14
HETATM   14  N   UNL     1      -8.614  14.675  67.374  1.00  0.00    -0.186 NA 
HETATM   15  H   UNL     1      -7.932  15.432  67.398  1.00  0.00     0.000 HD 
BRANCH  14  16
HETATM   16  C   UNL     1      -7.981  13.327  67.632  1.00  0.00    -0.176 C  
BRANCH  16  17
HETATM   17  C   UNL     1      -8.549  12.131  66.819  1.00  0.00    -0.163 C  
HETATM   18  H   UNL     1      -9.818  11.926  65.352  1.00  0.00     0.000 HD 
HETATM   19  O   UNL     1      -9.472  12.658  65.850  1.00  0.00    -0.202 OA 
BRANCH  17  20
HETATM   20  C   UNL     1      -9.237  11.036  67.659  1.00  0.00    -0.151 A  
HETATM   21  C   UNL     1      -8.619  10.424  68.776  1.00  0.00    -0.141 A  
HETATM   22  C   UNL     1      -7.356  10.905  69.354  1.00  0.00    -0.116 C  
HETATM   23  C   UNL     1      -6.762  10.268  70.371  1.00  0.00    -0.122 C  
HETATM   24  C   UNL     1      -7.341   9.022  70.938  1.00  0.00    -0.111 C  
HETATM   25  N   UNL     1      -8.547   8.621  70.437  1.00  0.00    -0.142 N  
HETATM   26  O   UNL     1      -6.763   8.404  71.816  1.00  0.00    -0.063 OA 
HETATM   27  H   UNL     1      -8.981   7.789  70.836  1.00  0.00     0.000 HD 
HETATM   28  C   UNL     1      -9.224   9.293  69.398  1.00  0.00    -0.159 A  
HETATM   29  C   UNL     1     -10.461   8.818  68.954  1.00  0.00    -0.197 A  
HETATM   30  C   UNL     1     -11.106   9.449  67.903  1.00  0.00     0.011 A  
HETATM   31  O   UNL     1     -11.103   7.748  69.518  1.00  0.00    -0.427 OA 
HETATM   32  C   UNL     1     -10.508  10.545  67.269  1.00  0.00    -0.300 A  
HETATM   33  H   UNL     1     -11.943   7.425  69.216  1.00  0.00     0.000 HD 
ENDBRANCH  17  20
ENDBRANCH  16  17
ENDBRANCH  14  16
ENDBRANCH  10  14
ENDBRANCH   2   3
TORSDOF 6
ENDMDL
MODEL      126
REMARK 921   NORMALIZED FREE ENERGY PREDICTED BY IDOCK:   -5.55 KCAL/MOL
REMARK 922        TOTAL FREE ENERGY PREDICTED BY IDOCK:   -8.77 KCAL/MOL
REMARK 923 INTER-LIGAND FREE ENERGY PREDICTED BY IDOCK:   -7.94 KCAL/MOL
REMARK 924 INTRA-LIGAND FREE ENERGY PREDICTED BY IDOCK:   -0.83 KCAL/MOL
REMARK 927      BINDING AFFINITY PREDICTED BY RF-SCORE:    0.00 PKD
ROOT
HETATM    1  C   UNL     1     -13.605  14.593  72.773  1.00  0.00    -0.538 C  
HETATM    2  C   UNL     1     -13.356  13.228  72.154  1.00  0.00    -0.618 C  
ENDROOT
BRANCH   2   3
HETATM    3  C   UNL     1     -12.574  13.148  70.857  1.00  0.00    -0.377 A  
HETATM    4  C   UNL     1     -12.280  11.848  70.352  1.00  0.00    -0.399 A  
HETATM    5  C   UNL     1     -11.926  11.699  69.010  1.00  0.00    -0.368 A  
HETATM    6  C   UNL     1     -12.032  14.261  70.183  1.00  0.00    -0.391 A  
HETATM    7  C   UNL     1     -11.363  14.030  68.985  1.00  0.00    -0.319 A  
HETATM    8  C   UNL     1     -11.536  12.820  68.310  1.00  0.00    -0.375 A  
HETATM    9  C   UNL     1     -10.674  12.781  67.088  1.00  0.00    -0.264 C  
HETATM   10  C   UNL     1      -9.432  13.371  67.776  1.00  0.00    -0.210 C  
HETATM   11  C   UNL     1     -10.079  14.676  68.431  1.00  0.00    -0.237 C  
BRANCH   4  12
HETATM   12  C   UNL     1     -12.121  10.689  71.323  1.00  0.00    -0.401 C  
HETATM   13  C   UNL     1     -13.361   9.833  71.581  1.00  0.00    -0.487 C  
ENDBRANCH   4  12
BRANCH  10  14
HETATM   14  N   UNL     1      -8.204  13.337  66.954  1.00  0.00    -0.405 NA 
HETATM   15  H   UNL     1      -8.105  14.168  66.374  1.00  0.00     0.000 HD 
BRANCH  14  16
HETATM   16  C   UNL     1      -7.007  13.119  67.851  1.00  0.00    -0.132 C  
BRANCH  16  17
HETATM   17  C   UNL     1      -6.534  11.649  68.027  1.00  0.00    -0.055 C  
HETATM   18  H   UNL     1      -5.097  10.555  67.291  1.00  0.00     0.000 HD 
HETATM   19  O   UNL     1      -5.385  11.454  67.184  1.00  0.00    -0.056 OA 
BRANCH  17  20
HETATM   20  C   UNL     1      -7.600  10.578  67.718  1.00  0.00    -0.088 A  
HETATM   21  C   UNL     1      -7.860  10.108  66.408  1.00  0.00    -0.114 A  
HETATM   22  C   UNL     1      -7.015  10.449  65.255  1.00  0.00    -0.099 C  
HETATM   23  C   UNL     1      -7.322  10.044  64.016  1.00  0.00    -0.132 C  
HETATM   24  C   UNL     1      -8.554   9.255  63.751  1.00  0.00    -0.192 C  
HETATM   25  N   UNL     1      -9.296   8.889  64.837  1.00  0.00    -0.407 N  
HETATM   26  O   UNL     1      -8.869   8.946  62.613  1.00  0.00    -0.186 OA 
HETATM   27  H   UNL     1     -10.125   8.317  64.683  1.00  0.00     0.000 HD 
HETATM   28  C   UNL     1      -8.978   9.259  66.161  1.00  0.00    -0.165 A  
HETATM   29  C   UNL     1      -9.788   8.830  67.215  1.00  0.00    -0.201 A  
HETATM   30  C   UNL     1      -9.505   9.230  68.511  1.00  0.00    -0.150 A  
HETATM   31  O   UNL     1     -10.866   8.003  67.048  1.00  0.00    -0.443 OA 
HETATM   32  C   UNL     1      -8.424  10.085  68.761  1.00  0.00    -0.126 A  
HETATM   33  H   UNL     1     -11.417   7.711  67.765  1.00  0.00     0.000 HD 
ENDBRANCH  17  20
ENDBRANCH  16  17
ENDBRANCH  14  16
ENDBRANCH  10  14
ENDBRANCH   2   3
TORSDOF 6
ENDMDL
MODEL      127
REMARK 921   NORMALIZED FREE ENERGY PREDICTED BY IDOCK:   -5.54 KCAL/MOL
REMARK 922        TOTAL FREE ENERGY PREDICTED BY IDOCK:   -8.77 KCAL/MOL
REMARK 923 INTER-LIGAND FREE ENERGY PREDICTED BY IDOCK:   -7.24 KCAL/MOL
REMARK 924 INTRA-LIGAND FREE ENERGY PREDICTED BY IDOCK:   -1.53 KCAL/MOL
REMARK 927      BINDING AFFINITY PREDICTED BY RF-SCORE:    0.00 PKD
ROOT
HETATM    1  C   UNL     1     -13.072  15.468  73.003  1.00  0.00    -0.632 C  
HETATM    2  C   UNL     1     -13.712  15.250  71.641  1.00  0.00    -0.600 C  
ENDROOT
BRANCH   2   3
HETATM    3  C   UNL     1     -12.829  14.835  70.480  1.00  0.00    -0.374 A  
HETATM    4  C   UNL     1     -12.563  13.443  70.328  1.00  0.00    -0.187 A  
HETATM    5  C   UNL     1     -12.106  12.964  69.099  1.00  0.00    -0.216 A  
HETATM    6  C   UNL     1     -12.174  15.736  69.615  1.00  0.00    -0.207 A  
HETATM    7  C   UNL     1     -11.420  15.202  68.575  1.00  0.00    -0.335 A  
HETATM    8  C   UNL     1     -11.600  13.870  68.193  1.00  0.00    -0.370 A  
HETATM    9  C   UNL     1     -10.642  13.510  67.103  1.00  0.00    -0.264 C  
HETATM   10  C   UNL     1      -9.432  14.210  67.744  1.00  0.00    -0.207 C  
HETATM   11  C   UNL     1     -10.062  15.654  68.007  1.00  0.00    -0.224 C  
BRANCH   4  12
HETATM   12  C   UNL     1     -12.548  12.548  71.557  1.00  0.00    -0.253 C  
HETATM   13  C   UNL     1     -12.692  11.046  71.316  1.00  0.00    -0.537 C  
ENDBRANCH   4  12
BRANCH  10  14
HETATM   14  N   UNL     1      -8.143  13.940  67.074  1.00  0.00    -0.383 NA 
HETATM   15  H   UNL     1      -7.826  14.730  66.514  1.00  0.00     0.000 HD 
BRANCH  14  16
HETATM   16  C   UNL     1      -7.120  13.522  68.105  1.00  0.00    -0.117 C  
BRANCH  16  17
HETATM   17  C   UNL     1      -6.448  12.138  67.891  1.00  0.00    -0.078 C  
HETATM   18  H   UNL     1      -4.835  11.500  67.000  1.00  0.00     0.000 HD 
HETATM   19  O   UNL     1      -5.245  12.347  67.131  1.00  0.00    -0.248 OA 
BRANCH  17  20
HETATM   20  C   UNL     1      -7.332  11.083  67.195  1.00  0.00    -0.116 A  
HETATM   21  C   UNL     1      -8.320  10.336  67.882  1.00  0.00    -0.114 A  
HETATM   22  C   UNL     1      -8.727  10.629  69.263  1.00  0.00    -0.090 C  
HETATM   23  C   UNL     1      -9.617   9.865  69.910  1.00  0.00    -0.265 C  
HETATM   24  C   UNL     1     -10.209   8.664  69.264  1.00  0.00    -0.211 C  
HETATM   25  N   UNL     1      -9.873   8.439  67.959  1.00  0.00    -0.163 N  
HETATM   26  O   UNL     1     -10.966   7.930  69.877  1.00  0.00    -0.243 OA 
HETATM   27  H   UNL     1     -10.296   7.642  67.484  1.00  0.00     0.000 HD 
HETATM   28  C   UNL     1      -8.975   9.248  67.232  1.00  0.00    -0.123 A  
HETATM   29  C   UNL     1      -8.697   8.951  65.896  1.00  0.00    -0.170 A  
HETATM   30  C   UNL     1      -7.780   9.716  65.194  1.00  0.00    -0.117 A  
HETATM   31  O   UNL     1      -9.302   7.932  65.210  1.00  0.00    -0.313 OA 
HETATM   32  C   UNL     1      -7.113  10.770  65.831  1.00  0.00    -0.080 A  
HETATM   33  H   UNL     1      -9.112   7.729  64.302  1.00  0.00     0.000 HD 
ENDBRANCH  17  20
ENDBRANCH  16  17
ENDBRANCH  14  16
ENDBRANCH  10  14
ENDBRANCH   2   3
TORSDOF 6
ENDMDL
MODEL      128
REMARK 921   NORMALIZED FREE ENERGY PREDICTED BY IDOCK:   -5.54 KCAL/MOL
REMARK 922        TOTAL FREE ENERGY PREDICTED BY IDOCK:   -8.76 KCAL/MOL
REMARK 923 INTER-LIGAND FREE ENERGY PREDICTED BY IDOCK:   -7.58 KCAL/MOL
REMARK 924 INTRA-LIGAND FREE ENERGY PREDICTED BY IDOCK:   -1.18 KCAL/MOL
REMARK 927      BINDING AFFINITY PREDICTED BY RF-SCORE:    0.00 PKD
ROOT
HETATM    1  C   UNL     1      -7.196   7.477  72.223  1.00  0.00    -0.069 C  
HETATM    2  C   UNL     1      -6.864   7.985  70.830  1.00  0.00    -0.041 C  
ENDROOT
BRANCH   2   3
HETATM    3  C   UNL     1      -7.952   8.671  70.026  1.00  0.00    -0.106 A  
HETATM    4  C   UNL     1      -8.952   7.841  69.441  1.00  0.00    -0.142 A  
HETATM    5  C   UNL     1     -10.162   8.408  69.039  1.00  0.00    -0.217 A  
HETATM    6  C   UNL     1      -7.977  10.050  69.733  1.00  0.00    -0.190 A  
HETATM    7  C   UNL     1      -9.059  10.538  69.008  1.00  0.00    -0.188 A  
HETATM    8  C   UNL     1     -10.225   9.777  68.895  1.00  0.00    -0.213 A  
HETATM    9  C   UNL     1     -11.218  10.478  68.023  1.00  0.00    -0.361 C  
HETATM   10  C   UNL     1     -10.194  10.899  66.956  1.00  0.00    -0.214 C  
HETATM   11  C   UNL     1      -9.102  11.597  67.890  1.00  0.00    -0.171 C  
BRANCH   4  12
HETATM   12  C   UNL     1      -8.600   6.416  69.046  1.00  0.00    -0.124 C  
HETATM   13  C   UNL     1      -8.072   6.206  67.627  1.00  0.00    -0.113 C  
ENDBRANCH   4  12
BRANCH  10  14
HETATM   14  N   UNL     1     -10.788  11.485  65.737  1.00  0.00    -0.279 NA 
HETATM   15  H   UNL     1     -11.115  10.772  65.086  1.00  0.00     0.000 HD 
BRANCH  14  16
HETATM   16  C   UNL     1     -11.884  12.450  66.127  1.00  0.00    -0.376 C  
BRANCH  16  17
HETATM   17  C   UNL     1     -11.497  13.954  66.171  1.00  0.00    -0.345 C  
HETATM   18  H   UNL     1      -9.940  15.003  65.643  1.00  0.00     0.000 HD 
HETATM   19  O   UNL     1     -10.176  14.083  65.616  1.00  0.00    -0.308 OA 
BRANCH  17  20
HETATM   20  C   UNL     1     -11.545  14.601  67.570  1.00  0.00    -0.396 A  
HETATM   21  C   UNL     1     -11.060  15.905  67.829  1.00  0.00    -0.288 A  
HETATM   22  C   UNL     1     -10.647  16.831  66.765  1.00  0.00    -0.203 C  
HETATM   23  C   UNL     1     -10.131  18.035  67.043  1.00  0.00    -0.348 C  
HETATM   24  C   UNL     1      -9.923  18.474  68.447  1.00  0.00    -0.380 C  
HETATM   25  N   UNL     1     -10.369  17.633  69.427  1.00  0.00    -0.318 N  
HETATM   26  O   UNL     1      -9.389  19.541  68.699  1.00  0.00    -0.363 OA 
HETATM   27  H   UNL     1     -10.270  17.929  70.398  1.00  0.00     0.000 HD 
HETATM   28  C   UNL     1     -10.959  16.378  69.171  1.00  0.00    -0.324 A  
HETATM   29  C   UNL     1     -11.398  15.586  70.235  1.00  0.00    -0.332 A  
HETATM   30  C   UNL     1     -11.936  14.333  69.988  1.00  0.00    -0.396 A  
HETATM   31  O   UNL     1     -11.345  15.986  71.543  1.00  0.00    -0.374 OA 
HETATM   32  C   UNL     1     -12.015  13.850  68.676  1.00  0.00    -0.401 A  
HETATM   33  H   UNL     1     -11.643  15.448  72.267  1.00  0.00     0.000 HD 
ENDBRANCH  17  20
ENDBRANCH  16  17
ENDBRANCH  14  16
ENDBRANCH  10  14
ENDBRANCH   2   3
TORSDOF 6
ENDMDL
MODEL      129
REMARK 921   NORMALIZED FREE ENERGY PREDICTED BY IDOCK:   -5.53 KCAL/MOL
REMARK 922        TOTAL FREE ENERGY PREDICTED BY IDOCK:   -8.75 KCAL/MOL
REMARK 923 INTER-LIGAND FREE ENERGY PREDICTED BY IDOCK:   -7.06 KCAL/MOL
REMARK 924 INTRA-LIGAND FREE ENERGY PREDICTED BY IDOCK:   -1.69 KCAL/MOL
REMARK 927      BINDING AFFINITY PREDICTED BY RF-SCORE:    0.00 PKD
ROOT
HETATM    1  C   UNL     1     -11.060   3.043  73.751  1.00  0.00    -0.295 C  
HETATM    2  C   UNL     1     -11.253   4.547  73.640  1.00  0.00    -0.346 C  
ENDROOT
BRANCH   2   3
HETATM    3  C   UNL     1     -10.374   5.325  72.680  1.00  0.00    -0.247 A  
HETATM    4  C   UNL     1     -10.667   6.709  72.504  1.00  0.00    -0.259 A  
HETATM    5  C   UNL     1      -9.693   7.551  71.964  1.00  0.00    -0.195 A  
HETATM    6  C   UNL     1      -9.367   4.751  71.877  1.00  0.00    -0.181 A  
HETATM    7  C   UNL     1      -8.623   5.601  71.066  1.00  0.00    -0.127 A  
HETATM    8  C   UNL     1      -8.628   6.977  71.305  1.00  0.00    -0.119 A  
HETATM    9  C   UNL     1      -7.809   7.685  70.273  1.00  0.00    -0.092 C  
HETATM   10  C   UNL     1      -8.355   6.877  69.084  1.00  0.00    -0.125 C  
HETATM   11  C   UNL     1      -8.109   5.395  69.628  1.00  0.00    -0.099 C  
BRANCH   4  12
HETATM   12  C   UNL     1     -12.097   7.196  72.676  1.00  0.00     0.053 C  
HETATM   13  C   UNL     1     -13.043   6.984  71.494  1.00  0.00    -0.395 C  
ENDBRANCH   4  12
BRANCH  10  14
HETATM   14  N   UNL     1      -7.947   7.388  67.759  1.00  0.00    -0.117 NA 
HETATM   15  H   UNL     1      -8.182   6.740  67.007  1.00  0.00     0.000 HD 
BRANCH  14  16
HETATM   16  C   UNL     1      -8.550   8.757  67.543  1.00  0.00    -0.127 C  
BRANCH  16  17
HETATM   17  C   UNL     1     -10.085   8.876  67.746  1.00  0.00    -0.210 C  
HETATM   18  H   UNL     1     -11.665   8.233  66.800  1.00  0.00     0.000 HD 
HETATM   19  O   UNL     1     -10.726   8.160  66.675  1.00  0.00    -0.210 OA 
BRANCH  17  20
HETATM   20  C   UNL     1     -10.627  10.318  67.812  1.00  0.00    -0.296 A  
HETATM   21  C   UNL     1     -11.257  10.850  68.963  1.00  0.00    -0.327 A  
HETATM   22  C   UNL     1     -11.281  10.151  70.255  1.00  0.00    -0.387 C  
HETATM   23  C   UNL     1     -11.941  10.647  71.310  1.00  0.00    -0.344 C  
HETATM   24  C   UNL     1     -12.707  11.917  71.206  1.00  0.00    -0.298 C  
HETATM   25  N   UNL     1     -12.624  12.590  70.021  1.00  0.00     0.076 N  
HETATM   26  O   UNL     1     -13.364  12.332  72.146  1.00  0.00    -0.526 OA 
HETATM   27  H   UNL     1     -13.111  13.482  69.939  1.00  0.00     0.000 HD 
HETATM   28  C   UNL     1     -11.902  12.120  68.904  1.00  0.00    -0.304 A  
HETATM   29  C   UNL     1     -11.861  12.881  67.732  1.00  0.00    -0.339 A  
HETATM   30  C   UNL     1     -11.191  12.400  66.619  1.00  0.00    -0.366 A  
HETATM   31  O   UNL     1     -12.445  14.113  67.615  1.00  0.00    -0.540 OA 
HETATM   32  C   UNL     1     -10.577  11.141  66.660  1.00  0.00    -0.314 A  
HETATM   33  H   UNL     1     -12.418  14.630  66.819  1.00  0.00     0.000 HD 
ENDBRANCH  17  20
ENDBRANCH  16  17
ENDBRANCH  14  16
ENDBRANCH  10  14
ENDBRANCH   2   3
TORSDOF 6
ENDMDL
MODEL      130
REMARK 921   NORMALIZED FREE ENERGY PREDICTED BY IDOCK:   -5.52 KCAL/MOL
REMARK 922        TOTAL FREE ENERGY PREDICTED BY IDOCK:   -8.74 KCAL/MOL
REMARK 923 INTER-LIGAND FREE ENERGY PREDICTED BY IDOCK:   -8.24 KCAL/MOL
REMARK 924 INTRA-LIGAND FREE ENERGY PREDICTED BY IDOCK:   -0.50 KCAL/MOL
REMARK 927      BINDING AFFINITY PREDICTED BY RF-SCORE:    0.00 PKD
ROOT
HETATM    1  C   UNL     1      -6.647  18.527  68.339  1.00  0.00    -0.235 C  
HETATM    2  C   UNL     1      -7.444  18.437  67.048  1.00  0.00    -0.227 C  
ENDROOT
BRANCH   2   3
HETATM    3  C   UNL     1      -8.309  17.214  66.810  1.00  0.00    -0.266 A  
HETATM    4  C   UNL     1      -9.687  17.437  66.523  1.00  0.00    -0.302 A  
HETATM    5  C   UNL     1     -10.433  16.423  65.921  1.00  0.00    -0.350 A  
HETATM    6  C   UNL     1      -7.867  15.884  66.959  1.00  0.00    -0.267 A  
HETATM    7  C   UNL     1      -8.772  14.866  66.676  1.00  0.00    -0.262 A  
HETATM    8  C   UNL     1      -9.926  15.141  65.939  1.00  0.00    -0.355 A  
HETATM    9  C   UNL     1     -10.768  13.912  65.816  1.00  0.00    -0.289 C  
HETATM   10  C   UNL     1     -10.599  13.480  67.282  1.00  0.00    -0.263 C  
HETATM   11  C   UNL     1      -9.007  13.524  67.396  1.00  0.00    -0.219 C  
BRANCH   4  12
HETATM   12  C   UNL     1     -10.377  18.668  67.090  1.00  0.00    -0.442 C  
HETATM   13  C   UNL     1     -10.634  19.820  66.118  1.00  0.00    -0.569 C  
ENDBRANCH   4  12
BRANCH  10  14
HETATM   14  N   UNL     1     -11.462  12.352  67.691  1.00  0.00    -0.315 NA 
HETATM   15  H   UNL     1     -11.102  11.454  67.369  1.00  0.00     0.000 HD 
BRANCH  14  16
HETATM   16  C   UNL     1     -11.656  12.386  69.190  1.00  0.00    -0.314 C  
BRANCH  16  17
HETATM   17  C   UNL     1     -12.124  11.063  69.856  1.00  0.00    -0.361 C  
HETATM   18  H   UNL     1     -13.053  10.591  71.505  1.00  0.00     0.000 HD 
HETATM   19  O   UNL     1     -12.766  11.401  71.098  1.00  0.00    -0.392 OA 
BRANCH  17  20
HETATM   20  C   UNL     1     -11.010  10.026  70.105  1.00  0.00    -0.368 A  
HETATM   21  C   UNL     1     -11.242   8.793  70.761  1.00  0.00    -0.309 A  
HETATM   22  C   UNL     1     -12.588   8.304  71.091  1.00  0.00    -0.152 C  
HETATM   23  C   UNL     1     -12.775   7.165  71.770  1.00  0.00    -0.374 C  
HETATM   24  C   UNL     1     -11.620   6.362  72.250  1.00  0.00    -0.299 C  
HETATM   25  N   UNL     1     -10.377   6.791  71.882  1.00  0.00    -0.197 N  
HETATM   26  O   UNL     1     -11.789   5.362  72.928  1.00  0.00    -0.263 OA 
HETATM   27  H   UNL     1      -9.571   6.235  72.169  1.00  0.00     0.000 HD 
HETATM   28  C   UNL     1     -10.145   7.961  71.129  1.00  0.00    -0.184 A  
HETATM   29  C   UNL     1      -8.838   8.319  70.787  1.00  0.00    -0.148 A  
HETATM   30  C   UNL     1      -8.605   9.492  70.086  1.00  0.00    -0.250 A  
HETATM   31  O   UNL     1      -7.744   7.557  71.094  1.00  0.00    -0.087 OA 
HETATM   32  C   UNL     1      -9.674  10.329  69.744  1.00  0.00    -0.183 A  
HETATM   33  H   UNL     1      -6.855   7.801  70.863  1.00  0.00     0.000 HD 
ENDBRANCH  17  20
ENDBRANCH  16  17
ENDBRANCH  14  16
ENDBRANCH  10  14
ENDBRANCH   2   3
TORSDOF 6
ENDMDL
MODEL      131
REMARK 921   NORMALIZED FREE ENERGY PREDICTED BY IDOCK:   -5.52 KCAL/MOL
REMARK 922        TOTAL FREE ENERGY PREDICTED BY IDOCK:   -8.73 KCAL/MOL
REMARK 923 INTER-LIGAND FREE ENERGY PREDICTED BY IDOCK:   -7.46 KCAL/MOL
REMARK 924 INTRA-LIGAND FREE ENERGY PREDICTED BY IDOCK:   -1.27 KCAL/MOL
REMARK 927      BINDING AFFINITY PREDICTED BY RF-SCORE:    0.00 PKD
ROOT
HETATM    1  C   UNL     1     -10.180   4.240  72.576  1.00  0.00    -0.238 C  
HETATM    2  C   UNL     1     -10.260   5.670  73.085  1.00  0.00    -0.212 C  
ENDROOT
BRANCH   2   3
HETATM    3  C   UNL     1      -9.721   6.786  72.210  1.00  0.00    -0.156 A  
HETATM    4  C   UNL     1     -10.426   8.025  72.226  1.00  0.00    -0.344 A  
HETATM    5  C   UNL     1      -9.787   9.180  71.774  1.00  0.00    -0.219 A  
HETATM    6  C   UNL     1      -8.646   6.643  71.309  1.00  0.00    -0.126 A  
HETATM    7  C   UNL     1      -8.247   7.769  70.595  1.00  0.00    -0.115 A  
HETATM    8  C   UNL     1      -8.646   9.040  71.013  1.00  0.00    -0.264 A  
HETATM    9  C   UNL     1      -8.149  10.079  70.060  1.00  0.00    -0.154 C  
HETATM   10  C   UNL     1      -8.509   9.287  68.791  1.00  0.00    -0.129 C  
HETATM   11  C   UNL     1      -7.795   7.898  69.128  1.00  0.00    -0.109 C  
BRANCH   4  12
HETATM   12  C   UNL     1     -11.920   8.029  72.504  1.00  0.00    -0.384 C  
HETATM   13  C   UNL     1     -12.835   7.613  71.352  1.00  0.00    -0.354 C  
ENDBRANCH   4  12
BRANCH  10  14
HETATM   14  N   UNL     1      -8.364  10.049  67.534  1.00  0.00    -0.118 NA 
HETATM   15  H   UNL     1      -8.402   9.447  66.711  1.00  0.00     0.000 HD 
BRANCH  14  16
HETATM   16  C   UNL     1      -9.405  11.144  67.488  1.00  0.00    -0.168 C  
BRANCH  16  17
HETATM   17  C   UNL     1     -10.847  10.745  67.908  1.00  0.00    -0.264 C  
HETATM   18  H   UNL     1     -12.526  10.417  66.972  1.00  0.00     0.000 HD 
HETATM   19  O   UNL     1     -11.644  10.661  66.715  1.00  0.00    -0.088 OA 
BRANCH  17  20
HETATM   20  C   UNL     1     -11.518  11.692  68.924  1.00  0.00    -0.349 A  
HETATM   21  C   UNL     1     -11.467  13.102  68.809  1.00  0.00    -0.348 A  
HETATM   22  C   UNL     1     -10.941  13.788  67.620  1.00  0.00    -0.278 C  
HETATM   23  C   UNL     1     -10.845  15.123  67.566  1.00  0.00    -0.301 C  
HETATM   24  C   UNL     1     -11.236  15.967  68.724  1.00  0.00    -0.360 C  
HETATM   25  N   UNL     1     -11.783  15.324  69.798  1.00  0.00    -0.300 N  
HETATM   26  O   UNL     1     -11.083  17.177  68.700  1.00  0.00    -0.241 OA 
HETATM   27  H   UNL     1     -12.093  15.886  70.590  1.00  0.00     0.000 HD 
HETATM   28  C   UNL     1     -11.942  13.924  69.872  1.00  0.00    -0.341 A  
HETATM   29  C   UNL     1     -12.523  13.350  71.006  1.00  0.00    -0.353 A  
HETATM   30  C   UNL     1     -12.638  11.973  71.101  1.00  0.00    -0.372 A  
HETATM   31  O   UNL     1     -13.013  14.083  72.053  1.00  0.00    -0.338 OA 
HETATM   32  C   UNL     1     -12.150  11.156  70.073  1.00  0.00    -0.437 A  
HETATM   33  H   UNL     1     -13.407  13.693  72.825  1.00  0.00     0.000 HD 
ENDBRANCH  17  20
ENDBRANCH  16  17
ENDBRANCH  14  16
ENDBRANCH  10  14
ENDBRANCH   2   3
TORSDOF 6
ENDMDL
MODEL      132
REMARK 921   NORMALIZED FREE ENERGY PREDICTED BY IDOCK:   -5.52 KCAL/MOL
REMARK 922        TOTAL FREE ENERGY PREDICTED BY IDOCK:   -8.73 KCAL/MOL
REMARK 923 INTER-LIGAND FREE ENERGY PREDICTED BY IDOCK:   -8.16 KCAL/MOL
REMARK 924 INTRA-LIGAND FREE ENERGY PREDICTED BY IDOCK:   -0.57 KCAL/MOL
REMARK 927      BINDING AFFINITY PREDICTED BY RF-SCORE:    0.00 PKD
ROOT
HETATM    1  C   UNL     1     -10.271  19.878  65.625  1.00  0.00    -0.384 C  
HETATM    2  C   UNL     1     -10.574  19.106  66.899  1.00  0.00    -0.540 C  
ENDROOT
BRANCH   2   3
HETATM    3  C   UNL     1     -10.714  17.598  66.822  1.00  0.00    -0.129 A  
HETATM    4  C   UNL     1     -10.642  16.873  68.046  1.00  0.00    -0.367 A  
HETATM    5  C   UNL     1     -11.143  15.571  68.101  1.00  0.00    -0.325 A  
HETATM    6  C   UNL     1     -10.802  16.866  65.619  1.00  0.00    -0.082 A  
HETATM    7  C   UNL     1     -10.957  15.487  65.711  1.00  0.00    -0.285 A  
HETATM    8  C   UNL     1     -11.368  14.908  66.914  1.00  0.00    -0.338 A  
HETATM    9  C   UNL     1     -11.404  13.419  66.787  1.00  0.00    -0.353 C  
HETATM   10  C   UNL     1     -10.068  13.312  66.033  1.00  0.00    -0.299 C  
HETATM   11  C   UNL     1     -10.333  14.364  64.861  1.00  0.00    -0.419 C  
BRANCH   4  12
HETATM   12  C   UNL     1      -9.814  17.429  69.194  1.00  0.00    -0.158 C  
HETATM   13  C   UNL     1      -8.296  17.290  69.076  1.00  0.00    -0.090 C  
ENDBRANCH   4  12
BRANCH  10  14
HETATM   14  N   UNL     1      -9.575  11.930  65.856  1.00  0.00    -0.234 NA 
HETATM   15  H   UNL     1      -8.571  11.898  65.682  1.00  0.00     0.000 HD 
BRANCH  14  16
HETATM   16  C   UNL     1      -9.975  11.098  67.053  1.00  0.00    -0.192 C  
BRANCH  16  17
HETATM   17  C   UNL     1      -9.395  11.538  68.425  1.00  0.00    -0.194 C  
HETATM   18  H   UNL     1      -7.686  12.241  69.049  1.00  0.00     0.000 HD 
HETATM   19  O   UNL     1      -8.041  11.972  68.210  1.00  0.00    -0.142 OA 
BRANCH  17  20
HETATM   20  C   UNL     1      -9.433  10.460  69.527  1.00  0.00    -0.164 A  
HETATM   21  C   UNL     1     -10.609  10.137  70.245  1.00  0.00    -0.324 A  
HETATM   22  C   UNL     1     -11.936  10.654  69.880  1.00  0.00    -0.385 C  
HETATM   23  C   UNL     1     -13.022  10.384  70.616  1.00  0.00    -0.357 C  
HETATM   24  C   UNL     1     -12.923   9.573  71.858  1.00  0.00    -0.425 C  
HETATM   25  N   UNL     1     -11.698   9.045  72.152  1.00  0.00    -0.341 N  
HETATM   26  O   UNL     1     -13.899   9.386  72.565  1.00  0.00    -0.444 OA 
HETATM   27  H   UNL     1     -11.615   8.454  72.979  1.00  0.00     0.000 HD 
HETATM   28  C   UNL     1     -10.543   9.270  71.375  1.00  0.00    -0.347 A  
HETATM   29  C   UNL     1      -9.331   8.679  71.744  1.00  0.00    -0.273 A  
HETATM   30  C   UNL     1      -8.185   8.937  71.010  1.00  0.00    -0.217 A  
HETATM   31  O   UNL     1      -9.203   7.826  72.807  1.00  0.00    -0.157 OA 
HETATM   32  C   UNL     1      -8.236   9.808  69.914  1.00  0.00    -0.196 A  
HETATM   33  H   UNL     1      -8.380   7.425  73.058  1.00  0.00     0.000 HD 
ENDBRANCH  17  20
ENDBRANCH  16  17
ENDBRANCH  14  16
ENDBRANCH  10  14
ENDBRANCH   2   3
TORSDOF 6
ENDMDL
MODEL      133
REMARK 921   NORMALIZED FREE ENERGY PREDICTED BY IDOCK:   -5.50 KCAL/MOL
REMARK 922        TOTAL FREE ENERGY PREDICTED BY IDOCK:   -8.70 KCAL/MOL
REMARK 923 INTER-LIGAND FREE ENERGY PREDICTED BY IDOCK:   -8.06 KCAL/MOL
REMARK 924 INTRA-LIGAND FREE ENERGY PREDICTED BY IDOCK:   -0.64 KCAL/MOL
REMARK 927      BINDING AFFINITY PREDICTED BY RF-SCORE:    0.00 PKD
ROOT
HETATM    1  C   UNL     1      -6.286   2.605  65.352  1.00  0.00    -0.023 C  
HETATM    2  C   UNL     1      -7.285   3.453  64.582  1.00  0.00    -0.066 C  
ENDROOT
BRANCH   2   3
HETATM    3  C   UNL     1      -8.244   4.335  65.360  1.00  0.00    -0.109 A  
HETATM    4  C   UNL     1      -9.620   4.282  64.993  1.00  0.00    -0.179 A  
HETATM    5  C   UNL     1     -10.585   4.744  65.890  1.00  0.00    -0.290 A  
HETATM    6  C   UNL     1      -7.851   5.272  66.337  1.00  0.00    -0.103 A  
HETATM    7  C   UNL     1      -8.851   5.988  66.986  1.00  0.00    -0.113 A  
HETATM    8  C   UNL     1     -10.174   5.544  66.935  1.00  0.00    -0.275 A  
HETATM    9  C   UNL     1     -11.071   6.503  67.650  1.00  0.00    -0.380 C  
HETATM   10  C   UNL     1     -10.419   7.766  67.065  1.00  0.00    -0.349 C  
HETATM   11  C   UNL     1      -8.889   7.468  67.413  1.00  0.00    -0.127 C  
BRANCH   4  12
HETATM   12  C   UNL     1      -9.997   3.955  63.557  1.00  0.00    -0.172 C  
HETATM   13  C   UNL     1     -11.005   2.824  63.352  1.00  0.00    -0.159 C  
ENDBRANCH   4  12
BRANCH  10  14
HETATM   14  N   UNL     1     -11.142   9.021  67.360  1.00  0.00    -0.343 NA 
HETATM   15  H   UNL     1     -11.454   9.067  68.329  1.00  0.00     0.000 HD 
BRANCH  14  16
HETATM   16  C   UNL     1     -10.275  10.200  66.982  1.00  0.00    -0.234 C  
BRANCH  16  17
HETATM   17  C   UNL     1     -10.664  11.570  67.602  1.00  0.00    -0.211 C  
HETATM   18  H   UNL     1     -12.059  12.201  68.811  1.00  0.00     0.000 HD 
HETATM   19  O   UNL     1     -11.820  11.363  68.432  1.00  0.00    -0.463 OA 
BRANCH  17  20
HETATM   20  C   UNL     1     -10.944  12.694  66.583  1.00  0.00    -0.292 A  
HETATM   21  C   UNL     1     -10.395  13.993  66.704  1.00  0.00    -0.278 A  
HETATM   22  C   UNL     1      -9.365  14.337  67.694  1.00  0.00    -0.201 C  
HETATM   23  C   UNL     1      -8.911  15.590  67.829  1.00  0.00    -0.173 C  
HETATM   24  C   UNL     1      -9.459  16.697  67.002  1.00  0.00    -0.230 C  
HETATM   25  N   UNL     1     -10.369  16.355  66.042  1.00  0.00    -0.342 N  
HETATM   26  O   UNL     1      -9.096  17.848  67.174  1.00  0.00    -0.243 OA 
HETATM   27  H   UNL     1     -10.731  17.092  65.438  1.00  0.00     0.000 HD 
HETATM   28  C   UNL     1     -10.835  15.039  65.840  1.00  0.00    -0.337 A  
HETATM   29  C   UNL     1     -11.760  14.778  64.826  1.00  0.00    -0.422 A  
HETATM   30  C   UNL     1     -12.254  13.495  64.656  1.00  0.00    -0.450 A  
HETATM   31  O   UNL     1     -12.210  15.732  63.954  1.00  0.00    -1.022 OA 
HETATM   32  C   UNL     1     -11.847  12.467  65.516  1.00  0.00    -0.469 A  
HETATM   33  H   UNL     1     -12.839  15.554  63.264  1.00  0.00     0.000 HD 
ENDBRANCH  17  20
ENDBRANCH  16  17
ENDBRANCH  14  16
ENDBRANCH  10  14
ENDBRANCH   2   3
TORSDOF 6
ENDMDL
MODEL      134
REMARK 921   NORMALIZED FREE ENERGY PREDICTED BY IDOCK:   -5.49 KCAL/MOL
REMARK 922        TOTAL FREE ENERGY PREDICTED BY IDOCK:   -8.70 KCAL/MOL
REMARK 923 INTER-LIGAND FREE ENERGY PREDICTED BY IDOCK:   -7.37 KCAL/MOL
REMARK 924 INTRA-LIGAND FREE ENERGY PREDICTED BY IDOCK:   -1.32 KCAL/MOL
REMARK 927      BINDING AFFINITY PREDICTED BY RF-SCORE:    0.00 PKD
ROOT
HETATM    1  C   UNL     1     -11.176   9.276  71.592  1.00  0.00    -0.449 C  
HETATM    2  C   UNL     1     -12.443  10.060  71.292  1.00  0.00    -0.494 C  
ENDROOT
BRANCH   2   3
HETATM    3  C   UNL     1     -12.316  11.452  70.705  1.00  0.00    -0.466 A  
HETATM    4  C   UNL     1     -11.876  11.552  69.353  1.00  0.00    -0.417 A  
HETATM    5  C   UNL     1     -12.109  12.731  68.643  1.00  0.00    -0.152 A  
HETATM    6  C   UNL     1     -12.499  12.645  71.435  1.00  0.00    -0.209 A  
HETATM    7  C   UNL     1     -12.377  13.849  70.748  1.00  0.00    -0.449 A  
HETATM    8  C   UNL     1     -12.434  13.867  69.353  1.00  0.00    -0.088 A  
HETATM    9  C   UNL     1     -12.220  15.256  68.843  1.00  0.00    -0.132 C  
HETATM   10  C   UNL     1     -11.058  15.577  69.799  1.00  0.00    -0.296 C  
HETATM   11  C   UNL     1     -11.734  15.177  71.190  1.00  0.00    -0.400 C  
BRANCH   4  12
HETATM   12  C   UNL     1     -10.958  10.480  68.787  1.00  0.00    -0.296 C  
HETATM   13  C   UNL     1      -9.464  10.805  68.749  1.00  0.00    -0.187 C  
ENDBRANCH   4  12
BRANCH  10  14
HETATM   14  N   UNL     1     -10.364  16.849  69.512  1.00  0.00    -0.241 NA 
HETATM   15  H   UNL     1      -9.366  16.798  69.713  1.00  0.00     0.000 HD 
BRANCH  14  16
HETATM   16  C   UNL     1     -10.638  17.259  68.083  1.00  0.00    -0.386 C  
BRANCH  16  17
HETATM   17  C   UNL     1      -9.547  16.896  67.039  1.00  0.00    -0.248 C  
HETATM   18  H   UNL     1      -8.970  17.623  65.323  1.00  0.00     0.000 HD 
HETATM   19  O   UNL     1      -9.637  17.845  65.962  1.00  0.00    -0.502 OA 
BRANCH  17  20
HETATM   20  C   UNL     1      -9.625  15.460  66.482  1.00  0.00    -0.298 A  
HETATM   21  C   UNL     1      -8.724  14.437  66.867  1.00  0.00    -0.218 A  
HETATM   22  C   UNL     1      -7.761  14.593  67.966  1.00  0.00    -0.136 C  
HETATM   23  C   UNL     1      -6.877  13.632  68.265  1.00  0.00    -0.108 C  
HETATM   24  C   UNL     1      -6.811  12.377  67.472  1.00  0.00    -0.143 C  
HETATM   25  N   UNL     1      -7.753  12.216  66.496  1.00  0.00    -0.379 N  
HETATM   26  O   UNL     1      -5.960  11.533  67.701  1.00  0.00    -0.049 OA 
HETATM   27  H   UNL     1      -7.750  11.347  65.963  1.00  0.00     0.000 HD 
HETATM   28  C   UNL     1      -8.728  13.186  66.183  1.00  0.00     0.494 A  
HETATM   29  C   UNL     1      -9.661  12.933  65.174  1.00  0.00     0.041 A  
HETATM   30  C   UNL     1     -10.590  13.903  64.834  1.00  0.00    -0.436 A  
HETATM   31  O   UNL     1      -9.729  11.749  64.492  1.00  0.00    -0.347 OA 
HETATM   32  C   UNL     1     -10.578  15.144  65.483  1.00  0.00    -0.383 A  
HETATM   33  H   UNL     1     -10.363  11.577  63.805  1.00  0.00     0.000 HD 
ENDBRANCH  17  20
ENDBRANCH  16  17
ENDBRANCH  14  16
ENDBRANCH  10  14
ENDBRANCH   2   3
TORSDOF 6
ENDMDL
MODEL      135
REMARK 921   NORMALIZED FREE ENERGY PREDICTED BY IDOCK:   -5.48 KCAL/MOL
REMARK 922        TOTAL FREE ENERGY PREDICTED BY IDOCK:   -8.68 KCAL/MOL
REMARK 923 INTER-LIGAND FREE ENERGY PREDICTED BY IDOCK:   -7.03 KCAL/MOL
REMARK 924 INTRA-LIGAND FREE ENERGY PREDICTED BY IDOCK:   -1.65 KCAL/MOL
REMARK 927      BINDING AFFINITY PREDICTED BY RF-SCORE:    0.00 PKD
ROOT
HETATM    1  C   UNL     1     -10.263   4.136  62.882  1.00  0.00    -0.095 C  
HETATM    2  C   UNL     1     -10.445   3.618  64.300  1.00  0.00    -0.224 C  
ENDROOT
BRANCH   2   3
HETATM    3  C   UNL     1      -9.854   4.415  65.448  1.00  0.00    -0.220 A  
HETATM    4  C   UNL     1      -8.442   4.350  65.628  1.00  0.00    -0.115 A  
HETATM    5  C   UNL     1      -7.803   5.333  66.385  1.00  0.00    -0.103 A  
HETATM    6  C   UNL     1     -10.615   5.121  66.402  1.00  0.00    -0.336 A  
HETATM    7  C   UNL     1      -9.927   5.831  67.382  1.00  0.00    -0.172 A  
HETATM    8  C   UNL     1      -8.573   6.124  67.211  1.00  0.00    -0.103 A  
HETATM    9  C   UNL     1      -8.041   6.835  68.414  1.00  0.00    -0.119 C  
HETATM   10  C   UNL     1      -8.745   5.926  69.435  1.00  0.00    -0.116 C  
HETATM   11  C   UNL     1     -10.240   6.001  68.880  1.00  0.00    -0.246 C  
BRANCH   4  12
HETATM   12  C   UNL     1      -7.694   3.096  65.205  1.00  0.00    -0.081 C  
HETATM   13  C   UNL     1      -7.216   2.170  66.323  1.00  0.00    -0.060 C  
ENDBRANCH   4  12
BRANCH  10  14
HETATM   14  N   UNL     1      -8.332   6.147  70.837  1.00  0.00    -0.125 NA 
HETATM   15  H   UNL     1      -7.854   5.338  71.231  1.00  0.00     0.000 HD 
BRANCH  14  16
HETATM   16  C   UNL     1      -7.494   7.402  70.921  1.00  0.00    -0.074 C  
BRANCH  16  17
HETATM   17  C   UNL     1      -8.147   8.622  71.629  1.00  0.00    -0.132 C  
HETATM   18  H   UNL     1      -8.191   9.306  73.455  1.00  0.00     0.000 HD 
HETATM   19  O   UNL     1      -7.792   8.561  73.022  1.00  0.00    -0.336 OA 
BRANCH  17  20
HETATM   20  C   UNL     1      -9.678   8.722  71.481  1.00  0.00    -0.361 A  
HETATM   21  C   UNL     1     -10.302   9.458  70.445  1.00  0.00    -0.318 A  
HETATM   22  C   UNL     1      -9.561  10.029  69.312  1.00  0.00    -0.227 C  
HETATM   23  C   UNL     1     -10.168  10.776  68.380  1.00  0.00    -0.192 C  
HETATM   24  C   UNL     1     -11.618  11.087  68.474  1.00  0.00    -0.310 C  
HETATM   25  N   UNL     1     -12.309  10.499  69.494  1.00  0.00    -0.549 N  
HETATM   26  O   UNL     1     -12.156  11.824  67.664  1.00  0.00    -0.598 OA 
HETATM   27  H   UNL     1     -13.313  10.668  69.557  1.00  0.00     0.000 HD 
HETATM   28  C   UNL     1     -11.712   9.670  70.467  1.00  0.00    -0.242 A  
HETATM   29  C   UNL     1     -12.499   9.099  71.471  1.00  0.00    -0.346 A  
HETATM   30  C   UNL     1     -11.907   8.322  72.454  1.00  0.00    -0.461 A  
HETATM   31  O   UNL     1     -13.857   9.249  71.540  1.00  0.00    -0.360 OA 
HETATM   32  C   UNL     1     -10.519   8.130  72.455  1.00  0.00    -0.409 A  
HETATM   33  H   UNL     1     -14.392   8.862  72.222  1.00  0.00     0.000 HD 
ENDBRANCH  17  20
ENDBRANCH  16  17
ENDBRANCH  14  16
ENDBRANCH  10  14
ENDBRANCH   2   3
TORSDOF 6
ENDMDL
MODEL      136
REMARK 921   NORMALIZED FREE ENERGY PREDICTED BY IDOCK:   -5.47 KCAL/MOL
REMARK 922        TOTAL FREE ENERGY PREDICTED BY IDOCK:   -8.67 KCAL/MOL
REMARK 923 INTER-LIGAND FREE ENERGY PREDICTED BY IDOCK:   -7.60 KCAL/MOL
REMARK 924 INTRA-LIGAND FREE ENERGY PREDICTED BY IDOCK:   -1.07 KCAL/MOL
REMARK 927      BINDING AFFINITY PREDICTED BY RF-SCORE:    0.00 PKD
ROOT
HETATM    1  C   UNL     1      -7.777   3.643  68.959  1.00  0.00    -0.052 C  
HETATM    2  C   UNL     1      -7.714   5.111  69.347  1.00  0.00    -0.076 C  
ENDROOT
BRANCH   2   3
HETATM    3  C   UNL     1      -8.971   5.782  69.865  1.00  0.00    -0.139 A  
HETATM    4  C   UNL     1      -9.976   6.112  68.909  1.00  0.00    -0.185 A  
HETATM    5  C   UNL     1     -11.279   6.358  69.344  1.00  0.00    -0.459 A  
HETATM    6  C   UNL     1      -9.162   6.195  71.200  1.00  0.00    -0.161 A  
HETATM    7  C   UNL     1     -10.384   6.771  71.531  1.00  0.00    -0.228 A  
HETATM    8  C   UNL     1     -11.483   6.616  70.682  1.00  0.00    -0.420 A  
HETATM    9  C   UNL     1     -12.659   7.372  71.214  1.00  0.00    -0.376 C  
HETATM   10  C   UNL     1     -11.858   8.629  71.591  1.00  0.00    -0.323 C  
HETATM   11  C   UNL     1     -10.696   7.960  72.459  1.00  0.00    -0.391 C  
BRANCH   4  12
HETATM   12  C   UNL     1      -9.568   6.426  67.478  1.00  0.00    -0.129 C  
HETATM   13  C   UNL     1     -10.028   5.443  66.402  1.00  0.00    -0.218 C  
ENDBRANCH   4  12
BRANCH  10  14
HETATM   14  N   UNL     1     -12.686   9.782  72.001  1.00  0.00    -0.389 NA 
HETATM   15  H   UNL     1     -12.255  10.319  72.752  1.00  0.00     0.000 HD 
BRANCH  14  16
HETATM   16  C   UNL     1     -12.993  10.634  70.791  1.00  0.00    -0.311 C  
BRANCH  16  17
HETATM   17  C   UNL     1     -11.920  11.688  70.399  1.00  0.00    -0.358 C  
HETATM   18  H   UNL     1     -11.900  13.621  70.143  1.00  0.00     0.000 HD 
HETATM   19  O   UNL     1     -12.557  12.977  70.383  1.00  0.00    -0.212 OA 
BRANCH  17  20
HETATM   20  C   UNL     1     -11.214  11.433  69.052  1.00  0.00    -0.319 A  
HETATM   21  C   UNL     1     -10.604  12.464  68.298  1.00  0.00    -0.236 A  
HETATM   22  C   UNL     1     -10.417  13.828  68.813  1.00  0.00    -0.224 C  
HETATM   23  C   UNL     1      -9.896  14.800  68.053  1.00  0.00    -0.218 C  
HETATM   24  C   UNL     1      -9.514  14.546  66.639  1.00  0.00    -0.283 C  
HETATM   25  N   UNL     1      -9.632  13.261  66.192  1.00  0.00    -0.415 N  
HETATM   26  O   UNL     1      -9.105  15.448  65.928  1.00  0.00    -0.311 OA 
HETATM   27  H   UNL     1      -9.341  13.056  65.236  1.00  0.00     0.000 HD 
HETATM   28  C   UNL     1     -10.133  12.202  66.977  1.00  0.00    -0.204 A  
HETATM   29  C   UNL     1     -10.208  10.914  66.441  1.00  0.00    -0.238 A  
HETATM   30  C   UNL     1     -10.743   9.882  67.195  1.00  0.00    -0.276 A  
HETATM   31  O   UNL     1      -9.759  10.593  65.189  1.00  0.00    -0.228 OA 
HETATM   32  C   UNL     1     -11.232  10.135  68.483  1.00  0.00    -0.226 A  
HETATM   33  H   UNL     1      -9.811   9.718  64.824  1.00  0.00     0.000 HD 
ENDBRANCH  17  20
ENDBRANCH  16  17
ENDBRANCH  14  16
ENDBRANCH  10  14
ENDBRANCH   2   3
TORSDOF 6
ENDMDL
MODEL      137
REMARK 921   NORMALIZED FREE ENERGY PREDICTED BY IDOCK:   -5.46 KCAL/MOL
REMARK 922        TOTAL FREE ENERGY PREDICTED BY IDOCK:   -8.66 KCAL/MOL
REMARK 923 INTER-LIGAND FREE ENERGY PREDICTED BY IDOCK:   -7.93 KCAL/MOL
REMARK 924 INTRA-LIGAND FREE ENERGY PREDICTED BY IDOCK:   -0.73 KCAL/MOL
REMARK 927      BINDING AFFINITY PREDICTED BY RF-SCORE:    0.00 PKD
ROOT
HETATM    1  C   UNL     1     -10.652  19.433  65.841  1.00  0.00    -0.551 C  
HETATM    2  C   UNL     1     -10.062  18.342  66.719  1.00  0.00    -0.391 C  
ENDROOT
BRANCH   2   3
HETATM    3  C   UNL     1     -10.527  16.913  66.517  1.00  0.00    -0.253 A  
HETATM    4  C   UNL     1     -10.910  16.181  67.679  1.00  0.00    -0.297 A  
HETATM    5  C   UNL     1     -11.699  15.038  67.539  1.00  0.00    -0.270 A  
HETATM    6  C   UNL     1     -10.503  16.234  65.282  1.00  0.00    -0.324 A  
HETATM    7  C   UNL     1     -10.992  14.932  65.249  1.00  0.00    -0.389 A  
HETATM    8  C   UNL     1     -11.792  14.459  66.292  1.00  0.00    -0.391 A  
HETATM    9  C   UNL     1     -12.143  13.023  66.065  1.00  0.00    -0.493 C  
HETATM   10  C   UNL     1     -10.732  12.604  65.621  1.00  0.00    -0.269 C  
HETATM   11  C   UNL     1     -10.468  13.699  64.489  1.00  0.00    -0.411 C  
BRANCH   4  12
HETATM   12  C   UNL     1     -10.262  16.511  69.014  1.00  0.00    -0.285 C  
HETATM   13  C   UNL     1      -8.792  16.127  69.179  1.00  0.00    -0.239 C  
ENDBRANCH   4  12
BRANCH  10  14
HETATM   14  N   UNL     1     -10.547  11.146  65.470  1.00  0.00    -0.251 NA 
HETATM   15  H   UNL     1      -9.652  10.912  65.041  1.00  0.00     0.000 HD 
BRANCH  14  16
HETATM   16  C   UNL     1     -10.730  10.476  66.813  1.00  0.00    -0.188 C  
BRANCH  16  17
HETATM   17  C   UNL     1      -9.524   9.652  67.343  1.00  0.00    -0.142 C  
HETATM   18  H   UNL     1      -7.662   9.415  66.811  1.00  0.00     0.000 HD 
HETATM   19  O   UNL     1      -8.400   9.919  66.487  1.00  0.00    -0.123 OA 
BRANCH  17  20
HETATM   20  C   UNL     1      -9.762   8.131  67.438  1.00  0.00    -0.221 A  
HETATM   21  C   UNL     1     -10.263   7.504  68.604  1.00  0.00    -0.210 A  
HETATM   22  C   UNL     1     -10.782   8.255  69.756  1.00  0.00    -0.221 C  
HETATM   23  C   UNL     1     -11.189   7.637  70.872  1.00  0.00    -0.282 C  
HETATM   24  C   UNL     1     -11.102   6.159  71.004  1.00  0.00    -0.297 C  
HETATM   25  N   UNL     1     -10.679   5.467  69.905  1.00  0.00    -0.323 N  
HETATM   26  O   UNL     1     -11.407   5.603  72.046  1.00  0.00    -0.250 OA 
HETATM   27  H   UNL     1     -10.646   4.449  69.961  1.00  0.00     0.000 HD 
HETATM   28  C   UNL     1     -10.286   6.081  68.698  1.00  0.00    -0.188 A  
HETATM   29  C   UNL     1      -9.877   5.294  67.619  1.00  0.00    -0.155 A  
HETATM   30  C   UNL     1      -9.447   5.896  66.448  1.00  0.00    -0.174 A  
HETATM   31  O   UNL     1      -9.891   3.925  67.638  1.00  0.00    -0.143 OA 
HETATM   32  C   UNL     1      -9.396   7.293  66.355  1.00  0.00    -0.199 A  
HETATM   33  H   UNL     1      -9.612   3.389  66.905  1.00  0.00     0.000 HD 
ENDBRANCH  17  20
ENDBRANCH  16  17
ENDBRANCH  14  16
ENDBRANCH  10  14
ENDBRANCH   2   3
TORSDOF 6
ENDMDL
MODEL      138
REMARK 921   NORMALIZED FREE ENERGY PREDICTED BY IDOCK:   -5.46 KCAL/MOL
REMARK 922        TOTAL FREE ENERGY PREDICTED BY IDOCK:   -8.65 KCAL/MOL
REMARK 923 INTER-LIGAND FREE ENERGY PREDICTED BY IDOCK:   -6.68 KCAL/MOL
REMARK 924 INTRA-LIGAND FREE ENERGY PREDICTED BY IDOCK:   -1.97 KCAL/MOL
REMARK 927      BINDING AFFINITY PREDICTED BY RF-SCORE:    0.00 PKD
ROOT
HETATM    1  C   UNL     1     -12.348   7.644  72.314  1.00  0.00    -0.227 C  
HETATM    2  C   UNL     1     -11.286   6.567  72.162  1.00  0.00    -0.321 C  
ENDROOT
BRANCH   2   3
HETATM    3  C   UNL     1     -10.804   6.211  70.769  1.00  0.00    -0.350 A  
HETATM    4  C   UNL     1      -9.482   5.690  70.650  1.00  0.00    -0.203 A  
HETATM    5  C   UNL     1      -9.124   4.991  69.496  1.00  0.00    -0.150 A  
HETATM    6  C   UNL     1     -11.529   6.462  69.586  1.00  0.00    -0.446 A  
HETATM    7  C   UNL     1     -10.966   6.050  68.382  1.00  0.00    -0.340 A  
HETATM    8  C   UNL     1      -9.922   5.122  68.380  1.00  0.00    -0.214 A  
HETATM    9  C   UNL     1      -9.444   4.884  66.983  1.00  0.00    -0.158 C  
HETATM   10  C   UNL     1      -9.463   6.366  66.574  1.00  0.00    -0.156 C  
HETATM   11  C   UNL     1     -10.952   6.748  67.009  1.00  0.00    -0.439 C  
BRANCH   4  12
HETATM   12  C   UNL     1      -8.424   6.105  71.660  1.00  0.00    -0.130 C  
HETATM   13  C   UNL     1      -7.559   4.989  72.246  1.00  0.00    -0.094 C  
ENDBRANCH   4  12
BRANCH  10  14
HETATM   14  N   UNL     1      -8.850   6.646  65.259  1.00  0.00    -0.364 NA 
HETATM   15  H   UNL     1      -9.474   7.169  64.646  1.00  0.00     0.000 HD 
BRANCH  14  16
HETATM   16  C   UNL     1      -7.527   7.347  65.463  1.00  0.00    -0.088 C  
BRANCH  16  17
HETATM   17  C   UNL     1      -7.486   8.860  65.110  1.00  0.00    -0.097 C  
HETATM   18  H   UNL     1      -6.170  10.290  65.278  1.00  0.00     0.000 HD 
HETATM   19  O   UNL     1      -6.195   9.365  65.494  1.00  0.00    -0.062 OA 
BRANCH  17  20
HETATM   20  C   UNL     1      -8.597   9.712  65.755  1.00  0.00    -0.149 A  
HETATM   21  C   UNL     1      -8.840   9.729  67.149  1.00  0.00    -0.141 A  
HETATM   22  C   UNL     1      -7.942   9.094  68.125  1.00  0.00    -0.100 C  
HETATM   23  C   UNL     1      -8.231   9.070  69.432  1.00  0.00    -0.117 C  
HETATM   24  C   UNL     1      -9.494   9.658  69.949  1.00  0.00    -0.231 C  
HETATM   25  N   UNL     1     -10.289  10.301  69.044  1.00  0.00    -0.198 N  
HETATM   26  O   UNL     1      -9.789   9.574  71.130  1.00  0.00    -0.251 OA 
HETATM   27  H   UNL     1     -11.142  10.745  69.382  1.00  0.00     0.000 HD 
HETATM   28  C   UNL     1      -9.994  10.387  67.667  1.00  0.00    -0.174 A  
HETATM   29  C   UNL     1     -10.859  11.076  66.813  1.00  0.00    -0.251 A  
HETATM   30  C   UNL     1     -10.596  11.122  65.453  1.00  0.00    -0.291 A  
HETATM   31  O   UNL     1     -11.974  11.741  67.247  1.00  0.00    -0.618 OA 
HETATM   32  C   UNL     1      -9.479  10.457  64.932  1.00  0.00    -0.320 A  
HETATM   33  H   UNL     1     -12.562  12.209  66.667  1.00  0.00     0.000 HD 
ENDBRANCH  17  20
ENDBRANCH  16  17
ENDBRANCH  14  16
ENDBRANCH  10  14
ENDBRANCH   2   3
TORSDOF 6
ENDMDL
MODEL      139
REMARK 921   NORMALIZED FREE ENERGY PREDICTED BY IDOCK:   -5.46 KCAL/MOL
REMARK 922        TOTAL FREE ENERGY PREDICTED BY IDOCK:   -8.65 KCAL/MOL
REMARK 923 INTER-LIGAND FREE ENERGY PREDICTED BY IDOCK:   -7.91 KCAL/MOL
REMARK 924 INTRA-LIGAND FREE ENERGY PREDICTED BY IDOCK:   -0.74 KCAL/MOL
REMARK 927      BINDING AFFINITY PREDICTED BY RF-SCORE:    0.00 PKD
ROOT
HETATM    1  C   UNL     1     -11.064   4.227  73.603  1.00  0.00    -0.351 C  
HETATM    2  C   UNL     1     -10.653   4.213  72.140  1.00  0.00    -0.026 C  
ENDROOT
BRANCH   2   3
HETATM    3  C   UNL     1     -10.674   5.516  71.364  1.00  0.00    -0.290 A  
HETATM    4  C   UNL     1     -10.179   5.487  70.028  1.00  0.00    -0.337 A  
HETATM    5  C   UNL     1     -10.523   6.516  69.149  1.00  0.00    -0.260 A  
HETATM    6  C   UNL     1     -11.047   6.762  71.909  1.00  0.00    -0.279 A  
HETATM    7  C   UNL     1     -11.045   7.865  71.062  1.00  0.00    -0.268 A  
HETATM    8  C   UNL     1     -11.029   7.684  69.677  1.00  0.00    -0.145 A  
HETATM    9  C   UNL     1     -10.967   9.006  68.982  1.00  0.00    -0.001 C  
HETATM   10  C   UNL     1      -9.910   9.609  69.922  1.00  0.00    -0.239 C  
HETATM   11  C   UNL     1     -10.602   9.316  71.331  1.00  0.00    -0.417 C  
BRANCH   4  12
HETATM   12  C   UNL     1      -9.101   4.482  69.654  1.00  0.00    -0.166 C  
HETATM   13  C   UNL     1      -7.669   5.009  69.569  1.00  0.00    -0.067 C  
ENDBRANCH   4  12
BRANCH  10  14
HETATM   14  N   UNL     1      -9.370  10.911  69.480  1.00  0.00    -0.396 NA 
HETATM   15  H   UNL     1      -8.352  10.909  69.426  1.00  0.00     0.000 HD 
BRANCH  14  16
HETATM   16  C   UNL     1     -10.012  11.301  68.169  1.00  0.00    -0.181 C  
BRANCH  16  17
HETATM   17  C   UNL     1      -9.051  11.784  67.047  1.00  0.00    -0.187 C  
HETATM   18  H   UNL     1      -7.154  11.562  66.652  1.00  0.00     0.000 HD 
HETATM   19  O   UNL     1      -7.742  11.266  67.338  1.00  0.00    -0.116 OA 
BRANCH  17  20
HETATM   20  C   UNL     1      -8.982  13.313  66.859  1.00  0.00    -0.212 A  
HETATM   21  C   UNL     1      -9.962  14.044  66.146  1.00  0.00    -0.325 A  
HETATM   22  C   UNL     1     -11.226  13.450  65.688  1.00  0.00    -0.307 C  
HETATM   23  C   UNL     1     -12.107  14.148  64.959  1.00  0.00    -0.428 C  
HETATM   24  C   UNL     1     -11.824  15.550  64.553  1.00  0.00    -0.216 C  
HETATM   25  N   UNL     1     -10.678  16.112  65.037  1.00  0.00    -0.399 N  
HETATM   26  O   UNL     1     -12.594  16.162  63.830  1.00  0.00    -0.703 OA 
HETATM   27  H   UNL     1     -10.482  17.085  64.802  1.00  0.00     0.000 HD 
HETATM   28  C   UNL     1      -9.750  15.422  65.845  1.00  0.00    -0.357 A  
HETATM   29  C   UNL     1      -8.607  16.080  66.308  1.00  0.00    -0.328 A  
HETATM   30  C   UNL     1      -7.672  15.391  67.063  1.00  0.00    -0.220 A  
HETATM   31  O   UNL     1      -8.352  17.403  66.069  1.00  0.00    -0.498 OA 
HETATM   32  C   UNL     1      -7.859  14.031  67.341  1.00  0.00    -0.188 A  
HETATM   33  H   UNL     1      -7.575  17.850  66.382  1.00  0.00     0.000 HD 
ENDBRANCH  17  20
ENDBRANCH  16  17
ENDBRANCH  14  16
ENDBRANCH  10  14
ENDBRANCH   2   3
TORSDOF 6
ENDMDL
MODEL      140
REMARK 921   NORMALIZED FREE ENERGY PREDICTED BY IDOCK:   -5.44 KCAL/MOL
REMARK 922        TOTAL FREE ENERGY PREDICTED BY IDOCK:   -8.62 KCAL/MOL
REMARK 923 INTER-LIGAND FREE ENERGY PREDICTED BY IDOCK:   -8.30 KCAL/MOL
REMARK 924 INTRA-LIGAND FREE ENERGY PREDICTED BY IDOCK:   -0.31 KCAL/MOL
REMARK 927      BINDING AFFINITY PREDICTED BY RF-SCORE:    0.00 PKD
ROOT
HETATM    1  C   UNL     1     -10.504   2.186  74.534  1.00  0.00    -0.183 C  
HETATM    2  C   UNL     1      -9.683   3.441  74.285  1.00  0.00    -0.145 C  
ENDROOT
BRANCH   2   3
HETATM    3  C   UNL     1     -10.090   4.365  73.153  1.00  0.00    -0.202 A  
HETATM    4  C   UNL     1      -9.233   4.418  72.016  1.00  0.00    -0.169 A  
HETATM    5  C   UNL     1      -9.727   4.922  70.811  1.00  0.00    -0.268 A  
HETATM    6  C   UNL     1     -11.191   5.245  73.200  1.00  0.00    -0.382 A  
HETATM    7  C   UNL     1     -11.455   6.010  72.068  1.00  0.00    -0.343 A  
HETATM    8  C   UNL     1     -10.890   5.661  70.840  1.00  0.00    -0.294 A  
HETATM    9  C   UNL     1     -11.267   6.660  69.793  1.00  0.00    -0.413 C  
HETATM   10  C   UNL     1     -11.034   7.891  70.686  1.00  0.00    -0.245 C  
HETATM   11  C   UNL     1     -11.913   7.477  71.953  1.00  0.00    -0.335 C  
BRANCH   4  12
HETATM   12  C   UNL     1      -7.746   4.158  72.190  1.00  0.00    -0.080 C  
HETATM   13  C   UNL     1      -6.906   4.088  70.915  1.00  0.00    -0.032 C  
ENDBRANCH   4  12
BRANCH  10  14
HETATM   14  N   UNL     1     -11.103   9.184  69.974  1.00  0.00    -0.321 NA 
HETATM   15  H   UNL     1     -11.815   9.186  69.245  1.00  0.00     0.000 HD 
BRANCH  14  16
HETATM   16  C   UNL     1     -11.307  10.297  70.975  1.00  0.00    -0.226 C  
BRANCH  16  17
HETATM   17  C   UNL     1     -12.745  10.875  71.082  1.00  0.00    -0.429 C  
HETATM   18  H   UNL     1     -14.347  10.828  69.970  1.00  0.00     0.000 HD 
HETATM   19  O   UNL     1     -13.467  10.474  69.905  1.00  0.00     0.142 OA 
BRANCH  17  20
HETATM   20  C   UNL     1     -12.824  12.406  71.251  1.00  0.00    -0.337 A  
HETATM   21  C   UNL     1     -12.272  13.312  70.313  1.00  0.00    -0.391 A  
HETATM   22  C   UNL     1     -11.749  12.889  69.006  1.00  0.00    -0.375 C  
HETATM   23  C   UNL     1     -11.174  13.758  68.165  1.00  0.00    -0.298 C  
HETATM   24  C   UNL     1     -11.010  15.188  68.536  1.00  0.00    -0.262 C  
HETATM   25  N   UNL     1     -11.557  15.582  69.723  1.00  0.00    -0.308 N  
HETATM   26  O   UNL     1     -10.424  15.964  67.800  1.00  0.00    -0.272 OA 
HETATM   27  H   UNL     1     -11.490  16.567  69.981  1.00  0.00     0.000 HD 
HETATM   28  C   UNL     1     -12.211  14.704  70.613  1.00  0.00    -0.325 A  
HETATM   29  C   UNL     1     -12.752  15.197  71.803  1.00  0.00    -0.349 A  
HETATM   30  C   UNL     1     -13.353  14.328  72.700  1.00  0.00    -0.619 A  
HETATM   31  O   UNL     1     -12.741  16.522  72.143  1.00  0.00    -0.318 OA 
HETATM   32  C   UNL     1     -13.395  12.955  72.425  1.00  0.00    -0.526 A  
HETATM   33  H   UNL     1     -13.108  16.857  72.952  1.00  0.00     0.000 HD 
ENDBRANCH  17  20
ENDBRANCH  16  17
ENDBRANCH  14  16
ENDBRANCH  10  14
ENDBRANCH   2   3
TORSDOF 6
ENDMDL
MODEL      141
REMARK 921   NORMALIZED FREE ENERGY PREDICTED BY IDOCK:   -5.41 KCAL/MOL
REMARK 922        TOTAL FREE ENERGY PREDICTED BY IDOCK:   -8.58 KCAL/MOL
REMARK 923 INTER-LIGAND FREE ENERGY PREDICTED BY IDOCK:   -7.38 KCAL/MOL
REMARK 924 INTRA-LIGAND FREE ENERGY PREDICTED BY IDOCK:   -1.20 KCAL/MOL
REMARK 927      BINDING AFFINITY PREDICTED BY RF-SCORE:    0.00 PKD
ROOT
HETATM    1  C   UNL     1      -8.341   8.508  71.431  1.00  0.00    -0.204 C  
HETATM    2  C   UNL     1      -7.747   9.621  70.585  1.00  0.00    -0.099 C  
ENDROOT
BRANCH   2   3
HETATM    3  C   UNL     1      -8.238   9.794  69.160  1.00  0.00    -0.130 A  
HETATM    4  C   UNL     1      -7.343  10.401  68.231  1.00  0.00    -0.088 A  
HETATM    5  C   UNL     1      -7.563  10.237  66.863  1.00  0.00    -0.105 A  
HETATM    6  C   UNL     1      -9.546   9.495  68.726  1.00  0.00    -0.159 A  
HETATM    7  C   UNL     1      -9.838   9.679  67.378  1.00  0.00    -0.218 A  
HETATM    8  C   UNL     1      -8.803   9.801  66.448  1.00  0.00    -0.163 A  
HETATM    9  C   UNL     1      -9.359  10.051  65.083  1.00  0.00    -0.302 C  
HETATM   10  C   UNL     1     -10.411  11.073  65.547  1.00  0.00    -0.260 C  
HETATM   11  C   UNL     1     -11.111  10.233  66.711  1.00  0.00     0.029 C  
BRANCH   4  12
HETATM   12  C   UNL     1      -6.318  11.406  68.732  1.00  0.00    -0.053 C  
HETATM   13  C   UNL     1      -6.816  12.830  68.983  1.00  0.00    -0.081 C  
ENDBRANCH   4  12
BRANCH  10  14
HETATM   14  N   UNL     1     -11.108  11.773  64.448  1.00  0.00    -0.330 NA 
HETATM   15  H   UNL     1     -11.577  11.127  63.814  1.00  0.00     0.000 HD 
BRANCH  14  16
HETATM   16  C   UNL     1     -12.060  12.795  65.029  1.00  0.00    -0.441 C  
BRANCH  16  17
HETATM   17  C   UNL     1     -11.468  14.201  65.320  1.00  0.00    -0.330 C  
HETATM   18  H   UNL     1      -9.802  15.123  64.896  1.00  0.00     0.000 HD 
HETATM   19  O   UNL     1     -10.164  14.262  64.718  1.00  0.00    -0.412 OA 
BRANCH  17  20
HETATM   20  C   UNL     1     -11.376  14.576  66.813  1.00  0.00    -0.358 A  
HETATM   21  C   UNL     1     -10.883  15.825  67.262  1.00  0.00    -0.298 A  
HETATM   22  C   UNL     1     -10.598  16.944  66.355  1.00  0.00    -0.183 C  
HETATM   23  C   UNL     1     -10.070  18.092  66.800  1.00  0.00    -0.367 C  
HETATM   24  C   UNL     1      -9.720  18.269  68.233  1.00  0.00    -0.335 C  
HETATM   25  N   UNL     1     -10.048  17.247  69.078  1.00  0.00    -0.317 N  
HETATM   26  O   UNL     1      -9.175  19.288  68.626  1.00  0.00    -0.360 OA 
HETATM   27  H   UNL     1      -9.851  17.361  70.072  1.00  0.00     0.000 HD 
HETATM   28  C   UNL     1     -10.646  16.043  68.652  1.00  0.00    -0.266 A  
HETATM   29  C   UNL     1     -10.960  15.053  69.587  1.00  0.00    -0.279 A  
HETATM   30  C   UNL     1     -11.504  13.851  69.165  1.00  0.00    -0.345 A  
HETATM   31  O   UNL     1     -10.773  15.206  70.935  1.00  0.00    -0.530 OA 
HETATM   32  C   UNL     1     -11.716  13.618  67.800  1.00  0.00    -0.397 A  
HETATM   33  H   UNL     1     -10.985  14.533  71.571  1.00  0.00     0.000 HD 
ENDBRANCH  17  20
ENDBRANCH  16  17
ENDBRANCH  14  16
ENDBRANCH  10  14
ENDBRANCH   2   3
TORSDOF 6
ENDMDL
MODEL      142
REMARK 921   NORMALIZED FREE ENERGY PREDICTED BY IDOCK:   -5.39 KCAL/MOL
REMARK 922        TOTAL FREE ENERGY PREDICTED BY IDOCK:   -8.56 KCAL/MOL
REMARK 923 INTER-LIGAND FREE ENERGY PREDICTED BY IDOCK:   -7.97 KCAL/MOL
REMARK 924 INTRA-LIGAND FREE ENERGY PREDICTED BY IDOCK:   -0.58 KCAL/MOL
REMARK 927      BINDING AFFINITY PREDICTED BY RF-SCORE:    0.00 PKD
ROOT
HETATM    1  C   UNL     1     -10.477  14.589  68.873  1.00  0.00    -0.246 C  
HETATM    2  C   UNL     1     -11.715  14.545  69.754  1.00  0.00    -0.356 C  
ENDROOT
BRANCH   2   3
HETATM    3  C   UNL     1     -12.142  13.215  70.345  1.00  0.00    -0.392 A  
HETATM    4  C   UNL     1     -12.850  13.248  71.581  1.00  0.00    -0.397 A  
HETATM    5  C   UNL     1     -13.597  12.135  71.971  1.00  0.00    -0.263 A  
HETATM    6  C   UNL     1     -11.792  11.957  69.812  1.00  0.00    -0.411 A  
HETATM    7  C   UNL     1     -12.285  10.824  70.450  1.00  0.00    -0.437 A  
HETATM    8  C   UNL     1     -13.355  10.933  71.341  1.00  0.00    -0.216 A  
HETATM    9  C   UNL     1     -13.665   9.600  71.944  1.00  0.00    -0.376 C  
HETATM   10  C   UNL     1     -12.197   9.214  72.190  1.00  0.00    -0.338 C  
HETATM   11  C   UNL     1     -11.601   9.472  70.731  1.00  0.00    -0.378 C  
BRANCH   4  12
HETATM   12  C   UNL     1     -12.591  14.383  72.559  1.00  0.00    -0.356 C  
HETATM   13  C   UNL     1     -13.669  15.461  72.661  1.00  0.00    -0.640 C  
ENDBRANCH   4  12
BRANCH  10  14
HETATM   14  N   UNL     1     -12.014   7.986  72.991  1.00  0.00    -0.633 NA 
HETATM   15  H   UNL     1     -12.477   8.044  73.898  1.00  0.00     0.000 HD 
BRANCH  14  16
HETATM   16  C   UNL     1     -12.474   6.790  72.190  1.00  0.00    -0.159 C  
BRANCH  16  17
HETATM   17  C   UNL     1     -11.424   5.670  71.957  1.00  0.00    -0.133 C  
HETATM   18  H   UNL     1     -10.267   4.591  73.098  1.00  0.00     0.000 HD 
HETATM   19  O   UNL     1     -10.909   5.277  73.241  1.00  0.00    -0.247 OA 
BRANCH  17  20
HETATM   20  C   UNL     1     -10.260   6.048  71.018  1.00  0.00    -0.253 A  
HETATM   21  C   UNL     1      -9.175   6.858  71.429  1.00  0.00    -0.156 A  
HETATM   22  C   UNL     1      -8.955   7.251  72.828  1.00  0.00    -0.166 C  
HETATM   23  C   UNL     1      -7.956   8.071  73.179  1.00  0.00    -0.218 C  
HETATM   24  C   UNL     1      -7.044   8.648  72.157  1.00  0.00    -0.034 C  
HETATM   25  N   UNL     1      -7.217   8.226  70.870  1.00  0.00    -0.054 N  
HETATM   26  O   UNL     1      -6.179   9.450  72.469  1.00  0.00    -0.302 OA 
HETATM   27  H   UNL     1      -6.579   8.580  70.157  1.00  0.00     0.000 HD 
HETATM   28  C   UNL     1      -8.229   7.328  70.471  1.00  0.00    -0.124 A  
HETATM   29  C   UNL     1      -8.326   6.940  69.132  1.00  0.00    -0.125 A  
HETATM   30  C   UNL     1      -9.347   6.095  68.729  1.00  0.00    -0.123 A  
HETATM   31  O   UNL     1      -7.442   7.342  68.167  1.00  0.00    -0.097 OA 
HETATM   32  C   UNL     1     -10.295   5.649  69.659  1.00  0.00    -0.346 A  
HETATM   33  H   UNL     1      -7.508   7.079  67.256  1.00  0.00     0.000 HD 
ENDBRANCH  17  20
ENDBRANCH  16  17
ENDBRANCH  14  16
ENDBRANCH  10  14
ENDBRANCH   2   3
TORSDOF 6
ENDMDL
MODEL      143
REMARK 921   NORMALIZED FREE ENERGY PREDICTED BY IDOCK:   -5.35 KCAL/MOL
REMARK 922        TOTAL FREE ENERGY PREDICTED BY IDOCK:   -8.51 KCAL/MOL
REMARK 923 INTER-LIGAND FREE ENERGY PREDICTED BY IDOCK:   -7.52 KCAL/MOL
REMARK 924 INTRA-LIGAND FREE ENERGY PREDICTED BY IDOCK:   -0.99 KCAL/MOL
REMARK 927      BINDING AFFINITY PREDICTED BY RF-SCORE:    0.00 PKD
ROOT
HETATM    1  C   UNL     1      -8.386   3.371  64.537  1.00  0.00    -0.093 C  
HETATM    2  C   UNL     1      -7.753   4.247  65.606  1.00  0.00    -0.090 C  
ENDROOT
BRANCH   2   3
HETATM    3  C   UNL     1      -8.460   5.527  66.010  1.00  0.00    -0.126 A  
HETATM    4  C   UNL     1      -7.865   6.757  65.605  1.00  0.00    -0.105 A  
HETATM    5  C   UNL     1      -8.637   7.920  65.595  1.00  0.00    -0.159 A  
HETATM    6  C   UNL     1      -9.596   5.581  66.845  1.00  0.00    -0.149 A  
HETATM    7  C   UNL     1     -10.150   6.830  67.103  1.00  0.00    -0.249 A  
HETATM    8  C   UNL     1      -9.824   7.920  66.293  1.00  0.00    -0.139 A  
HETATM    9  C   UNL     1     -10.491   9.159  66.801  1.00  0.00    -0.266 C  
HETATM   10  C   UNL     1     -10.180   8.888  68.282  1.00  0.00    -0.201 C  
HETATM   11  C   UNL     1     -10.741   7.397  68.408  1.00  0.00    -0.142 C  
BRANCH   4  12
HETATM   12  C   UNL     1      -6.357   6.831  65.425  1.00  0.00    -0.042 C  
HETATM   13  C   UNL     1      -5.527   7.102  66.680  1.00  0.00    -0.023 C  
ENDBRANCH   4  12
BRANCH  10  14
HETATM   14  N   UNL     1     -10.500  10.009  69.190  1.00  0.00    -0.206 NA 
HETATM   15  H   UNL     1      -9.665  10.502  69.504  1.00  0.00     0.000 HD 
BRANCH  14  16
HETATM   16  C   UNL     1     -11.489  10.933  68.516  1.00  0.00    -0.310 C  
BRANCH  16  17
HETATM   17  C   UNL     1     -11.134  12.445  68.519  1.00  0.00    -0.258 C  
HETATM   18  H   UNL     1     -11.739  14.011  69.512  1.00  0.00     0.000 HD 
HETATM   19  O   UNL     1     -11.956  13.086  69.510  1.00  0.00    -0.309 OA 
BRANCH  17  20
HETATM   20  C   UNL     1     -11.295  13.158  67.161  1.00  0.00    -0.354 A  
HETATM   21  C   UNL     1     -10.635  14.371  66.848  1.00  0.00    -0.278 A  
HETATM   22  C   UNL     1      -9.595  14.959  67.703  1.00  0.00    -0.200 C  
HETATM   23  C   UNL     1      -9.034  16.141  67.415  1.00  0.00    -0.201 C  
HETATM   24  C   UNL     1      -9.468  16.925  66.230  1.00  0.00    -0.271 C  
HETATM   25  N   UNL     1     -10.388  16.341  65.408  1.00  0.00    -0.339 N  
HETATM   26  O   UNL     1      -9.007  18.033  66.007  1.00  0.00    -0.502 OA 
HETATM   27  H   UNL     1     -10.673  16.845  64.568  1.00  0.00     0.000 HD 
HETATM   28  C   UNL     1     -10.966  15.078  65.655  1.00  0.00    -0.354 A  
HETATM   29  C   UNL     1     -11.893  14.550  64.753  1.00  0.00    -0.441 A  
HETATM   30  C   UNL     1     -12.497  13.331  65.017  1.00  0.00    -0.498 A  
HETATM   31  O   UNL     1     -12.242  15.169  63.583  1.00  0.00    -0.937 OA 
HETATM   32  C   UNL     1     -12.198  12.642  66.199  1.00  0.00    -0.279 A  
HETATM   33  H   UNL     1     -12.873  14.811  62.970  1.00  0.00     0.000 HD 
ENDBRANCH  17  20
ENDBRANCH  16  17
ENDBRANCH  14  16
ENDBRANCH  10  14
ENDBRANCH   2   3
TORSDOF 6
ENDMDL
MODEL      144
REMARK 921   NORMALIZED FREE ENERGY PREDICTED BY IDOCK:   -5.35 KCAL/MOL
REMARK 922        TOTAL FREE ENERGY PREDICTED BY IDOCK:   -8.50 KCAL/MOL
REMARK 923 INTER-LIGAND FREE ENERGY PREDICTED BY IDOCK:   -8.41 KCAL/MOL
REMARK 924 INTRA-LIGAND FREE ENERGY PREDICTED BY IDOCK:   -0.09 KCAL/MOL
REMARK 927      BINDING AFFINITY PREDICTED BY RF-SCORE:    0.00 PKD
ROOT
HETATM    1  C   UNL     1      -5.833  19.813  70.375  1.00  0.00    -0.327 C  
HETATM    2  C   UNL     1      -5.896  19.274  68.955  1.00  0.00    -0.241 C  
ENDROOT
BRANCH   2   3
HETATM    3  C   UNL     1      -6.997  18.296  68.595  1.00  0.00    -0.270 A  
HETATM    4  C   UNL     1      -7.937  18.708  67.606  1.00  0.00    -0.261 A  
HETATM    5  C   UNL     1      -8.713  17.746  66.957  1.00  0.00    -0.254 A  
HETATM    6  C   UNL     1      -7.213  17.063  69.245  1.00  0.00    -0.150 A  
HETATM    7  C   UNL     1      -8.249  16.259  68.781  1.00  0.00    -0.227 A  
HETATM    8  C   UNL     1      -8.803  16.491  67.520  1.00  0.00    -0.198 A  
HETATM    9  C   UNL     1      -9.933  15.545  67.269  1.00  0.00    -0.238 C  
HETATM   10  C   UNL     1     -10.548  15.688  68.671  1.00  0.00    -0.243 C  
HETATM   11  C   UNL     1      -9.257  15.397  69.564  1.00  0.00    -0.240 C  
BRANCH   4  12
HETATM   12  C   UNL     1      -8.252  20.187  67.447  1.00  0.00    -0.385 C  
HETATM   13  C   UNL     1      -9.681  20.546  67.041  1.00  0.00    -0.548 C  
ENDBRANCH   4  12
BRANCH  10  14
HETATM   14  N   UNL     1     -11.869  15.044  68.828  1.00  0.00    -0.458 NA 
HETATM   15  H   UNL     1     -12.637  15.696  68.671  1.00  0.00     0.000 HD 
BRANCH  14  16
HETATM   16  C   UNL     1     -11.949  13.837  67.922  1.00  0.00    -0.356 C  
BRANCH  16  17
HETATM   17  C   UNL     1     -12.112  12.459  68.620  1.00  0.00    -0.090 C  
HETATM   18  H   UNL     1     -11.799  11.766  70.416  1.00  0.00     0.000 HD 
HETATM   19  O   UNL     1     -11.699  12.609  69.989  1.00  0.00    -0.293 OA 
BRANCH  17  20
HETATM   20  C   UNL     1     -11.339  11.297  67.963  1.00  0.00    -0.372 A  
HETATM   21  C   UNL     1     -10.865  11.348  66.630  1.00  0.00    -0.339 A  
HETATM   22  C   UNL     1     -10.892  12.572  65.818  1.00  0.00    -0.310 C  
HETATM   23  C   UNL     1     -10.496  12.575  64.538  1.00  0.00    -0.366 C  
HETATM   24  C   UNL     1     -10.043  11.326  63.874  1.00  0.00    -0.340 C  
HETATM   25  N   UNL     1      -9.961  10.208  64.655  1.00  0.00    -0.355 N  
HETATM   26  O   UNL     1      -9.749  11.315  62.690  1.00  0.00    -0.283 OA 
HETATM   27  H   UNL     1      -9.616   9.348  64.230  1.00  0.00     0.000 HD 
HETATM   28  C   UNL     1     -10.325  10.179  66.017  1.00  0.00    -0.164 A  
HETATM   29  C   UNL     1     -10.197   8.993  66.745  1.00  0.00    -0.271 A  
HETATM   30  C   UNL     1     -10.598   8.949  68.071  1.00  0.00    -0.226 A  
HETATM   31  O   UNL     1      -9.673   7.842  66.222  1.00  0.00    -0.387 OA 
HETATM   32  C   UNL     1     -11.154  10.085  68.673  1.00  0.00    -0.223 A  
HETATM   33  H   UNL     1      -9.586   7.035  66.717  1.00  0.00     0.000 HD 
ENDBRANCH  17  20
ENDBRANCH  16  17
ENDBRANCH  14  16
ENDBRANCH  10  14
ENDBRANCH   2   3
TORSDOF 6
ENDMDL
MODEL      145
REMARK 921   NORMALIZED FREE ENERGY PREDICTED BY IDOCK:   -5.35 KCAL/MOL
REMARK 922        TOTAL FREE ENERGY PREDICTED BY IDOCK:   -8.50 KCAL/MOL
REMARK 923 INTER-LIGAND FREE ENERGY PREDICTED BY IDOCK:   -7.43 KCAL/MOL
REMARK 924 INTRA-LIGAND FREE ENERGY PREDICTED BY IDOCK:   -1.07 KCAL/MOL
REMARK 927      BINDING AFFINITY PREDICTED BY RF-SCORE:    0.00 PKD
ROOT
HETATM    1  C   UNL     1     -10.459  15.218  68.426  1.00  0.00    -0.236 C  
HETATM    2  C   UNL     1     -11.771  15.011  69.165  1.00  0.00    -0.345 C  
ENDROOT
BRANCH   2   3
HETATM    3  C   UNL     1     -12.019  13.681  69.851  1.00  0.00    -0.415 A  
HETATM    4  C   UNL     1     -12.419  13.718  71.218  1.00  0.00    -0.428 A  
HETATM    5  C   UNL     1     -13.030  12.596  71.782  1.00  0.00    -0.417 A  
HETATM    6  C   UNL     1     -11.777  12.423  69.262  1.00  0.00    -0.386 A  
HETATM    7  C   UNL     1     -12.083  11.289  70.008  1.00  0.00    -0.425 A  
HETATM    8  C   UNL     1     -12.916  11.391  71.124  1.00  0.00    -0.349 A  
HETATM    9  C   UNL     1     -13.048  10.061  71.795  1.00  0.00    -0.562 C  
HETATM   10  C   UNL     1     -11.555   9.706  71.693  1.00  0.00    -0.336 C  
HETATM   11  C   UNL     1     -11.323   9.955  70.133  1.00  0.00    -0.335 C  
BRANCH   4  12
HETATM   12  C   UNL     1     -11.963  14.871  72.098  1.00  0.00    -0.412 C  
HETATM   13  C   UNL     1     -13.047  15.603  72.889  1.00  0.00    -0.621 C  
ENDBRANCH   4  12
BRANCH  10  14
HETATM   14  N   UNL     1     -11.163   8.493  72.441  1.00  0.00    -0.360 NA 
HETATM   15  H   UNL     1     -11.073   8.668  73.441  1.00  0.00     0.000 HD 
BRANCH  14  16
HETATM   16  C   UNL     1     -12.143   7.381  72.142  1.00  0.00    -0.252 C  
BRANCH  16  17
HETATM   17  C   UNL     1     -11.531   5.996  71.794  1.00  0.00    -0.253 C  
HETATM   18  H   UNL     1     -11.735   4.178  72.471  1.00  0.00     0.000 HD 
HETATM   19  O   UNL     1     -12.110   5.025  72.683  1.00  0.00     0.002 OA 
BRANCH  17  20
HETATM   20  C   UNL     1      -9.992   5.924  71.867  1.00  0.00    -0.203 A  
HETATM   21  C   UNL     1      -9.158   6.188  70.755  1.00  0.00    -0.156 A  
HETATM   22  C   UNL     1      -9.663   6.739  69.490  1.00  0.00    -0.154 C  
HETATM   23  C   UNL     1      -8.861   6.918  68.432  1.00  0.00    -0.123 C  
HETATM   24  C   UNL     1      -7.427   6.533  68.484  1.00  0.00    -0.088 C  
HETATM   25  N   UNL     1      -6.954   6.082  69.683  1.00  0.00    -0.065 N  
HETATM   26  O   UNL     1      -6.714   6.630  67.499  1.00  0.00    -0.061 OA 
HETATM   27  H   UNL     1      -5.964   5.847  69.753  1.00  0.00     0.000 HD 
HETATM   28  C   UNL     1      -7.759   5.925  70.831  1.00  0.00    -0.098 A  
HETATM   29  C   UNL     1      -7.188   5.468  72.022  1.00  0.00    -0.088 A  
HETATM   30  C   UNL     1      -7.985   5.268  73.138  1.00  0.00    -0.101 A  
HETATM   31  O   UNL     1      -5.851   5.212  72.167  1.00  0.00    -0.019 OA 
HETATM   32  C   UNL     1      -9.365   5.499  73.065  1.00  0.00    -0.140 A  
HETATM   33  H   UNL     1      -5.463   4.901  72.976  1.00  0.00     0.000 HD 
ENDBRANCH  17  20
ENDBRANCH  16  17
ENDBRANCH  14  16
ENDBRANCH  10  14
ENDBRANCH   2   3
TORSDOF 6
ENDMDL
MODEL      146
REMARK 921   NORMALIZED FREE ENERGY PREDICTED BY IDOCK:   -5.35 KCAL/MOL
REMARK 922        TOTAL FREE ENERGY PREDICTED BY IDOCK:   -8.50 KCAL/MOL
REMARK 923 INTER-LIGAND FREE ENERGY PREDICTED BY IDOCK:   -6.96 KCAL/MOL
REMARK 924 INTRA-LIGAND FREE ENERGY PREDICTED BY IDOCK:   -1.54 KCAL/MOL
REMARK 927      BINDING AFFINITY PREDICTED BY RF-SCORE:    0.00 PKD
ROOT
HETATM    1  C   UNL     1      -6.764   5.478  69.842  1.00  0.00    -0.051 C  
HETATM    2  C   UNL     1      -6.670   6.836  70.517  1.00  0.00    -0.053 C  
ENDROOT
BRANCH   2   3
HETATM    3  C   UNL     1      -7.003   8.076  69.710  1.00  0.00    -0.052 A  
HETATM    4  C   UNL     1      -8.132   8.840  70.124  1.00  0.00    -0.114 A  
HETATM    5  C   UNL     1      -8.259  10.161  69.692  1.00  0.00    -0.176 A  
HETATM    6  C   UNL     1      -6.340   8.457  68.525  1.00  0.00    -0.054 A  
HETATM    7  C   UNL     1      -6.739   9.640  67.911  1.00  0.00    -0.066 A  
HETATM    8  C   UNL     1      -7.496  10.574  68.621  1.00  0.00    -0.095 A  
HETATM    9  C   UNL     1      -7.855  11.727  67.739  1.00  0.00    -0.135 C  
HETATM   10  C   UNL     1      -8.223  10.862  66.522  1.00  0.00    -0.157 C  
HETATM   11  C   UNL     1      -6.903   9.969  66.415  1.00  0.00    -0.093 C  
BRANCH   4  12
HETATM   12  C   UNL     1      -9.289   8.142  70.820  1.00  0.00    -0.174 C  
HETATM   13  C   UNL     1     -10.274   7.387  69.928  1.00  0.00    -0.212 C  
ENDBRANCH   4  12
BRANCH  10  14
HETATM   14  N   UNL     1      -8.853  11.606  65.412  1.00  0.00    -0.398 NA 
HETATM   15  H   UNL     1      -8.519  11.295  64.500  1.00  0.00     0.000 HD 
BRANCH  14  16
HETATM   16  C   UNL     1     -10.357  11.509  65.533  1.00  0.00    -0.273 C  
BRANCH  16  17
HETATM   17  C   UNL     1     -11.065  12.668  66.288  1.00  0.00    -0.293 C  
HETATM   18  H   UNL     1     -10.598  14.497  66.776  1.00  0.00     0.000 HD 
HETATM   19  O   UNL     1     -10.164  13.788  66.315  1.00  0.00    -0.282 OA 
BRANCH  17  20
HETATM   20  C   UNL     1     -11.528  12.330  67.720  1.00  0.00    -0.392 A  
HETATM   21  C   UNL     1     -11.763  13.320  68.704  1.00  0.00    -0.376 A  
HETATM   22  C   UNL     1     -11.776  14.759  68.403  1.00  0.00    -0.343 C  
HETATM   23  C   UNL     1     -11.936  15.676  69.366  1.00  0.00    -0.349 C  
HETATM   24  C   UNL     1     -12.074  15.275  70.790  1.00  0.00    -0.351 C  
HETATM   25  N   UNL     1     -12.125  13.935  71.050  1.00  0.00    -0.452 N  
HETATM   26  O   UNL     1     -12.150  16.113  71.674  1.00  0.00    -0.461 OA 
HETATM   27  H   UNL     1     -12.256  13.637  72.016  1.00  0.00     0.000 HD 
HETATM   28  C   UNL     1     -12.006  12.941  70.057  1.00  0.00    -0.309 A  
HETATM   29  C   UNL     1     -12.081  11.592  70.411  1.00  0.00    -0.382 A  
HETATM   30  C   UNL     1     -11.918  10.613  69.444  1.00  0.00    -0.298 A  
HETATM   31  O   UNL     1     -12.328  11.162  71.687  1.00  0.00    -0.220 OA 
HETATM   32  C   UNL     1     -11.652  10.976  68.117  1.00  0.00    -0.345 A  
HETATM   33  H   UNL     1     -12.378  10.244  71.928  1.00  0.00     0.000 HD 
ENDBRANCH  17  20
ENDBRANCH  16  17
ENDBRANCH  14  16
ENDBRANCH  10  14
ENDBRANCH   2   3
TORSDOF 6
ENDMDL
MODEL      147
REMARK 921   NORMALIZED FREE ENERGY PREDICTED BY IDOCK:   -5.34 KCAL/MOL
REMARK 922        TOTAL FREE ENERGY PREDICTED BY IDOCK:   -8.49 KCAL/MOL
REMARK 923 INTER-LIGAND FREE ENERGY PREDICTED BY IDOCK:   -7.86 KCAL/MOL
REMARK 924 INTRA-LIGAND FREE ENERGY PREDICTED BY IDOCK:   -0.63 KCAL/MOL
REMARK 927      BINDING AFFINITY PREDICTED BY RF-SCORE:    0.00 PKD
ROOT
HETATM    1  C   UNL     1     -11.207  14.875  68.212  1.00  0.00    -0.306 C  
HETATM    2  C   UNL     1     -11.950  13.685  67.629  1.00  0.00    -0.386 C  
ENDROOT
BRANCH   2   3
HETATM    3  C   UNL     1     -11.148  12.507  67.109  1.00  0.00    -0.321 A  
HETATM    4  C   UNL     1     -11.189  12.259  65.707  1.00  0.00    -0.378 A  
HETATM    5  C   UNL     1     -10.197  11.469  65.123  1.00  0.00    -0.322 A  
HETATM    6  C   UNL     1     -10.459  11.588  67.928  1.00  0.00    -0.211 A  
HETATM    7  C   UNL     1      -9.741  10.575  67.301  1.00  0.00    -0.197 A  
HETATM    8  C   UNL     1      -9.423  10.679  65.945  1.00  0.00    -0.239 A  
HETATM    9  C   UNL     1      -8.707   9.450  65.486  1.00  0.00    -0.190 C  
HETATM   10  C   UNL     1      -9.633   8.466  66.221  1.00  0.00    -0.216 C  
HETATM   11  C   UNL     1      -9.582   9.093  67.689  1.00  0.00    -0.181 C  
BRANCH   4  12
HETATM   12  C   UNL     1     -12.428  12.649  64.916  1.00  0.00    -0.564 C  
HETATM   13  C   UNL     1     -12.562  12.059  63.513  1.00  0.00    -0.625 C  
ENDBRANCH   4  12
BRANCH  10  14
HETATM   14  N   UNL     1      -9.409   7.046  65.881  1.00  0.00    -0.387 NA 
HETATM   15  H   UNL     1      -8.778   6.933  65.089  1.00  0.00     0.000 HD 
BRANCH  14  16
HETATM   16  C   UNL     1      -8.926   6.307  67.108  1.00  0.00    -0.111 C  
BRANCH  16  17
HETATM   17  C   UNL     1      -9.501   4.880  67.325  1.00  0.00    -0.142 C  
HETATM   18  H   UNL     1     -11.126   3.941  66.795  1.00  0.00     0.000 HD 
HETATM   19  O   UNL     1     -10.775   4.814  66.662  1.00  0.00    -0.181 OA 
BRANCH  17  20
HETATM   20  C   UNL     1      -9.653   4.454  68.800  1.00  0.00    -0.224 A  
HETATM   21  C   UNL     1     -10.337   5.239  69.759  1.00  0.00    -0.369 A  
HETATM   22  C   UNL     1     -11.125   6.427  69.404  1.00  0.00    -0.450 C  
HETATM   23  C   UNL     1     -11.708   7.189  70.339  1.00  0.00    -0.273 C  
HETATM   24  C   UNL     1     -11.553   6.880  71.784  1.00  0.00    -0.286 C  
HETATM   25  N   UNL     1     -10.873   5.738  72.099  1.00  0.00    -0.234 N  
HETATM   26  O   UNL     1     -12.025   7.613  72.637  1.00  0.00    -0.264 OA 
HETATM   27  H   UNL     1     -10.785   5.486  73.084  1.00  0.00     0.000 HD 
HETATM   28  C   UNL     1     -10.285   4.888  71.140  1.00  0.00    -0.191 A  
HETATM   29  C   UNL     1      -9.617   3.732  71.552  1.00  0.00    -0.161 A  
HETATM   30  C   UNL     1      -8.999   2.920  70.614  1.00  0.00    -0.168 A  
HETATM   31  O   UNL     1      -9.544   3.330  72.858  1.00  0.00    -0.104 OA 
HETATM   32  C   UNL     1      -9.023   3.271  69.259  1.00  0.00    -0.180 A  
HETATM   33  H   UNL     1      -9.090   2.544  73.139  1.00  0.00     0.000 HD 
ENDBRANCH  17  20
ENDBRANCH  16  17
ENDBRANCH  14  16
ENDBRANCH  10  14
ENDBRANCH   2   3
TORSDOF 6
ENDMDL
MODEL      148
REMARK 921   NORMALIZED FREE ENERGY PREDICTED BY IDOCK:   -5.34 KCAL/MOL
REMARK 922        TOTAL FREE ENERGY PREDICTED BY IDOCK:   -8.49 KCAL/MOL
REMARK 923 INTER-LIGAND FREE ENERGY PREDICTED BY IDOCK:   -7.76 KCAL/MOL
REMARK 924 INTRA-LIGAND FREE ENERGY PREDICTED BY IDOCK:   -0.73 KCAL/MOL
REMARK 927      BINDING AFFINITY PREDICTED BY RF-SCORE:    0.00 PKD
ROOT
HETATM    1  C   UNL     1      -8.146   1.925  65.862  1.00  0.00    -0.081 C  
HETATM    2  C   UNL     1      -9.106   2.770  66.683  1.00  0.00    -0.153 C  
ENDROOT
BRANCH   2   3
HETATM    3  C   UNL     1      -8.716   4.197  67.020  1.00  0.00    -0.113 A  
HETATM    4  C   UNL     1      -8.510   4.508  68.395  1.00  0.00    -0.100 A  
HETATM    5  C   UNL     1      -7.787   5.653  68.736  1.00  0.00    -0.096 A  
HETATM    6  C   UNL     1      -8.650   5.248  66.083  1.00  0.00    -0.120 A  
HETATM    7  C   UNL     1      -8.247   6.498  66.540  1.00  0.00    -0.113 A  
HETATM    8  C   UNL     1      -7.597   6.617  67.770  1.00  0.00    -0.106 A  
HETATM    9  C   UNL     1      -7.318   8.055  68.072  1.00  0.00    -0.096 C  
HETATM   10  C   UNL     1      -8.698   8.562  67.619  1.00  0.00    -0.136 C  
HETATM   11  C   UNL     1      -8.766   7.900  66.167  1.00  0.00    -0.181 C  
BRANCH   4  12
HETATM   12  C   UNL     1      -9.275   3.735  69.458  1.00  0.00    -0.226 C  
HETATM   13  C   UNL     1     -10.134   4.556  70.420  1.00  0.00    -0.229 C  
ENDBRANCH   4  12
BRANCH  10  14
HETATM   14  N   UNL     1      -8.961   9.981  67.933  1.00  0.00    -0.131 NA 
HETATM   15  H   UNL     1      -8.113  10.547  67.902  1.00  0.00     0.000 HD 
BRANCH  14  16
HETATM   16  C   UNL     1     -10.034  10.509  67.010  1.00  0.00    -0.201 C  
BRANCH  16  17
HETATM   17  C   UNL     1     -10.823  11.752  67.507  1.00  0.00    -0.239 C  
HETATM   18  H   UNL     1     -12.564  12.053  68.334  1.00  0.00     0.000 HD 
HETATM   19  O   UNL     1     -12.081  11.292  68.030  1.00  0.00    -0.638 OA 
BRANCH  17  20
HETATM   20  C   UNL     1     -11.064  12.842  66.443  1.00  0.00    -0.316 A  
HETATM   21  C   UNL     1     -10.253  13.998  66.331  1.00  0.00    -0.293 A  
HETATM   22  C   UNL     1      -9.002  14.172  67.083  1.00  0.00    -0.236 C  
HETATM   23  C   UNL     1      -8.289  15.303  67.007  1.00  0.00    -0.267 C  
HETATM   24  C   UNL     1      -8.754  16.447  66.180  1.00  0.00    -0.312 C  
HETATM   25  N   UNL     1      -9.882  16.251  65.436  1.00  0.00    -0.095 N  
HETATM   26  O   UNL     1      -8.141  17.502  66.166  1.00  0.00    -0.416 OA 
HETATM   27  H   UNL     1     -10.199  17.009  64.833  1.00  0.00     0.000 HD 
HETATM   28  C   UNL     1     -10.633  15.057  65.456  1.00  0.00    -0.363 A  
HETATM   29  C   UNL     1     -11.770  14.938  64.653  1.00  0.00    -0.404 A  
HETATM   30  C   UNL     1     -12.536  13.784  64.705  1.00  0.00    -0.386 A  
HETATM   31  O   UNL     1     -12.180  15.910  63.780  1.00  0.00    -1.213 OA 
HETATM   32  C   UNL     1     -12.184  12.749  65.581  1.00  0.00    -0.503 A  
HETATM   33  H   UNL     1     -12.954  15.829  63.235  1.00  0.00     0.000 HD 
ENDBRANCH  17  20
ENDBRANCH  16  17
ENDBRANCH  14  16
ENDBRANCH  10  14
ENDBRANCH   2   3
TORSDOF 6
ENDMDL
MODEL      149
REMARK 921   NORMALIZED FREE ENERGY PREDICTED BY IDOCK:   -5.34 KCAL/MOL
REMARK 922        TOTAL FREE ENERGY PREDICTED BY IDOCK:   -8.49 KCAL/MOL
REMARK 923 INTER-LIGAND FREE ENERGY PREDICTED BY IDOCK:   -7.20 KCAL/MOL
REMARK 924 INTRA-LIGAND FREE ENERGY PREDICTED BY IDOCK:   -1.29 KCAL/MOL
REMARK 927      BINDING AFFINITY PREDICTED BY RF-SCORE:    0.00 PKD
ROOT
HETATM    1  C   UNL     1      -8.882   4.050  67.108  1.00  0.00    -0.128 C  
HETATM    2  C   UNL     1      -9.119   4.540  68.527  1.00  0.00    -0.161 C  
ENDROOT
BRANCH   2   3
HETATM    3  C   UNL     1      -8.711   5.956  68.887  1.00  0.00    -0.116 A  
HETATM    4  C   UNL     1      -9.556   6.670  69.785  1.00  0.00    -0.155 A  
HETATM    5  C   UNL     1      -9.056   7.790  70.451  1.00  0.00    -0.155 A  
HETATM    6  C   UNL     1      -7.621   6.641  68.312  1.00  0.00    -0.104 A  
HETATM    7  C   UNL     1      -7.354   7.929  68.767  1.00  0.00    -0.086 A  
HETATM    8  C   UNL     1      -7.902   8.372  69.972  1.00  0.00    -0.103 A  
HETATM    9  C   UNL     1      -7.526   9.798  70.219  1.00  0.00    -0.173 C  
HETATM   10  C   UNL     1      -7.782  10.261  68.775  1.00  0.00    -0.096 C  
HETATM   11  C   UNL     1      -6.912   9.180  67.985  1.00  0.00    -0.077 C  
BRANCH   4  12
HETATM   12  C   UNL     1     -11.043   6.352  69.821  1.00  0.00    -0.459 C  
HETATM   13  C   UNL     1     -11.745   6.501  71.171  1.00  0.00    -0.392 C  
ENDBRANCH   4  12
BRANCH  10  14
HETATM   14  N   UNL     1      -7.721  11.725  68.583  1.00  0.00    -0.156 NA 
HETATM   15  H   UNL     1      -6.876  12.015  68.092  1.00  0.00     0.000 HD 
BRANCH  14  16
HETATM   16  C   UNL     1      -8.977  12.192  67.883  1.00  0.00    -0.184 C  
BRANCH  16  17
HETATM   17  C   UNL     1     -10.160  11.185  67.843  1.00  0.00    -0.176 C  
HETATM   18  H   UNL     1     -11.619  10.805  66.606  1.00  0.00     0.000 HD 
HETATM   19  O   UNL     1     -10.896  11.421  66.630  1.00  0.00    -0.269 OA 
BRANCH  17  20
HETATM   20  C   UNL     1     -11.111  11.244  69.055  1.00  0.00    -0.301 A  
HETATM   21  C   UNL     1     -11.627  12.459  69.567  1.00  0.00    -0.353 A  
HETATM   22  C   UNL     1     -11.463  13.749  68.882  1.00  0.00    -0.344 C  
HETATM   23  C   UNL     1     -11.906  14.892  69.421  1.00  0.00    -0.356 C  
HETATM   24  C   UNL     1     -12.554  14.907  70.759  1.00  0.00    -0.354 C  
HETATM   25  N   UNL     1     -12.759  13.697  71.357  1.00  0.00    -0.356 N  
HETATM   26  O   UNL     1     -12.893  15.956  71.280  1.00  0.00    -0.471 OA 
HETATM   27  H   UNL     1     -13.235  13.680  72.258  1.00  0.00     0.000 HD 
HETATM   28  C   UNL     1     -12.348  12.469  70.797  1.00  0.00    -0.286 A  
HETATM   29  C   UNL     1     -12.609  11.275  71.474  1.00  0.00    -0.312 A  
HETATM   30  C   UNL     1     -12.165  10.072  70.949  1.00  0.00    -0.441 A  
HETATM   31  O   UNL     1     -13.308  11.213  72.649  1.00  0.00    -0.398 OA 
HETATM   32  C   UNL     1     -11.434  10.055  69.755  1.00  0.00    -0.240 A  
HETATM   33  H   UNL     1     -13.485  10.402  73.110  1.00  0.00     0.000 HD 
ENDBRANCH  17  20
ENDBRANCH  16  17
ENDBRANCH  14  16
ENDBRANCH  10  14
ENDBRANCH   2   3
TORSDOF 6
ENDMDL
MODEL      150
REMARK 921   NORMALIZED FREE ENERGY PREDICTED BY IDOCK:   -5.31 KCAL/MOL
REMARK 922        TOTAL FREE ENERGY PREDICTED BY IDOCK:   -8.46 KCAL/MOL
REMARK 923 INTER-LIGAND FREE ENERGY PREDICTED BY IDOCK:   -7.71 KCAL/MOL
REMARK 924 INTRA-LIGAND FREE ENERGY PREDICTED BY IDOCK:   -0.74 KCAL/MOL
REMARK 927      BINDING AFFINITY PREDICTED BY RF-SCORE:    0.00 PKD
ROOT
HETATM    1  C   UNL     1      -9.668   4.289  66.427  1.00  0.00    -0.228 C  
HETATM    2  C   UNL     1      -8.845   5.362  67.122  1.00  0.00    -0.109 C  
ENDROOT
BRANCH   2   3
HETATM    3  C   UNL     1      -9.055   6.811  66.726  1.00  0.00    -0.155 A  
HETATM    4  C   UNL     1      -8.291   7.304  65.629  1.00  0.00    -0.142 A  
HETATM    5  C   UNL     1      -8.704   8.466  64.975  1.00  0.00    -0.092 A  
HETATM    6  C   UNL     1      -9.866   7.721  67.434  1.00  0.00    -0.230 A  
HETATM    7  C   UNL     1      -9.983   9.012  66.929  1.00  0.00    -0.313 A  
HETATM    8  C   UNL     1      -9.614   9.283  65.610  1.00  0.00    -0.324 A  
HETATM    9  C   UNL     1      -9.769  10.741  65.318  1.00  0.00    -0.308 C  
HETATM   10  C   UNL     1      -9.151  11.215  66.644  1.00  0.00    -0.170 C  
HETATM   11  C   UNL     1     -10.027  10.362  67.671  1.00  0.00    -0.205 C  
BRANCH   4  12
HETATM   12  C   UNL     1      -6.923   6.704  65.343  1.00  0.00    -0.056 C  
HETATM   13  C   UNL     1      -5.855   7.654  64.801  1.00  0.00    -0.038 C  
ENDBRANCH   4  12
BRANCH  10  14
HETATM   14  N   UNL     1      -8.908  12.671  66.719  1.00  0.00    -0.317 NA 
HETATM   15  H   UNL     1      -7.965  12.920  66.423  1.00  0.00     0.000 HD 
BRANCH  14  16
HETATM   16  C   UNL     1      -9.968  13.398  65.925  1.00  0.00    -0.277 C  
BRANCH  16  17
HETATM   17  C   UNL     1     -11.375  13.494  66.577  1.00  0.00    -0.319 C  
HETATM   18  H   UNL     1     -13.101  14.236  66.052  1.00  0.00     0.000 HD 
HETATM   19  O   UNL     1     -12.241  14.177  65.653  1.00  0.00    -0.401 OA 
BRANCH  17  20
HETATM   20  C   UNL     1     -11.414  14.195  67.950  1.00  0.00    -0.340 A  
HETATM   21  C   UNL     1     -11.772  13.524  69.144  1.00  0.00    -0.374 A  
HETATM   22  C   UNL     1     -11.950  12.067  69.220  1.00  0.00    -0.329 C  
HETATM   23  C   UNL     1     -12.353  11.467  70.348  1.00  0.00    -0.404 C  
HETATM   24  C   UNL     1     -12.669  12.257  71.566  1.00  0.00    -0.233 C  
HETATM   25  N   UNL     1     -12.438  13.602  71.503  1.00  0.00    -0.290 N  
HETATM   26  O   UNL     1     -13.102  11.717  72.570  1.00  0.00    -0.107 OA 
HETATM   27  H   UNL     1     -12.612  14.160  72.339  1.00  0.00     0.000 HD 
HETATM   28  C   UNL     1     -11.971  14.262  70.348  1.00  0.00    -0.332 A  
HETATM   29  C   UNL     1     -11.750  15.642  70.377  1.00  0.00    -0.357 A  
HETATM   30  C   UNL     1     -11.336  16.299  69.230  1.00  0.00    -0.288 A  
HETATM   31  O   UNL     1     -11.907  16.405  71.502  1.00  0.00    -0.639 OA 
HETATM   32  C   UNL     1     -11.163  15.587  68.036  1.00  0.00    -0.332 A  
HETATM   33  H   UNL     1     -11.758  17.343  71.522  1.00  0.00     0.000 HD 
ENDBRANCH  17  20
ENDBRANCH  16  17
ENDBRANCH  14  16
ENDBRANCH  10  14
ENDBRANCH   2   3
TORSDOF 6
ENDMDL
MODEL      151
REMARK 921   NORMALIZED FREE ENERGY PREDICTED BY IDOCK:   -5.31 KCAL/MOL
REMARK 922        TOTAL FREE ENERGY PREDICTED BY IDOCK:   -8.45 KCAL/MOL
REMARK 923 INTER-LIGAND FREE ENERGY PREDICTED BY IDOCK:   -6.70 KCAL/MOL
REMARK 924 INTRA-LIGAND FREE ENERGY PREDICTED BY IDOCK:   -1.76 KCAL/MOL
REMARK 927      BINDING AFFINITY PREDICTED BY RF-SCORE:    0.00 PKD
ROOT
HETATM    1  C   UNL     1      -6.304  20.428  69.097  1.00  0.00    -0.306 C  
HETATM    2  C   UNL     1      -6.210  19.080  68.400  1.00  0.00    -0.239 C  
ENDROOT
BRANCH   2   3
HETATM    3  C   UNL     1      -7.485  18.296  68.155  1.00  0.00    -0.270 A  
HETATM    4  C   UNL     1      -7.578  17.002  68.744  1.00  0.00    -0.243 A  
HETATM    5  C   UNL     1      -8.832  16.406  68.892  1.00  0.00    -0.256 A  
HETATM    6  C   UNL     1      -8.527  18.716  67.302  1.00  0.00    -0.275 A  
HETATM    7  C   UNL     1      -9.650  17.900  67.203  1.00  0.00    -0.280 A  
HETATM    8  C   UNL     1      -9.886  16.915  68.165  1.00  0.00    -0.264 A  
HETATM    9  C   UNL     1     -11.110  16.132  67.814  1.00  0.00    -0.254 C  
HETATM   10  C   UNL     1     -10.771  16.006  66.319  1.00  0.00    -0.234 C  
HETATM   11  C   UNL     1     -10.504  17.542  65.972  1.00  0.00    -0.274 C  
BRANCH   4  12
HETATM   12  C   UNL     1      -6.310  16.197  68.978  1.00  0.00    -0.148 C  
HETATM   13  C   UNL     1      -5.696  15.511  67.758  1.00  0.00    -0.148 C  
ENDBRANCH   4  12
BRANCH  10  14
HETATM   14  N   UNL     1     -11.656  15.093  65.566  1.00  0.00    -0.214 NA 
HETATM   15  H   UNL     1     -12.074  15.544  64.753  1.00  0.00     0.000 HD 
BRANCH  14  16
HETATM   16  C   UNL     1     -10.889  13.844  65.196  1.00  0.00    -0.358 C  
BRANCH  16  17
HETATM   17  C   UNL     1     -11.196  12.572  66.033  1.00  0.00    -0.315 C  
HETATM   18  H   UNL     1     -12.538  12.071  67.356  1.00  0.00     0.000 HD 
HETATM   19  O   UNL     1     -12.351  12.849  66.844  1.00  0.00    -0.384 OA 
BRANCH  17  20
HETATM   20  C   UNL     1     -10.036  12.076  66.920  1.00  0.00    -0.224 A  
HETATM   21  C   UNL     1      -9.862  10.714  67.265  1.00  0.00    -0.206 A  
HETATM   22  C   UNL     1     -10.646   9.629  66.659  1.00  0.00    -0.173 C  
HETATM   23  C   UNL     1     -10.505   8.356  67.051  1.00  0.00    -0.375 C  
HETATM   24  C   UNL     1      -9.567   7.992  68.145  1.00  0.00    -0.153 C  
HETATM   25  N   UNL     1      -8.797   8.998  68.656  1.00  0.00    -0.136 N  
HETATM   26  O   UNL     1      -9.490   6.844  68.550  1.00  0.00    -0.134 OA 
HETATM   27  H   UNL     1      -8.120   8.764  69.382  1.00  0.00     0.000 HD 
HETATM   28  C   UNL     1      -8.886  10.341  68.236  1.00  0.00    -0.126 A  
HETATM   29  C   UNL     1      -8.050  11.305  68.806  1.00  0.00    -0.130 A  
HETATM   30  C   UNL     1      -8.168  12.632  68.427  1.00  0.00    -0.129 A  
HETATM   31  O   UNL     1      -7.084  11.011  69.730  1.00  0.00    -0.256 OA 
HETATM   32  C   UNL     1      -9.141  13.012  67.494  1.00  0.00    -0.191 A  
HETATM   33  H   UNL     1      -6.516  11.666  70.118  1.00  0.00     0.000 HD 
ENDBRANCH  17  20
ENDBRANCH  16  17
ENDBRANCH  14  16
ENDBRANCH  10  14
ENDBRANCH   2   3
TORSDOF 6
ENDMDL
MODEL      152
REMARK 921   NORMALIZED FREE ENERGY PREDICTED BY IDOCK:   -5.31 KCAL/MOL
REMARK 922        TOTAL FREE ENERGY PREDICTED BY IDOCK:   -8.45 KCAL/MOL
REMARK 923 INTER-LIGAND FREE ENERGY PREDICTED BY IDOCK:   -7.64 KCAL/MOL
REMARK 924 INTRA-LIGAND FREE ENERGY PREDICTED BY IDOCK:   -0.80 KCAL/MOL
REMARK 927      BINDING AFFINITY PREDICTED BY RF-SCORE:    0.00 PKD
ROOT
HETATM    1  C   UNL     1      -6.549  17.353  67.960  1.00  0.00    -0.169 C  
HETATM    2  C   UNL     1      -7.538  17.401  66.808  1.00  0.00    -0.263 C  
ENDROOT
BRANCH   2   3
HETATM    3  C   UNL     1      -8.637  16.357  66.747  1.00  0.00    -0.270 A  
HETATM    4  C   UNL     1      -9.977  16.810  66.927  1.00  0.00    -0.274 A  
HETATM    5  C   UNL     1     -11.034  16.003  66.503  1.00  0.00    -0.080 A  
HETATM    6  C   UNL     1      -8.413  14.970  66.633  1.00  0.00    -0.192 A  
HETATM    7  C   UNL     1      -9.526  14.138  66.560  1.00  0.00    -0.303 A  
HETATM    8  C   UNL     1     -10.779  14.673  66.249  1.00  0.00    -0.316 A  
HETATM    9  C   UNL     1     -11.823  13.603  66.289  1.00  0.00    -0.426 C  
HETATM   10  C   UNL     1     -11.308  12.954  67.585  1.00  0.00    -0.303 C  
HETATM   11  C   UNL     1      -9.771  12.757  67.197  1.00  0.00    -0.216 C  
BRANCH   4  12
HETATM   12  C   UNL     1     -10.240  18.036  67.787  1.00  0.00    -0.385 C  
HETATM   13  C   UNL     1     -10.683  19.304  67.057  1.00  0.00    -0.565 C  
ENDBRANCH   4  12
BRANCH  10  14
HETATM   14  N   UNL     1     -12.196  11.914  68.143  1.00  0.00    -0.381 NA 
HETATM   15  H   UNL     1     -12.172  11.052  67.598  1.00  0.00     0.000 HD 
BRANCH  14  16
HETATM   16  C   UNL     1     -11.847  11.682  69.595  1.00  0.00    -0.352 C  
BRANCH  16  17
HETATM   17  C   UNL     1     -12.176  10.277  70.169  1.00  0.00    -0.176 C  
HETATM   18  H   UNL     1     -13.034   9.603  71.785  1.00  0.00     0.000 HD 
HETATM   19  O   UNL     1     -12.833  10.463  71.435  1.00  0.00    -0.378 OA 
BRANCH  17  20
HETATM   20  C   UNL     1     -10.964   9.339  70.339  1.00  0.00    -0.302 A  
HETATM   21  C   UNL     1     -10.370   8.648  69.255  1.00  0.00    -0.228 A  
HETATM   22  C   UNL     1     -10.725   8.905  67.852  1.00  0.00    -0.185 C  
HETATM   23  C   UNL     1     -10.195   8.191  66.851  1.00  0.00    -0.387 C  
HETATM   24  C   UNL     1      -9.245   7.080  67.122  1.00  0.00    -0.137 C  
HETATM   25  N   UNL     1      -8.874   6.892  68.423  1.00  0.00    -0.124 N  
HETATM   26  O   UNL     1      -8.817   6.385  66.216  1.00  0.00    -0.137 OA 
HETATM   27  H   UNL     1      -8.195   6.159  68.629  1.00  0.00     0.000 HD 
HETATM   28  C   UNL     1      -9.376   7.655  69.498  1.00  0.00    -0.153 A  
HETATM   29  C   UNL     1      -8.931   7.401  70.798  1.00  0.00    -0.151 A  
HETATM   30  C   UNL     1      -9.458   8.118  71.860  1.00  0.00    -0.260 A  
HETATM   31  O   UNL     1      -7.969   6.475  71.097  1.00  0.00    -0.108 OA 
HETATM   32  C   UNL     1     -10.454   9.077  71.634  1.00  0.00    -0.426 A  
HETATM   33  H   UNL     1      -7.667   6.302  71.980  1.00  0.00     0.000 HD 
ENDBRANCH  17  20
ENDBRANCH  16  17
ENDBRANCH  14  16
ENDBRANCH  10  14
ENDBRANCH   2   3
TORSDOF 6
ENDMDL
MODEL      153
REMARK 921   NORMALIZED FREE ENERGY PREDICTED BY IDOCK:   -5.30 KCAL/MOL
REMARK 922        TOTAL FREE ENERGY PREDICTED BY IDOCK:   -8.43 KCAL/MOL
REMARK 923 INTER-LIGAND FREE ENERGY PREDICTED BY IDOCK:   -7.74 KCAL/MOL
REMARK 924 INTRA-LIGAND FREE ENERGY PREDICTED BY IDOCK:   -0.70 KCAL/MOL
REMARK 927      BINDING AFFINITY PREDICTED BY RF-SCORE:    0.00 PKD
ROOT
HETATM    1  C   UNL     1      -6.797   4.613  74.329  1.00  0.00    -0.067 C  
HETATM    2  C   UNL     1      -6.685   5.849  73.451  1.00  0.00    -0.075 C  
ENDROOT
BRANCH   2   3
HETATM    3  C   UNL     1      -7.859   6.222  72.565  1.00  0.00    -0.102 A  
HETATM    4  C   UNL     1      -8.335   5.228  71.662  1.00  0.00    -0.118 A  
HETATM    5  C   UNL     1      -9.615   5.355  71.119  1.00  0.00    -0.214 A  
HETATM    6  C   UNL     1      -8.432   7.509  72.502  1.00  0.00    -0.146 A  
HETATM    7  C   UNL     1      -9.525   7.689  71.661  1.00  0.00    -0.174 A  
HETATM    8  C   UNL     1     -10.236   6.583  71.191  1.00  0.00    -0.219 A  
HETATM    9  C   UNL     1     -11.322   7.022  70.261  1.00  0.00    -0.339 C  
HETATM   10  C   UNL     1     -10.456   8.045  69.508  1.00  0.00    -0.226 C  
HETATM   11  C   UNL     1      -9.881   8.876  70.745  1.00  0.00    -0.278 C  
BRANCH   4  12
HETATM   12  C   UNL     1      -7.367   4.188  71.120  1.00  0.00    -0.044 C  
HETATM   13  C   UNL     1      -6.985   4.308  69.644  1.00  0.00    -0.045 C  
ENDBRANCH   4  12
BRANCH  10  14
HETATM   14  N   UNL     1     -11.094   8.619  68.306  1.00  0.00    -0.377 NA 
HETATM   15  H   UNL     1     -11.504   9.535  68.486  1.00  0.00     0.000 HD 
BRANCH  14  16
HETATM   16  C   UNL     1     -10.092   8.653  67.174  1.00  0.00    -0.261 C  
BRANCH  16  17
HETATM   17  C   UNL     1      -9.428  10.027  66.882  1.00  0.00    -0.166 C  
HETATM   18  H   UNL     1      -7.807  10.939  67.468  1.00  0.00     0.000 HD 
HETATM   19  O   UNL     1      -8.213  10.098  67.647  1.00  0.00    -0.110 OA 
BRANCH  17  20
HETATM   20  C   UNL     1     -10.310  11.256  67.180  1.00  0.00    -0.244 A  
HETATM   21  C   UNL     1     -10.952  12.005  66.164  1.00  0.00    -0.343 A  
HETATM   22  C   UNL     1     -10.997  11.573  64.760  1.00  0.00    -0.338 C  
HETATM   23  C   UNL     1     -11.555  12.333  63.809  1.00  0.00    -0.555 C  
HETATM   24  C   UNL     1     -12.124  13.668  64.131  1.00  0.00    -0.435 C  
HETATM   25  N   UNL     1     -12.134  14.031  65.447  1.00  0.00    -0.381 N  
HETATM   26  O   UNL     1     -12.568  14.389  63.253  1.00  0.00    -0.655 OA 
HETATM   27  H   UNL     1     -12.553  14.927  65.697  1.00  0.00     0.000 HD 
HETATM   28  C   UNL     1     -11.598  13.236  66.482  1.00  0.00    -0.350 A  
HETATM   29  C   UNL     1     -11.661  13.681  67.805  1.00  0.00    -0.362 A  
HETATM   30  C   UNL     1     -11.094  12.924  68.816  1.00  0.00    -0.305 A  
HETATM   31  O   UNL     1     -12.280  14.844  68.178  1.00  0.00    -0.574 OA 
HETATM   32  C   UNL     1     -10.434  11.726  68.510  1.00  0.00    -0.233 A  
HETATM   33  H   UNL     1     -12.323  15.147  69.078  1.00  0.00     0.000 HD 
ENDBRANCH  17  20
ENDBRANCH  16  17
ENDBRANCH  14  16
ENDBRANCH  10  14
ENDBRANCH   2   3
TORSDOF 6
ENDMDL
MODEL      154
REMARK 921   NORMALIZED FREE ENERGY PREDICTED BY IDOCK:   -5.29 KCAL/MOL
REMARK 922        TOTAL FREE ENERGY PREDICTED BY IDOCK:   -8.42 KCAL/MOL
REMARK 923 INTER-LIGAND FREE ENERGY PREDICTED BY IDOCK:   -7.25 KCAL/MOL
REMARK 924 INTRA-LIGAND FREE ENERGY PREDICTED BY IDOCK:   -1.17 KCAL/MOL
REMARK 927      BINDING AFFINITY PREDICTED BY RF-SCORE:    0.00 PKD
ROOT
HETATM    1  C   UNL     1     -14.283  14.194  72.091  1.00  0.00    -0.638 C  
HETATM    2  C   UNL     1     -13.430  12.943  72.219  1.00  0.00    -0.631 C  
ENDROOT
BRANCH   2   3
HETATM    3  C   UNL     1     -12.687  12.440  70.996  1.00  0.00    -0.315 A  
HETATM    4  C   UNL     1     -12.640  11.029  70.796  1.00  0.00    -0.463 A  
HETATM    5  C   UNL     1     -12.331  10.528  69.531  1.00  0.00    -0.068 A  
HETATM    6  C   UNL     1     -11.956  13.261  70.113  1.00  0.00    -0.388 A  
HETATM    7  C   UNL     1     -11.351  12.656  69.016  1.00  0.00    -0.345 A  
HETATM    8  C   UNL     1     -11.749  11.378  68.616  1.00  0.00    -0.394 A  
HETATM    9  C   UNL     1     -10.920  10.916  67.461  1.00  0.00    -0.352 C  
HETATM   10  C   UNL     1      -9.584  11.409  68.042  1.00  0.00    -0.183 C  
HETATM   11  C   UNL     1      -9.976  12.921  68.376  1.00  0.00    -0.211 C  
BRANCH   4  12
HETATM   12  C   UNL     1     -12.687  10.104  72.002  1.00  0.00    -0.421 C  
HETATM   13  C   UNL     1     -13.916   9.204  72.130  1.00  0.00    -0.466 C  
ENDBRANCH   4  12
BRANCH  10  14
HETATM   14  N   UNL     1      -8.391  10.974  67.287  1.00  0.00    -0.122 NA 
HETATM   15  H   UNL     1      -7.759  11.748  67.084  1.00  0.00     0.000 HD 
BRANCH  14  16
HETATM   16  C   UNL     1      -7.704   9.856  68.037  1.00  0.00    -0.086 C  
BRANCH  16  17
HETATM   17  C   UNL     1      -7.861   9.863  69.583  1.00  0.00    -0.154 C  
HETATM   18  H   UNL     1      -7.130  10.922  71.049  1.00  0.00     0.000 HD 
HETATM   19  O   UNL     1      -7.034  10.918  70.103  1.00  0.00    -0.174 OA 
BRANCH  17  20
HETATM   20  C   UNL     1      -7.516   8.532  70.282  1.00  0.00    -0.064 A  
HETATM   21  C   UNL     1      -8.308   7.981  71.318  1.00  0.00    -0.130 A  
HETATM   22  C   UNL     1      -9.624   8.519  71.690  1.00  0.00    -0.319 C  
HETATM   23  C   UNL     1     -10.322   8.018  72.717  1.00  0.00    -0.408 C  
HETATM   24  C   UNL     1      -9.776   6.914  73.549  1.00  0.00    -0.220 C  
HETATM   25  N   UNL     1      -8.582   6.380  73.155  1.00  0.00    -0.119 N  
HETATM   26  O   UNL     1     -10.381   6.505  74.526  1.00  0.00    -0.341 OA 
HETATM   27  H   UNL     1      -8.206   5.596  73.689  1.00  0.00     0.000 HD 
HETATM   28  C   UNL     1      -7.841   6.851  72.051  1.00  0.00    -0.095 A  
HETATM   29  C   UNL     1      -6.633   6.236  71.712  1.00  0.00    -0.058 A  
HETATM   30  C   UNL     1      -5.881   6.727  70.657  1.00  0.00    -0.027 A  
HETATM   31  O   UNL     1      -6.138   5.140  72.364  1.00  0.00    -0.027 OA 
HETATM   32  C   UNL     1      -6.318   7.853  69.948  1.00  0.00    -0.030 A  
HETATM   33  H   UNL     1      -5.316   4.722  72.134  1.00  0.00     0.000 HD 
ENDBRANCH  17  20
ENDBRANCH  16  17
ENDBRANCH  14  16
ENDBRANCH  10  14
ENDBRANCH   2   3
TORSDOF 6
ENDMDL
MODEL      155
REMARK 921   NORMALIZED FREE ENERGY PREDICTED BY IDOCK:   -5.27 KCAL/MOL
REMARK 922        TOTAL FREE ENERGY PREDICTED BY IDOCK:   -8.40 KCAL/MOL
REMARK 923 INTER-LIGAND FREE ENERGY PREDICTED BY IDOCK:   -8.39 KCAL/MOL
REMARK 924 INTRA-LIGAND FREE ENERGY PREDICTED BY IDOCK:   -0.01 KCAL/MOL
REMARK 927      BINDING AFFINITY PREDICTED BY RF-SCORE:    0.00 PKD
ROOT
HETATM    1  C   UNL     1     -10.725   8.148  69.972  1.00  0.00    -0.243 C  
HETATM    2  C   UNL     1      -9.548   8.458  69.063  1.00  0.00    -0.160 C  
ENDROOT
BRANCH   2   3
HETATM    3  C   UNL     1      -9.787   9.299  67.823  1.00  0.00    -0.210 A  
HETATM    4  C   UNL     1      -8.749   9.331  66.847  1.00  0.00    -0.136 A  
HETATM    5  C   UNL     1      -9.045   9.744  65.547  1.00  0.00    -0.242 A  
HETATM    6  C   UNL     1     -10.910  10.128  67.627  1.00  0.00    -0.346 A  
HETATM    7  C   UNL     1     -11.003  10.817  66.422  1.00  0.00    -0.108 A  
HETATM    8  C   UNL     1     -10.222  10.428  65.332  1.00  0.00    -0.329 A  
HETATM    9  C   UNL     1     -10.449  11.350  64.176  1.00  0.00    -0.421 C  
HETATM   10  C   UNL     1     -10.419  12.637  65.018  1.00  0.00    -0.308 C  
HETATM   11  C   UNL     1     -11.488  12.252  66.140  1.00  0.00    -0.429 C  
BRANCH   4  12
HETATM   12  C   UNL     1      -7.305   9.150  67.288  1.00  0.00    -0.087 C  
HETATM   13  C   UNL     1      -6.226   9.679  66.342  1.00  0.00    -0.068 C  
ENDBRANCH   4  12
BRANCH  10  14
HETATM   14  N   UNL     1     -10.411  13.885  64.226  1.00  0.00    -0.679 NA 
HETATM   15  H   UNL     1     -11.317  14.078  63.800  1.00  0.00     0.000 HD 
BRANCH  14  16
HETATM   16  C   UNL     1      -9.932  15.026  65.094  1.00  0.00    -0.234 C  
BRANCH  16  17
HETATM   17  C   UNL     1     -10.931  16.196  65.309  1.00  0.00    -0.270 C  
HETATM   18  H   UNL     1     -12.232  17.134  64.200  1.00  0.00     0.000 HD 
HETATM   19  O   UNL     1     -11.621  16.419  64.067  1.00  0.00    -1.071 OA 
BRANCH  17  20
HETATM   20  C   UNL     1     -10.299  17.514  65.803  1.00  0.00    -0.217 A  
HETATM   21  C   UNL     1      -9.242  17.553  66.743  1.00  0.00    -0.277 A  
HETATM   22  C   UNL     1      -8.522  16.350  67.187  1.00  0.00    -0.208 C  
HETATM   23  C   UNL     1      -7.569  16.409  68.126  1.00  0.00    -0.157 C  
HETATM   24  C   UNL     1      -7.222  17.695  68.786  1.00  0.00    -0.268 C  
HETATM   25  N   UNL     1      -7.851  18.815  68.320  1.00  0.00    -0.294 N  
HETATM   26  O   UNL     1      -6.404  17.737  69.689  1.00  0.00    -0.241 OA 
HETATM   27  H   UNL     1      -7.601  19.714  68.732  1.00  0.00     0.000 HD 
HETATM   28  C   UNL     1      -8.826  18.797  67.301  1.00  0.00    -0.274 A  
HETATM   29  C   UNL     1      -9.410  19.994  66.878  1.00  0.00    -0.393 A  
HETATM   30  C   UNL     1     -10.402  19.974  65.910  1.00  0.00    -0.529 A  
HETATM   31  O   UNL     1      -9.046  21.221  67.361  1.00  0.00    -0.460 OA 
HETATM   32  C   UNL     1     -10.835  18.754  65.375  1.00  0.00     0.272 A  
HETATM   33  H   UNL     1      -9.443  22.035  67.074  1.00  0.00     0.000 HD 
ENDBRANCH  17  20
ENDBRANCH  16  17
ENDBRANCH  14  16
ENDBRANCH  10  14
ENDBRANCH   2   3
TORSDOF 6
ENDMDL
MODEL      156
REMARK 921   NORMALIZED FREE ENERGY PREDICTED BY IDOCK:   -5.27 KCAL/MOL
REMARK 922        TOTAL FREE ENERGY PREDICTED BY IDOCK:   -8.39 KCAL/MOL
REMARK 923 INTER-LIGAND FREE ENERGY PREDICTED BY IDOCK:   -7.53 KCAL/MOL
REMARK 924 INTRA-LIGAND FREE ENERGY PREDICTED BY IDOCK:   -0.86 KCAL/MOL
REMARK 927      BINDING AFFINITY PREDICTED BY RF-SCORE:    0.00 PKD
ROOT
HETATM    1  C   UNL     1     -10.949   6.400  73.335  1.00  0.00    -0.168 C  
HETATM    2  C   UNL     1     -10.051   7.277  72.479  1.00  0.00    -0.224 C  
ENDROOT
BRANCH   2   3
HETATM    3  C   UNL     1     -10.662   8.468  71.765  1.00  0.00    -0.373 A  
HETATM    4  C   UNL     1      -9.871   9.104  70.764  1.00  0.00    -0.334 A  
HETATM    5  C   UNL     1     -10.493   9.924  69.821  1.00  0.00    -0.292 A  
HETATM    6  C   UNL     1     -11.903   9.047  72.100  1.00  0.00    -0.384 A  
HETATM    7  C   UNL     1     -12.345  10.120  71.333  1.00  0.00    -0.515 A  
HETATM    8  C   UNL     1     -11.770  10.371  70.085  1.00  0.00    -0.394 A  
HETATM    9  C   UNL     1     -12.362  11.603  69.480  1.00  0.00    -0.152 C  
HETATM   10  C   UNL     1     -12.327  12.426  70.778  1.00  0.00    -0.286 C  
HETATM   11  C   UNL     1     -13.068  11.410  71.763  1.00  0.00    -0.523 C  
BRANCH   4  12
HETATM   12  C   UNL     1      -8.356   9.076  70.881  1.00  0.00    -0.238 C  
HETATM   13  C   UNL     1      -7.595   8.340  69.778  1.00  0.00    -0.092 C  
ENDBRANCH   4  12
BRANCH  10  14
HETATM   14  N   UNL     1     -12.658  13.856  70.605  1.00  0.00    -0.343 NA 
HETATM   15  H   UNL     1     -13.240  14.212  71.362  1.00  0.00     0.000 HD 
BRANCH  14  16
HETATM   16  C   UNL     1     -11.382  14.650  70.443  1.00  0.00    -0.181 C  
BRANCH  16  17
HETATM   17  C   UNL     1     -11.197  15.391  69.090  1.00  0.00    -0.287 C  
HETATM   18  H   UNL     1     -12.036  15.302  67.331  1.00  0.00     0.000 HD 
HETATM   19  O   UNL     1     -12.150  14.848  68.159  1.00  0.00    -0.243 OA 
BRANCH  17  20
HETATM   20  C   UNL     1      -9.778  15.318  68.492  1.00  0.00    -0.211 A  
HETATM   21  C   UNL     1      -9.279  14.166  67.837  1.00  0.00    -0.196 A  
HETATM   22  C   UNL     1     -10.123  13.013  67.495  1.00  0.00    -0.218 C  
HETATM   23  C   UNL     1      -9.612  11.909  66.934  1.00  0.00    -0.208 C  
HETATM   24  C   UNL     1      -8.155  11.794  66.662  1.00  0.00    -0.094 C  
HETATM   25  N   UNL     1      -7.391  12.895  66.924  1.00  0.00    -0.341 N  
HETATM   26  O   UNL     1      -7.680  10.763  66.216  1.00  0.00    -0.138 OA 
HETATM   27  H   UNL     1      -6.395  12.851  66.710  1.00  0.00     0.000 HD 
HETATM   28  C   UNL     1      -7.903  14.089  67.472  1.00  0.00    -0.184 A  
HETATM   29  C   UNL     1      -7.050  15.173  67.696  1.00  0.00    -0.186 A  
HETATM   30  C   UNL     1      -7.541  16.331  68.278  1.00  0.00    -0.153 A  
HETATM   31  O   UNL     1      -5.724  15.170  67.355  1.00  0.00    -0.339 OA 
HETATM   32  C   UNL     1      -8.886  16.405  68.663  1.00  0.00    -0.234 A  
HETATM   33  H   UNL     1      -5.144  15.906  67.508  1.00  0.00     0.000 HD 
ENDBRANCH  17  20
ENDBRANCH  16  17
ENDBRANCH  14  16
ENDBRANCH  10  14
ENDBRANCH   2   3
TORSDOF 6
ENDMDL
MODEL      157
REMARK 921   NORMALIZED FREE ENERGY PREDICTED BY IDOCK:   -5.24 KCAL/MOL
REMARK 922        TOTAL FREE ENERGY PREDICTED BY IDOCK:   -8.36 KCAL/MOL
REMARK 923 INTER-LIGAND FREE ENERGY PREDICTED BY IDOCK:   -8.26 KCAL/MOL
REMARK 924 INTRA-LIGAND FREE ENERGY PREDICTED BY IDOCK:   -0.10 KCAL/MOL
REMARK 927      BINDING AFFINITY PREDICTED BY RF-SCORE:    0.00 PKD
ROOT
HETATM    1  C   UNL     1     -12.400  15.015  74.238  1.00  0.00    -0.556 C  
HETATM    2  C   UNL     1     -13.192  14.699  72.979  1.00  0.00    -0.587 C  
ENDROOT
BRANCH   2   3
HETATM    3  C   UNL     1     -12.444  14.538  71.669  1.00  0.00    -0.422 A  
HETATM    4  C   UNL     1     -12.632  13.318  70.957  1.00  0.00    -0.408 A  
HETATM    5  C   UNL     1     -12.304  13.260  69.602  1.00  0.00    -0.154 A  
HETATM    6  C   UNL     1     -11.501  15.461  71.171  1.00  0.00    -0.425 A  
HETATM    7  C   UNL     1     -10.918  15.188  69.938  1.00  0.00    -0.291 A  
HETATM    8  C   UNL     1     -11.500  14.250  69.082  1.00  0.00    -0.330 A  
HETATM    9  C   UNL     1     -10.665  14.085  67.851  1.00  0.00    -0.246 C  
HETATM   10  C   UNL     1      -9.321  14.056  68.598  1.00  0.00    -0.130 C  
HETATM   11  C   UNL     1      -9.465  15.389  69.466  1.00  0.00    -0.250 C  
BRANCH   4  12
HETATM   12  C   UNL     1     -12.951  12.047  71.728  1.00  0.00    -0.445 C  
HETATM   13  C   UNL     1     -12.271  10.764  71.250  1.00  0.00    -0.426 C  
ENDBRANCH   4  12
BRANCH  10  14
HETATM   14  N   UNL     1      -8.162  13.696  67.756  1.00  0.00    -0.163 NA 
HETATM   15  H   UNL     1      -8.378  12.943  67.103  1.00  0.00     0.000 HD 
BRANCH  14  16
HETATM   16  C   UNL     1      -7.650  14.933  67.053  1.00  0.00     0.008 C  
BRANCH  16  17
HETATM   17  C   UNL     1      -6.380  15.595  67.657  1.00  0.00    -0.163 C  
HETATM   18  H   UNL     1      -5.364  15.398  69.310  1.00  0.00     0.000 HD 
HETATM   19  O   UNL     1      -6.141  14.993  68.941  1.00  0.00    -0.088 OA 
BRANCH  17  20
HETATM   20  C   UNL     1      -6.447  17.129  67.799  1.00  0.00    -0.158 A  
HETATM   21  C   UNL     1      -7.535  17.898  67.319  1.00  0.00    -0.213 A  
HETATM   22  C   UNL     1      -8.779  17.297  66.818  1.00  0.00    -0.275 C  
HETATM   23  C   UNL     1      -9.765  18.046  66.309  1.00  0.00    -0.276 C  
HETATM   24  C   UNL     1      -9.627  19.522  66.198  1.00  0.00    -0.362 C  
HETATM   25  N   UNL     1      -8.495  20.075  66.725  1.00  0.00    -0.318 N  
HETATM   26  O   UNL     1     -10.496  20.196  65.671  1.00  0.00    -0.416 OA 
HETATM   27  H   UNL     1      -8.395  21.089  66.694  1.00  0.00     0.000 HD 
HETATM   28  C   UNL     1      -7.456  19.321  67.310  1.00  0.00    -0.231 A  
HETATM   29  C   UNL     1      -6.337  19.972  67.836  1.00  0.00    -0.234 A  
HETATM   30  C   UNL     1      -5.294  19.231  68.369  1.00  0.00    -0.197 A  
HETATM   31  O   UNL     1      -6.207  21.334  67.873  1.00  0.00    -0.348 OA 
HETATM   32  C   UNL     1      -5.351  17.831  68.358  1.00  0.00    -0.154 A  
HETATM   33  H   UNL     1      -5.446  21.776  68.230  1.00  0.00     0.000 HD 
ENDBRANCH  17  20
ENDBRANCH  16  17
ENDBRANCH  14  16
ENDBRANCH  10  14
ENDBRANCH   2   3
TORSDOF 6
ENDMDL
MODEL      158
REMARK 921   NORMALIZED FREE ENERGY PREDICTED BY IDOCK:   -5.23 KCAL/MOL
REMARK 922        TOTAL FREE ENERGY PREDICTED BY IDOCK:   -8.34 KCAL/MOL
REMARK 923 INTER-LIGAND FREE ENERGY PREDICTED BY IDOCK:   -7.85 KCAL/MOL
REMARK 924 INTRA-LIGAND FREE ENERGY PREDICTED BY IDOCK:   -0.49 KCAL/MOL
REMARK 927      BINDING AFFINITY PREDICTED BY RF-SCORE:    0.00 PKD
ROOT
HETATM    1  C   UNL     1      -9.627   3.627  66.681  1.00  0.00    -0.168 C  
HETATM    2  C   UNL     1      -9.292   4.719  67.683  1.00  0.00    -0.161 C  
ENDROOT
BRANCH   2   3
HETATM    3  C   UNL     1      -9.308   6.164  67.220  1.00  0.00    -0.117 A  
HETATM    4  C   UNL     1      -8.155   6.641  66.533  1.00  0.00    -0.111 A  
HETATM    5  C   UNL     1      -8.251   7.795  65.754  1.00  0.00    -0.132 A  
HETATM    6  C   UNL     1     -10.334   7.084  67.518  1.00  0.00    -0.288 A  
HETATM    7  C   UNL     1     -10.222   8.369  66.996  1.00  0.00    -0.377 A  
HETATM    8  C   UNL     1      -9.337   8.622  65.945  1.00  0.00    -0.262 A  
HETATM    9  C   UNL     1      -9.347  10.077  65.599  1.00  0.00    -0.257 C  
HETATM   10  C   UNL     1      -9.331  10.567  67.056  1.00  0.00    -0.155 C  
HETATM   11  C   UNL     1     -10.560   9.728  67.637  1.00  0.00    -0.333 C  
BRANCH   4  12
HETATM   12  C   UNL     1      -6.796   6.035  66.847  1.00  0.00    -0.063 C  
HETATM   13  C   UNL     1      -6.108   5.268  65.717  1.00  0.00    -0.033 C  
ENDBRANCH   4  12
BRANCH  10  14
HETATM   14  N   UNL     1      -9.131  12.022  67.210  1.00  0.00    -0.172 NA 
HETATM   15  H   UNL     1      -8.146  12.268  67.306  1.00  0.00     0.000 HD 
BRANCH  14  16
HETATM   16  C   UNL     1      -9.790  12.743  66.056  1.00  0.00    -0.255 C  
BRANCH  16  17
HETATM   17  C   UNL     1     -11.264  13.184  66.269  1.00  0.00    -0.301 C  
HETATM   18  H   UNL     1     -12.600  14.127  65.205  1.00  0.00     0.000 HD 
HETATM   19  O   UNL     1     -11.698  13.858  65.075  1.00  0.00    -0.331 OA 
BRANCH  17  20
HETATM   20  C   UNL     1     -11.508  14.083  67.498  1.00  0.00    -0.369 A  
HETATM   21  C   UNL     1     -11.155  15.454  67.528  1.00  0.00    -0.315 A  
HETATM   22  C   UNL     1     -10.706  16.190  66.337  1.00  0.00    -0.211 C  
HETATM   23  C   UNL     1     -10.316  17.469  66.409  1.00  0.00    -0.334 C  
HETATM   24  C   UNL     1     -10.290  18.191  67.708  1.00  0.00    -0.399 C  
HETATM   25  N   UNL     1     -10.769  17.518  68.795  1.00  0.00    -0.317 N  
HETATM   26  O   UNL     1      -9.869  19.333  67.783  1.00  0.00    -0.310 OA 
HETATM   27  H   UNL     1     -10.795  18.006  69.690  1.00  0.00     0.000 HD 
HETATM   28  C   UNL     1     -11.231  16.186  68.749  1.00  0.00    -0.365 A  
HETATM   29  C   UNL     1     -11.716  15.578  69.910  1.00  0.00    -0.352 A  
HETATM   30  C   UNL     1     -12.127  14.255  69.877  1.00  0.00    -0.404 A  
HETATM   31  O   UNL     1     -11.830  16.229  71.108  1.00  0.00    -0.582 OA 
HETATM   32  C   UNL     1     -12.031  13.520  68.688  1.00  0.00    -0.378 A  
HETATM   33  H   UNL     1     -12.160  15.816  71.898  1.00  0.00     0.000 HD 
ENDBRANCH  17  20
ENDBRANCH  16  17
ENDBRANCH  14  16
ENDBRANCH  10  14
ENDBRANCH   2   3
TORSDOF 6
ENDMDL
MODEL      159
REMARK 921   NORMALIZED FREE ENERGY PREDICTED BY IDOCK:   -5.21 KCAL/MOL
REMARK 922        TOTAL FREE ENERGY PREDICTED BY IDOCK:   -8.32 KCAL/MOL
REMARK 923 INTER-LIGAND FREE ENERGY PREDICTED BY IDOCK:   -7.78 KCAL/MOL
REMARK 924 INTRA-LIGAND FREE ENERGY PREDICTED BY IDOCK:   -0.54 KCAL/MOL
REMARK 927      BINDING AFFINITY PREDICTED BY RF-SCORE:    0.00 PKD
ROOT
HETATM    1  C   UNL     1      -5.956  18.594  70.010  1.00  0.00    -0.213 C  
HETATM    2  C   UNL     1      -5.955  18.384  68.505  1.00  0.00    -0.191 C  
ENDROOT
BRANCH   2   3
HETATM    3  C   UNL     1      -7.121  17.650  67.871  1.00  0.00    -0.190 A  
HETATM    4  C   UNL     1      -7.994  18.408  67.037  1.00  0.00    -0.238 A  
HETATM    5  C   UNL     1      -8.825  17.744  66.134  1.00  0.00    -0.122 A  
HETATM    6  C   UNL     1      -7.456  16.306  68.136  1.00  0.00    -0.148 A  
HETATM    7  C   UNL     1      -8.539  15.762  67.453  1.00  0.00    -0.192 A  
HETATM    8  C   UNL     1      -9.033  16.394  66.310  1.00  0.00    -0.368 A  
HETATM    9  C   UNL     1     -10.229  15.661  65.790  1.00  0.00    -0.391 C  
HETATM   10  C   UNL     1     -10.873  15.448  67.170  1.00  0.00    -0.321 C  
HETATM   11  C   UNL     1      -9.637  14.802  67.949  1.00  0.00    -0.210 C  
BRANCH   4  12
HETATM   12  C   UNL     1      -8.182  19.892  67.310  1.00  0.00    -0.350 C  
HETATM   13  C   UNL     1      -9.531  20.319  67.889  1.00  0.00    -0.399 C  
ENDBRANCH   4  12
BRANCH  10  14
HETATM   14  N   UNL     1     -12.245  14.903  67.126  1.00  0.00    -0.357 NA 
HETATM   15  H   UNL     1     -12.953  15.636  67.147  1.00  0.00     0.000 HD 
BRANCH  14  16
HETATM   16  C   UNL     1     -12.389  14.002  65.921  1.00  0.00    -0.486 C  
BRANCH  16  17
HETATM   17  C   UNL     1     -12.286  12.475  66.183  1.00  0.00    -0.140 C  
HETATM   18  H   UNL     1     -11.934  11.354  67.740  1.00  0.00     0.000 HD 
HETATM   19  O   UNL     1     -11.997  12.288  67.580  1.00  0.00    -0.494 OA 
BRANCH  17  20
HETATM   20  C   UNL     1     -11.239  11.733  65.327  1.00  0.00    -0.315 A  
HETATM   21  C   UNL     1     -10.489  10.635  65.813  1.00  0.00    -0.235 A  
HETATM   22  C   UNL     1     -10.770   9.981  67.098  1.00  0.00    -0.279 C  
HETATM   23  C   UNL     1     -10.002   8.986  67.563  1.00  0.00    -0.262 C  
HETATM   24  C   UNL     1      -8.809   8.523  66.808  1.00  0.00    -0.139 C  
HETATM   25  N   UNL     1      -8.595   9.093  65.585  1.00  0.00    -0.148 N  
HETATM   26  O   UNL     1      -8.071   7.666  67.264  1.00  0.00    -0.115 OA 
HETATM   27  H   UNL     1      -7.803   8.765  65.033  1.00  0.00     0.000 HD 
HETATM   28  C   UNL     1      -9.408  10.111  65.044  1.00  0.00    -0.243 A  
HETATM   29  C   UNL     1      -9.122  10.630  63.779  1.00  0.00    -0.227 A  
HETATM   30  C   UNL     1      -9.892  11.661  63.265  1.00  0.00    -0.428 A  
HETATM   31  O   UNL     1      -8.111  10.161  62.984  1.00  0.00    -0.142 OA 
HETATM   32  C   UNL     1     -10.939  12.200  64.024  1.00  0.00    -0.438 A  
HETATM   33  H   UNL     1      -7.916  10.514  62.124  1.00  0.00     0.000 HD 
ENDBRANCH  17  20
ENDBRANCH  16  17
ENDBRANCH  14  16
ENDBRANCH  10  14
ENDBRANCH   2   3
TORSDOF 6
ENDMDL
MODEL      160
REMARK 921   NORMALIZED FREE ENERGY PREDICTED BY IDOCK:   -5.21 KCAL/MOL
REMARK 922        TOTAL FREE ENERGY PREDICTED BY IDOCK:   -8.31 KCAL/MOL
REMARK 923 INTER-LIGAND FREE ENERGY PREDICTED BY IDOCK:   -7.27 KCAL/MOL
REMARK 924 INTRA-LIGAND FREE ENERGY PREDICTED BY IDOCK:   -1.04 KCAL/MOL
REMARK 927      BINDING AFFINITY PREDICTED BY RF-SCORE:    0.00 PKD
ROOT
HETATM    1  C   UNL     1     -11.641  15.912  64.259  1.00  0.00    -0.179 C  
HETATM    2  C   UNL     1     -10.361  15.243  64.731  1.00  0.00    -0.132 C  
ENDROOT
BRANCH   2   3
HETATM    3  C   UNL     1     -10.454  14.145  65.774  1.00  0.00    -0.320 A  
HETATM    4  C   UNL     1     -10.250  12.806  65.330  1.00  0.00    -0.299 A  
HETATM    5  C   UNL     1      -9.936  11.817  66.264  1.00  0.00    -0.246 A  
HETATM    6  C   UNL     1     -10.833  14.351  67.116  1.00  0.00    -0.292 A  
HETATM    7  C   UNL     1     -10.843  13.247  67.962  1.00  0.00    -0.261 A  
HETATM    8  C   UNL     1     -10.170  12.079  67.596  1.00  0.00    -0.210 A  
HETATM    9  C   UNL     1     -10.375  11.018  68.629  1.00  0.00    -0.209 C  
HETATM   10  C   UNL     1     -11.878  11.288  68.811  1.00  0.00    -0.329 C  
HETATM   11  C   UNL     1     -11.840  12.863  69.073  1.00  0.00    -0.352 C  
BRANCH   4  12
HETATM   12  C   UNL     1     -10.611  12.431  63.902  1.00  0.00    -0.470 C  
HETATM   13  C   UNL     1     -12.096  12.230  63.598  1.00  0.00    -0.648 C  
ENDBRANCH   4  12
BRANCH  10  14
HETATM   14  N   UNL     1     -12.582  10.292  69.644  1.00  0.00    -0.552 NA 
HETATM   15  H   UNL     1     -12.912   9.497  69.099  1.00  0.00     0.000 HD 
BRANCH  14  16
HETATM   16  C   UNL     1     -11.686   9.870  70.786  1.00  0.00    -0.341 C  
BRANCH  16  17
HETATM   17  C   UNL     1     -11.475   8.341  70.969  1.00  0.00    -0.275 C  
HETATM   18  H   UNL     1     -12.052   7.006  72.268  1.00  0.00     0.000 HD 
HETATM   19  O   UNL     1     -12.181   7.940  72.156  1.00  0.00    -0.309 OA 
BRANCH  17  20
HETATM   20  C   UNL     1     -10.003   7.890  71.056  1.00  0.00    -0.200 A  
HETATM   21  C   UNL     1      -9.574   6.593  70.682  1.00  0.00    -0.177 A  
HETATM   22  C   UNL     1     -10.448   5.628  70.001  1.00  0.00    -0.367 C  
HETATM   23  C   UNL     1     -10.036   4.385  69.718  1.00  0.00    -0.224 C  
HETATM   24  C   UNL     1      -8.681   3.919  70.113  1.00  0.00    -0.071 C  
HETATM   25  N   UNL     1      -7.856   4.843  70.688  1.00  0.00    -0.069 N  
HETATM   26  O   UNL     1      -8.332   2.767  69.918  1.00  0.00    -0.044 OA 
HETATM   27  H   UNL     1      -6.909   4.556  70.934  1.00  0.00     0.000 HD 
HETATM   28  C   UNL     1      -8.240   6.173  70.959  1.00  0.00    -0.123 A  
HETATM   29  C   UNL     1      -7.326   7.056  71.539  1.00  0.00    -0.080 A  
HETATM   30  C   UNL     1      -7.715   8.349  71.850  1.00  0.00    -0.157 A  
HETATM   31  O   UNL     1      -6.028   6.721  71.815  1.00  0.00    -0.037 OA 
HETATM   32  C   UNL     1      -9.031   8.762  71.605  1.00  0.00    -0.301 A  
HETATM   33  H   UNL     1      -5.406   7.321  72.210  1.00  0.00     0.000 HD 
ENDBRANCH  17  20
ENDBRANCH  16  17
ENDBRANCH  14  16
ENDBRANCH  10  14
ENDBRANCH   2   3
TORSDOF 6
ENDMDL
MODEL      161
REMARK 921   NORMALIZED FREE ENERGY PREDICTED BY IDOCK:   -5.20 KCAL/MOL
REMARK 922        TOTAL FREE ENERGY PREDICTED BY IDOCK:   -8.30 KCAL/MOL
REMARK 923 INTER-LIGAND FREE ENERGY PREDICTED BY IDOCK:   -8.13 KCAL/MOL
REMARK 924 INTRA-LIGAND FREE ENERGY PREDICTED BY IDOCK:   -0.17 KCAL/MOL
REMARK 927      BINDING AFFINITY PREDICTED BY RF-SCORE:    0.00 PKD
ROOT
HETATM    1  C   UNL     1      -9.936  15.774  65.810  1.00  0.00    -0.389 C  
HETATM    2  C   UNL     1     -10.858  14.717  65.223  1.00  0.00    -0.395 C  
ENDROOT
BRANCH   2   3
HETATM    3  C   UNL     1     -10.354  13.290  65.114  1.00  0.00    -0.336 A  
HETATM    4  C   UNL     1     -10.698  12.566  63.936  1.00  0.00    -0.473 A  
HETATM    5  C   UNL     1      -9.965  11.428  63.595  1.00  0.00    -0.402 A  
HETATM    6  C   UNL     1      -9.667  12.607  66.139  1.00  0.00    -0.253 A  
HETATM    7  C   UNL     1      -9.242  11.309  65.878  1.00  0.00    -0.229 A  
HETATM    8  C   UNL     1      -9.176  10.846  64.562  1.00  0.00    -0.226 A  
HETATM    9  C   UNL     1      -8.753   9.411  64.539  1.00  0.00    -0.233 C  
HETATM   10  C   UNL     1      -9.658   8.980  65.705  1.00  0.00    -0.167 C  
HETATM   11  C   UNL     1      -9.235  10.070  66.793  1.00  0.00    -0.173 C  
BRANCH   4  12
HETATM   12  C   UNL     1     -11.992  12.896  63.210  1.00  0.00    -0.516 C  
HETATM   13  C   UNL     1     -13.252  12.174  63.688  1.00  0.00     0.038 C  
ENDBRANCH   4  12
BRANCH  10  14
HETATM   14  N   UNL     1      -9.718   7.520  65.924  1.00  0.00    -0.382 NA 
HETATM   15  H   UNL     1      -8.794   7.111  66.057  1.00  0.00     0.000 HD 
BRANCH  14  16
HETATM   16  C   UNL     1     -10.645   7.225  67.081  1.00  0.00    -0.346 C  
BRANCH  16  17
HETATM   17  C   UNL     1      -9.978   6.709  68.386  1.00  0.00    -0.145 C  
HETATM   18  H   UNL     1      -9.578   4.957  69.142  1.00  0.00     0.000 HD 
HETATM   19  O   UNL     1      -9.986   5.272  68.344  1.00  0.00    -0.148 OA 
BRANCH  17  20
HETATM   20  C   UNL     1     -10.633   7.200  69.693  1.00  0.00    -0.249 A  
HETATM   21  C   UNL     1     -10.770   6.379  70.838  1.00  0.00    -0.301 A  
HETATM   22  C   UNL     1     -10.136   5.059  70.956  1.00  0.00    -0.297 C  
HETATM   23  C   UNL     1     -10.336   4.277  72.025  1.00  0.00    -0.169 C  
HETATM   24  C   UNL     1     -11.240   4.700  73.125  1.00  0.00    -0.281 C  
HETATM   25  N   UNL     1     -11.773   5.955  73.036  1.00  0.00    -0.506 N  
HETATM   26  O   UNL     1     -11.477   3.958  74.064  1.00  0.00    -0.002 OA 
HETATM   27  H   UNL     1     -12.367   6.281  73.798  1.00  0.00     0.000 HD 
HETATM   28  C   UNL     1     -11.547   6.824  71.948  1.00  0.00    -0.292 A  
HETATM   29  C   UNL     1     -12.124   8.097  71.945  1.00  0.00    -0.323 A  
HETATM   30  C   UNL     1     -11.941   8.935  70.857  1.00  0.00    -0.254 A  
HETATM   31  O   UNL     1     -12.866   8.589  72.984  1.00  0.00    -0.701 OA 
HETATM   32  C   UNL     1     -11.202   8.497  69.751  1.00  0.00     0.023 A  
HETATM   33  H   UNL     1     -13.258   9.454  72.982  1.00  0.00     0.000 HD 
ENDBRANCH  17  20
ENDBRANCH  16  17
ENDBRANCH  14  16
ENDBRANCH  10  14
ENDBRANCH   2   3
TORSDOF 6
ENDMDL
MODEL      162
REMARK 921   NORMALIZED FREE ENERGY PREDICTED BY IDOCK:   -5.20 KCAL/MOL
REMARK 922        TOTAL FREE ENERGY PREDICTED BY IDOCK:   -8.30 KCAL/MOL
REMARK 923 INTER-LIGAND FREE ENERGY PREDICTED BY IDOCK:   -7.43 KCAL/MOL
REMARK 924 INTRA-LIGAND FREE ENERGY PREDICTED BY IDOCK:   -0.87 KCAL/MOL
REMARK 927      BINDING AFFINITY PREDICTED BY RF-SCORE:    0.00 PKD
ROOT
HETATM    1  C   UNL     1     -10.660   4.984  65.986  1.00  0.00    -0.286 C  
HETATM    2  C   UNL     1     -10.803   5.926  67.170  1.00  0.00    -0.373 C  
ENDROOT
BRANCH   2   3
HETATM    3  C   UNL     1     -10.042   7.238  67.153  1.00  0.00    -0.306 A  
HETATM    4  C   UNL     1      -8.632   7.177  67.356  1.00  0.00    -0.121 A  
HETATM    5  C   UNL     1      -7.838   8.258  66.970  1.00  0.00    -0.096 A  
HETATM    6  C   UNL     1     -10.646   8.509  67.058  1.00  0.00    -0.305 A  
HETATM    7  C   UNL     1      -9.811   9.621  67.024  1.00  0.00    -0.249 A  
HETATM    8  C   UNL     1      -8.454   9.468  66.733  1.00  0.00    -0.129 A  
HETATM    9  C   UNL     1      -7.755  10.788  66.815  1.00  0.00    -0.136 C  
HETATM   10  C   UNL     1      -8.454  11.235  68.110  1.00  0.00    -0.145 C  
HETATM   11  C   UNL     1      -9.977  11.000  67.690  1.00  0.00    -0.196 C  
BRANCH   4  12
HETATM   12  C   UNL     1      -8.049   6.055  68.200  1.00  0.00    -0.110 C  
HETATM   13  C   UNL     1      -8.036   6.268  69.714  1.00  0.00    -0.120 C  
ENDBRANCH   4  12
BRANCH  10  14
HETATM   14  N   UNL     1      -7.904  12.470  68.706  1.00  0.00    -0.308 NA 
HETATM   15  H   UNL     1      -7.339  12.282  69.533  1.00  0.00     0.000 HD 
BRANCH  14  16
HETATM   16  C   UNL     1      -7.138  13.237  67.652  1.00  0.00    -0.159 C  
BRANCH  16  17
HETATM   17  C   UNL     1      -7.747  14.595  67.206  1.00  0.00    -0.169 C  
HETATM   18  H   UNL     1      -7.849  16.388  67.967  1.00  0.00     0.000 HD 
HETATM   19  O   UNL     1      -7.477  15.558  68.240  1.00  0.00    -0.111 OA 
BRANCH  17  20
HETATM   20  C   UNL     1      -9.258  14.565  66.899  1.00  0.00    -0.267 A  
HETATM   21  C   UNL     1     -10.247  14.790  67.886  1.00  0.00    -0.229 A  
HETATM   22  C   UNL     1      -9.930  15.262  69.242  1.00  0.00    -0.251 C  
HETATM   23  C   UNL     1     -10.880  15.404  70.175  1.00  0.00    -0.328 C  
HETATM   24  C   UNL     1     -12.296  15.057  69.886  1.00  0.00    -0.275 C  
HETATM   25  N   UNL     1     -12.589  14.682  68.606  1.00  0.00    -0.381 N  
HETATM   26  O   UNL     1     -13.148  15.121  70.757  1.00  0.00    -0.402 OA 
HETATM   27  H   UNL     1     -13.560  14.475  68.376  1.00  0.00     0.000 HD 
HETATM   28  C   UNL     1     -11.623  14.566  67.586  1.00  0.00    -0.378 A  
HETATM   29  C   UNL     1     -12.013  14.186  66.299  1.00  0.00    -0.429 A  
HETATM   30  C   UNL     1     -11.060  14.026  65.306  1.00  0.00    -0.325 A  
HETATM   31  O   UNL     1     -13.317  13.971  65.941  1.00  0.00    -0.609 OA 
HETATM   32  C   UNL     1      -9.704  14.219  65.599  1.00  0.00    -0.238 A  
HETATM   33  H   UNL     1     -13.583  13.712  65.066  1.00  0.00     0.000 HD 
ENDBRANCH  17  20
ENDBRANCH  16  17
ENDBRANCH  14  16
ENDBRANCH  10  14
ENDBRANCH   2   3
TORSDOF 6
ENDMDL
MODEL      163
REMARK 921   NORMALIZED FREE ENERGY PREDICTED BY IDOCK:   -5.19 KCAL/MOL
REMARK 922        TOTAL FREE ENERGY PREDICTED BY IDOCK:   -8.29 KCAL/MOL
REMARK 923 INTER-LIGAND FREE ENERGY PREDICTED BY IDOCK:   -7.57 KCAL/MOL
REMARK 924 INTRA-LIGAND FREE ENERGY PREDICTED BY IDOCK:   -0.72 KCAL/MOL
REMARK 927      BINDING AFFINITY PREDICTED BY RF-SCORE:    0.00 PKD
ROOT
HETATM    1  C   UNL     1     -10.367   4.630  73.669  1.00  0.00    -0.249 C  
HETATM    2  C   UNL     1      -9.059   4.865  72.931  1.00  0.00    -0.129 C  
ENDROOT
BRANCH   2   3
HETATM    3  C   UNL     1      -9.101   5.536  71.571  1.00  0.00    -0.153 A  
HETATM    4  C   UNL     1      -8.400   6.769  71.431  1.00  0.00    -0.119 A  
HETATM    5  C   UNL     1      -8.070   7.226  70.154  1.00  0.00    -0.129 A  
HETATM    6  C   UNL     1      -9.870   5.080  70.481  1.00  0.00    -0.290 A  
HETATM    7  C   UNL     1      -9.782   5.788  69.286  1.00  0.00    -0.188 A  
HETATM    8  C   UNL     1      -8.721   6.671  69.074  1.00  0.00    -0.129 A  
HETATM    9  C   UNL     1      -8.874   7.355  67.752  1.00  0.00    -0.128 C  
HETATM   10  C   UNL     1     -10.380   7.622  67.907  1.00  0.00    -0.212 C  
HETATM   11  C   UNL     1     -10.881   6.149  68.269  1.00  0.00    -0.387 C  
BRANCH   4  12
HETATM   12  C   UNL     1      -8.235   7.675  72.640  1.00  0.00    -0.153 C  
HETATM   13  C   UNL     1      -6.849   8.279  72.863  1.00  0.00    -0.117 C  
ENDBRANCH   4  12
BRANCH  10  14
HETATM   14  N   UNL     1     -10.956   8.497  66.865  1.00  0.00    -0.196 NA 
HETATM   15  H   UNL     1     -11.738   9.049  67.213  1.00  0.00     0.000 HD 
BRANCH  14  16
HETATM   16  C   UNL     1      -9.864   9.361  66.276  1.00  0.00    -0.281 C  
BRANCH  16  17
HETATM   17  C   UNL     1     -10.328  10.570  65.417  1.00  0.00    -0.222 C  
HETATM   18  H   UNL     1     -10.139  11.101  63.550  1.00  0.00     0.000 HD 
HETATM   19  O   UNL     1      -9.856  10.361  64.075  1.00  0.00    -0.313 OA 
BRANCH  17  20
HETATM   20  C   UNL     1      -9.866  11.950  65.928  1.00  0.00    -0.261 A  
HETATM   21  C   UNL     1     -10.413  13.167  65.452  1.00  0.00    -0.307 A  
HETATM   22  C   UNL     1     -11.594  13.225  64.579  1.00  0.00    -0.407 C  
HETATM   23  C   UNL     1     -12.050  14.386  64.091  1.00  0.00    -0.405 C  
HETATM   24  C   UNL     1     -11.356  15.667  64.389  1.00  0.00    -0.263 C  
HETATM   25  N   UNL     1     -10.300  15.608  65.252  1.00  0.00    -0.386 N  
HETATM   26  O   UNL     1     -11.731  16.714  63.888  1.00  0.00    -1.153 OA 
HETATM   27  H   UNL     1      -9.832  16.480  65.500  1.00  0.00     0.000 HD 
HETATM   28  C   UNL     1      -9.821  14.410  65.821  1.00  0.00    -0.302 A  
HETATM   29  C   UNL     1      -8.739  14.445  66.706  1.00  0.00    -0.159 A  
HETATM   30  C   UNL     1      -8.237  13.264  67.229  1.00  0.00    -0.164 A  
HETATM   31  O   UNL     1      -8.137  15.604  67.112  1.00  0.00    -0.176 OA 
HETATM   32  C   UNL     1      -8.796  12.036  66.852  1.00  0.00    -0.197 A  
HETATM   33  H   UNL     1      -7.401  15.628  67.713  1.00  0.00     0.000 HD 
ENDBRANCH  17  20
ENDBRANCH  16  17
ENDBRANCH  14  16
ENDBRANCH  10  14
ENDBRANCH   2   3
TORSDOF 6
ENDMDL
MODEL      164
REMARK 921   NORMALIZED FREE ENERGY PREDICTED BY IDOCK:   -5.19 KCAL/MOL
REMARK 922        TOTAL FREE ENERGY PREDICTED BY IDOCK:   -8.28 KCAL/MOL
REMARK 923 INTER-LIGAND FREE ENERGY PREDICTED BY IDOCK:   -8.59 KCAL/MOL
REMARK 924 INTRA-LIGAND FREE ENERGY PREDICTED BY IDOCK:    0.31 KCAL/MOL
REMARK 927      BINDING AFFINITY PREDICTED BY RF-SCORE:    0.00 PKD
ROOT
HETATM    1  C   UNL     1     -10.526  19.012  67.348  1.00  0.00    -0.539 C  
HETATM    2  C   UNL     1      -9.598  17.811  67.277  1.00  0.00    -0.272 C  
ENDROOT
BRANCH   2   3
HETATM    3  C   UNL     1     -10.188  16.452  66.950  1.00  0.00    -0.290 A  
HETATM    4  C   UNL     1     -11.035  15.856  67.929  1.00  0.00    -0.327 A  
HETATM    5  C   UNL     1     -11.902  14.830  67.550  1.00  0.00    -0.326 A  
HETATM    6  C   UNL     1      -9.869  15.701  65.800  1.00  0.00    -0.386 A  
HETATM    7  C   UNL     1     -10.516  14.482  65.624  1.00  0.00    -0.351 A  
HETATM    8  C   UNL     1     -11.674  14.194  66.349  1.00  0.00    -0.404 A  
HETATM    9  C   UNL     1     -12.150  12.811  66.037  1.00  0.00    -0.458 C  
HETATM   10  C   UNL     1     -10.754  12.168  66.088  1.00  0.00    -0.272 C  
HETATM   11  C   UNL     1      -9.970  13.143  65.094  1.00  0.00    -0.170 C  
BRANCH   4  12
HETATM   12  C   UNL     1     -10.812  16.174  69.399  1.00  0.00    -0.320 C  
HETATM   13  C   UNL     1     -11.238  15.105  70.405  1.00  0.00    -0.310 C  
ENDBRANCH   4  12
BRANCH  10  14
HETATM   14  N   UNL     1     -10.757  10.692  66.025  1.00  0.00    -0.118 NA 
HETATM   15  H   UNL     1     -10.089  10.333  65.344  1.00  0.00     0.000 HD 
BRANCH  14  16
HETATM   16  C   UNL     1     -10.522  10.131  67.408  1.00  0.00    -0.256 C  
BRANCH  16  17
HETATM   17  C   UNL     1     -11.093  10.955  68.595  1.00  0.00    -0.252 C  
HETATM   18  H   UNL     1     -10.639  12.644  69.458  1.00  0.00     0.000 HD 
HETATM   19  O   UNL     1     -10.290  12.140  68.732  1.00  0.00    -0.215 OA 
BRANCH  17  20
HETATM   20  C   UNL     1     -11.158  10.205  69.941  1.00  0.00    -0.346 A  
HETATM   21  C   UNL     1     -10.015   9.655  70.569  1.00  0.00    -0.318 A  
HETATM   22  C   UNL     1      -8.645   9.910  70.102  1.00  0.00    -0.141 C  
HETATM   23  C   UNL     1      -7.587   9.324  70.676  1.00  0.00    -0.161 C  
HETATM   24  C   UNL     1      -7.758   8.360  71.794  1.00  0.00    -0.116 C  
HETATM   25  N   UNL     1      -9.028   8.179  72.261  1.00  0.00    -0.168 N  
HETATM   26  O   UNL     1      -6.800   7.773  72.269  1.00  0.00    -0.055 OA 
HETATM   27  H   UNL     1      -9.165   7.550  73.052  1.00  0.00     0.000 HD 
HETATM   28  C   UNL     1     -10.161   8.815  71.712  1.00  0.00    -0.338 A  
HETATM   29  C   UNL     1     -11.424   8.581  72.262  1.00  0.00    -0.375 A  
HETATM   30  C   UNL     1     -12.544   9.167  71.695  1.00  0.00    -0.433 A  
HETATM   31  O   UNL     1     -11.631   7.799  73.366  1.00  0.00    -0.623 OA 
HETATM   32  C   UNL     1     -12.413   9.973  70.556  1.00  0.00    -0.254 A  
HETATM   33  H   UNL     1     -12.490   7.639  73.740  1.00  0.00     0.000 HD 
ENDBRANCH  17  20
ENDBRANCH  16  17
ENDBRANCH  14  16
ENDBRANCH  10  14
ENDBRANCH   2   3
TORSDOF 6
ENDMDL
MODEL      165
REMARK 921   NORMALIZED FREE ENERGY PREDICTED BY IDOCK:   -5.18 KCAL/MOL
REMARK 922        TOTAL FREE ENERGY PREDICTED BY IDOCK:   -8.28 KCAL/MOL
REMARK 923 INTER-LIGAND FREE ENERGY PREDICTED BY IDOCK:   -7.48 KCAL/MOL
REMARK 924 INTRA-LIGAND FREE ENERGY PREDICTED BY IDOCK:   -0.79 KCAL/MOL
REMARK 927      BINDING AFFINITY PREDICTED BY RF-SCORE:    0.00 PKD
ROOT
HETATM    1  C   UNL     1     -11.002   4.491  73.652  1.00  0.00    -0.382 C  
HETATM    2  C   UNL     1      -9.646   4.824  73.051  1.00  0.00    -0.153 C  
ENDROOT
BRANCH   2   3
HETATM    3  C   UNL     1      -9.586   5.771  71.868  1.00  0.00    -0.172 A  
HETATM    4  C   UNL     1      -9.141   7.102  72.120  1.00  0.00    -0.143 A  
HETATM    5  C   UNL     1      -8.695   7.886  71.056  1.00  0.00    -0.138 A  
HETATM    6  C   UNL     1     -10.040   5.456  70.571  1.00  0.00    -0.306 A  
HETATM    7  C   UNL     1      -9.891   6.422  69.580  1.00  0.00    -0.182 A  
HETATM    8  C   UNL     1      -9.016   7.493  69.775  1.00  0.00    -0.141 A  
HETATM    9  C   UNL     1      -9.072   8.425  68.607  1.00  0.00    -0.140 C  
HETATM   10  C   UNL     1     -10.604   8.398  68.480  1.00  0.00    -0.106 C  
HETATM   11  C   UNL     1     -10.845   6.820  68.438  1.00  0.00    -0.284 C  
BRANCH   4  12
HETATM   12  C   UNL     1      -9.384   7.722  73.487  1.00  0.00    -0.351 C  
HETATM   13  C   UNL     1      -8.146   8.136  74.283  1.00  0.00    -0.309 C  
ENDBRANCH   4  12
BRANCH  10  14
HETATM   14  N   UNL     1     -11.156   9.381  67.525  1.00  0.00    -0.415 NA 
HETATM   15  H   UNL     1     -12.082   9.708  67.798  1.00  0.00     0.000 HD 
BRANCH  14  16
HETATM   16  C   UNL     1     -10.176  10.519  67.354  1.00  0.00    -0.211 C  
BRANCH  16  17
HETATM   17  C   UNL     1     -10.777  11.892  66.945  1.00  0.00    -0.246 C  
HETATM   18  H   UNL     1     -11.058  12.840  65.264  1.00  0.00     0.000 HD 
HETATM   19  O   UNL     1     -10.691  12.000  65.514  1.00  0.00    -0.259 OA 
BRANCH  17  20
HETATM   20  C   UNL     1     -10.115  13.119  67.606  1.00  0.00    -0.221 A  
HETATM   21  C   UNL     1     -10.686  13.799  68.709  1.00  0.00    -0.267 A  
HETATM   22  C   UNL     1     -11.852  13.289  69.445  1.00  0.00    -0.386 C  
HETATM   23  C   UNL     1     -12.411  13.986  70.443  1.00  0.00    -0.429 C  
HETATM   24  C   UNL     1     -11.892  15.325  70.827  1.00  0.00    -0.338 C  
HETATM   25  N   UNL     1     -10.770  15.759  70.180  1.00  0.00    -0.331 N  
HETATM   26  O   UNL     1     -12.444  15.988  71.689  1.00  0.00    -0.461 OA 
HETATM   27  H   UNL     1     -10.375  16.658  70.453  1.00  0.00     0.000 HD 
HETATM   28  C   UNL     1     -10.128  15.032  69.156  1.00  0.00    -0.245 A  
HETATM   29  C   UNL     1      -8.976  15.547  68.556  1.00  0.00    -0.191 A  
HETATM   30  C   UNL     1      -8.370  14.857  67.518  1.00  0.00    -0.195 A  
HETATM   31  O   UNL     1      -8.382  16.716  68.948  1.00  0.00    -0.238 OA 
HETATM   32  C   UNL     1      -8.927  13.658  67.054  1.00  0.00    -0.244 A  
HETATM   33  H   UNL     1      -7.599  17.067  68.540  1.00  0.00     0.000 HD 
ENDBRANCH  17  20
ENDBRANCH  16  17
ENDBRANCH  14  16
ENDBRANCH  10  14
ENDBRANCH   2   3
TORSDOF 6
ENDMDL
MODEL      166
REMARK 921   NORMALIZED FREE ENERGY PREDICTED BY IDOCK:   -5.18 KCAL/MOL
REMARK 922        TOTAL FREE ENERGY PREDICTED BY IDOCK:   -8.27 KCAL/MOL
REMARK 923 INTER-LIGAND FREE ENERGY PREDICTED BY IDOCK:   -8.06 KCAL/MOL
REMARK 924 INTRA-LIGAND FREE ENERGY PREDICTED BY IDOCK:   -0.21 KCAL/MOL
REMARK 927      BINDING AFFINITY PREDICTED BY RF-SCORE:    0.00 PKD
ROOT
HETATM    1  C   UNL     1     -10.027   3.843  65.548  1.00  0.00    -0.122 C  
HETATM    2  C   UNL     1     -10.539   5.137  66.159  1.00  0.00    -0.293 C  
ENDROOT
BRANCH   2   3
HETATM    3  C   UNL     1      -9.548   6.064  66.837  1.00  0.00    -0.158 A  
HETATM    4  C   UNL     1      -9.694   6.258  68.242  1.00  0.00    -0.122 A  
HETATM    5  C   UNL     1      -8.620   6.762  68.977  1.00  0.00    -0.131 A  
HETATM    6  C   UNL     1      -8.573   6.822  66.158  1.00  0.00    -0.146 A  
HETATM    7  C   UNL     1      -7.715   7.607  66.923  1.00  0.00    -0.103 A  
HETATM    8  C   UNL     1      -7.591   7.374  68.295  1.00  0.00    -0.114 A  
HETATM    9  C   UNL     1      -6.665   8.375  68.908  1.00  0.00    -0.053 C  
HETATM   10  C   UNL     1      -7.241   9.582  68.148  1.00  0.00    -0.080 C  
HETATM   11  C   UNL     1      -7.167   9.021  66.654  1.00  0.00    -0.085 C  
BRANCH   4  12
HETATM   12  C   UNL     1     -11.074   6.147  68.871  1.00  0.00    -0.417 C  
HETATM   13  C   UNL     1     -11.259   6.796  70.242  1.00  0.00    -0.385 C  
ENDBRANCH   4  12
BRANCH  10  14
HETATM   14  N   UNL     1      -6.732  10.891  68.604  1.00  0.00    -0.057 NA 
HETATM   15  H   UNL     1      -5.714  10.934  68.596  1.00  0.00     0.000 HD 
BRANCH  14  16
HETATM   16  C   UNL     1      -7.356  11.989  67.773  1.00  0.00    -0.113 C  
BRANCH  16  17
HETATM   17  C   UNL     1      -8.906  12.087  67.812  1.00  0.00    -0.165 C  
HETATM   18  H   UNL     1     -10.359  10.913  68.373  1.00  0.00     0.000 HD 
HETATM   19  O   UNL     1      -9.411  10.853  68.350  1.00  0.00    -0.157 OA 
BRANCH  17  20
HETATM   20  C   UNL     1      -9.577  12.382  66.454  1.00  0.00    -0.249 A  
HETATM   21  C   UNL     1      -9.854  13.695  66.004  1.00  0.00    -0.290 A  
HETATM   22  C   UNL     1      -9.360  14.897  66.690  1.00  0.00    -0.291 C  
HETATM   23  C   UNL     1      -9.692  16.127  66.279  1.00  0.00    -0.332 C  
HETATM   24  C   UNL     1     -10.606  16.328  65.125  1.00  0.00    -0.304 C  
HETATM   25  N   UNL     1     -11.007  15.207  64.456  1.00  0.00    -0.658 N  
HETATM   26  O   UNL     1     -10.964  17.447  64.794  1.00  0.00    -0.964 OA 
HETATM   27  H   UNL     1     -11.605  15.324  63.638  1.00  0.00     0.000 HD 
HETATM   28  C   UNL     1     -10.641  13.899  64.832  1.00  0.00    -0.419 A  
HETATM   29  C   UNL     1     -11.088  12.808  64.081  1.00  0.00    -0.389 A  
HETATM   30  C   UNL     1     -10.768  11.520  64.476  1.00  0.00    -0.390 A  
HETATM   31  O   UNL     1     -11.832  12.936  62.939  1.00  0.00    -0.783 OA 
HETATM   32  C   UNL     1     -10.018  11.309  65.641  1.00  0.00    -0.292 A  
HETATM   33  H   UNL     1     -12.137  12.195  62.429  1.00  0.00     0.000 HD 
ENDBRANCH  17  20
ENDBRANCH  16  17
ENDBRANCH  14  16
ENDBRANCH  10  14
ENDBRANCH   2   3
TORSDOF 6
ENDMDL
MODEL      167
REMARK 921   NORMALIZED FREE ENERGY PREDICTED BY IDOCK:   -5.16 KCAL/MOL
REMARK 922        TOTAL FREE ENERGY PREDICTED BY IDOCK:   -8.25 KCAL/MOL
REMARK 923 INTER-LIGAND FREE ENERGY PREDICTED BY IDOCK:   -7.45 KCAL/MOL
REMARK 924 INTRA-LIGAND FREE ENERGY PREDICTED BY IDOCK:   -0.81 KCAL/MOL
REMARK 927      BINDING AFFINITY PREDICTED BY RF-SCORE:    0.00 PKD
ROOT
HETATM    1  C   UNL     1     -10.779  18.675  67.501  1.00  0.00    -0.447 C  
HETATM    2  C   UNL     1     -10.036  17.892  66.431  1.00  0.00    -0.358 C  
ENDROOT
BRANCH   2   3
HETATM    3  C   UNL     1     -10.482  16.475  66.123  1.00  0.00    -0.301 A  
HETATM    4  C   UNL     1     -10.044  15.447  67.008  1.00  0.00    -0.249 A  
HETATM    5  C   UNL     1     -10.716  14.223  67.019  1.00  0.00    -0.290 A  
HETATM    6  C   UNL     1     -11.202  16.099  64.970  1.00  0.00    -0.225 A  
HETATM    7  C   UNL     1     -11.566  14.762  64.842  1.00  0.00    -0.401 A  
HETATM    8  C   UNL     1     -11.539  13.921  65.956  1.00  0.00    -0.359 A  
HETATM    9  C   UNL     1     -11.909  12.527  65.561  1.00  0.00    -0.491 C  
HETATM   10  C   UNL     1     -11.059  12.515  64.280  1.00  0.00    -0.356 C  
HETATM   11  C   UNL     1     -11.582  13.859  63.595  1.00  0.00     0.114 C  
BRANCH   4  12
HETATM   12  C   UNL     1      -8.722  15.608  67.742  1.00  0.00    -0.173 C  
HETATM   13  C   UNL     1      -7.580  14.688  67.310  1.00  0.00    -0.173 C  
ENDBRANCH   4  12
BRANCH  10  14
HETATM   14  N   UNL     1     -10.960  11.194  63.624  1.00  0.00    -0.570 NA 
HETATM   15  H   UNL     1     -10.504  11.248  62.714  1.00  0.00     0.000 HD 
BRANCH  14  16
HETATM   16  C   UNL     1     -10.268  10.224  64.553  1.00  0.00    -0.091 C  
BRANCH  16  17
HETATM   17  C   UNL     1      -8.923  10.698  65.171  1.00  0.00    -0.198 C  
HETATM   18  H   UNL     1      -7.035  10.409  64.776  1.00  0.00     0.000 HD 
HETATM   19  O   UNL     1      -7.857  10.118  64.399  1.00  0.00    -0.143 OA 
BRANCH  17  20
HETATM   20  C   UNL     1      -8.734  10.362  66.664  1.00  0.00    -0.141 A  
HETATM   21  C   UNL     1      -9.326   9.232  67.277  1.00  0.00    -0.161 A  
HETATM   22  C   UNL     1     -10.010   8.176  66.517  1.00  0.00    -0.302 C  
HETATM   23  C   UNL     1     -10.618   7.152  67.128  1.00  0.00    -0.417 C  
HETATM   24  C   UNL     1     -10.654   7.057  68.611  1.00  0.00    -0.210 C  
HETATM   25  N   UNL     1      -9.961   8.007  69.305  1.00  0.00    -0.186 N  
HETATM   26  O   UNL     1     -11.267   6.162  69.169  1.00  0.00    -0.386 OA 
HETATM   27  H   UNL     1      -9.940   7.941  70.323  1.00  0.00     0.000 HD 
HETATM   28  C   UNL     1      -9.271   9.075  68.693  1.00  0.00    -0.136 A  
HETATM   29  C   UNL     1      -8.577   9.996  69.481  1.00  0.00    -0.186 A  
HETATM   30  C   UNL     1      -7.937  11.071  68.885  1.00  0.00    -0.138 A  
HETATM   31  O   UNL     1      -8.472   9.894  70.842  1.00  0.00    -0.350 OA 
HETATM   32  C   UNL     1      -8.008  11.248  67.498  1.00  0.00    -0.124 A  
HETATM   33  H   UNL     1      -8.000  10.521  71.378  1.00  0.00     0.000 HD 
ENDBRANCH  17  20
ENDBRANCH  16  17
ENDBRANCH  14  16
ENDBRANCH  10  14
ENDBRANCH   2   3
TORSDOF 6
ENDMDL
MODEL      168
REMARK 921   NORMALIZED FREE ENERGY PREDICTED BY IDOCK:   -5.16 KCAL/MOL
REMARK 922        TOTAL FREE ENERGY PREDICTED BY IDOCK:   -8.25 KCAL/MOL
REMARK 923 INTER-LIGAND FREE ENERGY PREDICTED BY IDOCK:   -6.55 KCAL/MOL
REMARK 924 INTRA-LIGAND FREE ENERGY PREDICTED BY IDOCK:   -1.69 KCAL/MOL
REMARK 927      BINDING AFFINITY PREDICTED BY RF-SCORE:    0.00 PKD
ROOT
HETATM    1  C   UNL     1      -7.210   8.834  70.844  1.00  0.00    -0.083 C  
HETATM    2  C   UNL     1      -6.842  10.098  70.085  1.00  0.00    -0.146 C  
ENDROOT
BRANCH   2   3
HETATM    3  C   UNL     1      -7.641  10.464  68.847  1.00  0.00    -0.103 A  
HETATM    4  C   UNL     1      -7.416  11.753  68.284  1.00  0.00    -0.103 A  
HETATM    5  C   UNL     1      -7.802  12.000  66.966  1.00  0.00    -0.138 A  
HETATM    6  C   UNL     1      -8.657   9.662  68.289  1.00  0.00    -0.119 A  
HETATM    7  C   UNL     1      -9.281  10.119  67.133  1.00  0.00    -0.157 A  
HETATM    8  C   UNL     1      -8.687  11.127  66.370  1.00  0.00    -0.177 A  
HETATM    9  C   UNL     1      -9.567  11.491  65.217  1.00  0.00    -0.244 C  
HETATM   10  C   UNL     1     -10.870  11.493  66.033  1.00  0.00    -0.276 C  
HETATM   11  C   UNL     1     -10.763  10.055  66.719  1.00  0.00    -0.172 C  
BRANCH   4  12
HETATM   12  C   UNL     1      -6.987  12.897  69.189  1.00  0.00    -0.015 C  
HETATM   13  C   UNL     1      -5.597  13.484  68.943  1.00  0.00    -0.074 C  
ENDBRANCH   4  12
BRANCH  10  14
HETATM   14  N   UNL     1     -12.045  12.017  65.306  1.00  0.00    -0.392 NA 
HETATM   15  H   UNL     1     -12.772  11.312  65.188  1.00  0.00     0.000 HD 
BRANCH  14  16
HETATM   16  C   UNL     1     -12.558  13.255  66.006  1.00  0.00    -0.210 C  
BRANCH  16  17
HETATM   17  C   UNL     1     -11.810  14.581  65.699  1.00  0.00    -0.326 C  
HETATM   18  H   UNL     1     -10.841  15.308  64.170  1.00  0.00     0.000 HD 
HETATM   19  O   UNL     1     -11.299  14.496  64.357  1.00  0.00    -0.327 OA 
BRANCH  17  20
HETATM   20  C   UNL     1     -10.668  14.930  66.675  1.00  0.00    -0.312 A  
HETATM   21  C   UNL     1     -10.827  14.908  68.082  1.00  0.00    -0.256 A  
HETATM   22  C   UNL     1     -12.024  14.370  68.742  1.00  0.00    -0.331 C  
HETATM   23  C   UNL     1     -12.176  14.422  70.072  1.00  0.00    -0.408 C  
HETATM   24  C   UNL     1     -11.148  15.060  70.936  1.00  0.00    -0.183 C  
HETATM   25  N   UNL     1     -10.011  15.498  70.318  1.00  0.00    -0.335 N  
HETATM   26  O   UNL     1     -11.318  15.169  72.139  1.00  0.00    -0.419 OA 
HETATM   27  H   UNL     1      -9.276  15.905  70.896  1.00  0.00     0.000 HD 
HETATM   28  C   UNL     1      -9.797  15.418  68.926  1.00  0.00    -0.216 A  
HETATM   29  C   UNL     1      -8.598  15.881  68.380  1.00  0.00    -0.178 A  
HETATM   30  C   UNL     1      -8.404  15.846  67.008  1.00  0.00    -0.255 A  
HETATM   31  O   UNL     1      -7.565  16.366  69.135  1.00  0.00    -0.228 OA 
HETATM   32  C   UNL     1      -9.420  15.371  66.169  1.00  0.00    -0.371 A  
HETATM   33  H   UNL     1      -6.749  16.682  68.764  1.00  0.00     0.000 HD 
ENDBRANCH  17  20
ENDBRANCH  16  17
ENDBRANCH  14  16
ENDBRANCH  10  14
ENDBRANCH   2   3
TORSDOF 6
ENDMDL
MODEL      169
REMARK 921   NORMALIZED FREE ENERGY PREDICTED BY IDOCK:   -5.12 KCAL/MOL
REMARK 922        TOTAL FREE ENERGY PREDICTED BY IDOCK:   -8.20 KCAL/MOL
REMARK 923 INTER-LIGAND FREE ENERGY PREDICTED BY IDOCK:   -8.23 KCAL/MOL
REMARK 924 INTRA-LIGAND FREE ENERGY PREDICTED BY IDOCK:    0.03 KCAL/MOL
REMARK 927      BINDING AFFINITY PREDICTED BY RF-SCORE:    0.00 PKD
ROOT
HETATM    1  C   UNL     1     -10.273  20.166  66.092  1.00  0.00    -0.518 C  
HETATM    2  C   UNL     1      -9.997  19.596  67.473  1.00  0.00    -0.513 C  
ENDROOT
BRANCH   2   3
HETATM    3  C   UNL     1      -9.858  18.093  67.627  1.00  0.00    -0.316 A  
HETATM    4  C   UNL     1      -8.777  17.615  68.423  1.00  0.00    -0.284 A  
HETATM    5  C   UNL     1      -8.818  16.312  68.920  1.00  0.00    -0.253 A  
HETATM    6  C   UNL     1     -10.656  17.146  66.951  1.00  0.00    -0.209 A  
HETATM    7  C   UNL     1     -10.428  15.800  67.218  1.00  0.00    -0.308 A  
HETATM    8  C   UNL     1      -9.707  15.425  68.354  1.00  0.00    -0.211 A  
HETATM    9  C   UNL     1      -9.541  13.939  68.394  1.00  0.00    -0.215 C  
HETATM   10  C   UNL     1      -9.197  13.797  66.902  1.00  0.00    -0.255 C  
HETATM   11  C   UNL     1     -10.428  14.590  66.264  1.00  0.00    -0.303 C  
BRANCH   4  12
HETATM   12  C   UNL     1      -7.501  18.437  68.517  1.00  0.00    -0.309 C  
HETATM   13  C   UNL     1      -6.367  18.056  67.565  1.00  0.00    -0.181 C  
ENDBRANCH   4  12
BRANCH  10  14
HETATM   14  N   UNL     1      -8.741  12.449  66.506  1.00  0.00    -0.391 NA 
HETATM   15  H   UNL     1      -7.864  12.190  66.956  1.00  0.00     0.000 HD 
BRANCH  14  16
HETATM   16  C   UNL     1      -9.840  11.448  66.777  1.00  0.00    -0.206 C  
BRANCH  16  17
HETATM   17  C   UNL     1      -9.417   9.954  66.827  1.00  0.00    -0.169 C  
HETATM   18  H   UNL     1      -9.472   8.452  65.584  1.00  0.00     0.000 HD 
HETATM   19  O   UNL     1      -9.731   9.366  65.553  1.00  0.00    -0.284 OA 
BRANCH  17  20
HETATM   20  C   UNL     1     -10.060   9.129  67.960  1.00  0.00    -0.238 A  
HETATM   21  C   UNL     1     -10.904   9.701  68.942  1.00  0.00    -0.201 A  
HETATM   22  C   UNL     1     -11.399  11.083  68.864  1.00  0.00    -0.346 C  
HETATM   23  C   UNL     1     -12.143  11.618  69.841  1.00  0.00    -0.373 C  
HETATM   24  C   UNL     1     -12.473  10.843  71.065  1.00  0.00    -0.411 C  
HETATM   25  N   UNL     1     -12.063   9.541  71.098  1.00  0.00    -0.327 N  
HETATM   26  O   UNL     1     -13.091  11.354  71.984  1.00  0.00    -0.487 OA 
HETATM   27  H   UNL     1     -12.310   8.979  71.912  1.00  0.00     0.000 HD 
HETATM   28  C   UNL     1     -11.317   8.930  70.068  1.00  0.00    -0.040 A  
HETATM   29  C   UNL     1     -10.950   7.586  70.180  1.00  0.00    -0.254 A  
HETATM   30  C   UNL     1     -10.178   6.997  69.191  1.00  0.00    -0.193 A  
HETATM   31  O   UNL     1     -11.327   6.787  71.225  1.00  0.00    -0.262 OA 
HETATM   32  C   UNL     1      -9.746   7.754  68.095  1.00  0.00    -0.171 A  
HETATM   33  H   UNL     1     -11.076   5.874  71.301  1.00  0.00     0.000 HD 
ENDBRANCH  17  20
ENDBRANCH  16  17
ENDBRANCH  14  16
ENDBRANCH  10  14
ENDBRANCH   2   3
TORSDOF 6
ENDMDL
MODEL      170
REMARK 921   NORMALIZED FREE ENERGY PREDICTED BY IDOCK:   -5.12 KCAL/MOL
REMARK 922        TOTAL FREE ENERGY PREDICTED BY IDOCK:   -8.19 KCAL/MOL
REMARK 923 INTER-LIGAND FREE ENERGY PREDICTED BY IDOCK:   -7.99 KCAL/MOL
REMARK 924 INTRA-LIGAND FREE ENERGY PREDICTED BY IDOCK:   -0.19 KCAL/MOL
REMARK 927      BINDING AFFINITY PREDICTED BY RF-SCORE:    0.00 PKD
ROOT
HETATM    1  C   UNL     1     -10.745   3.342  73.220  1.00  0.00    -0.288 C  
HETATM    2  C   UNL     1     -11.121   4.751  73.647  1.00  0.00    -0.380 C  
ENDROOT
BRANCH   2   3
HETATM    3  C   UNL     1     -11.026   5.870  72.627  1.00  0.00    -0.305 A  
HETATM    4  C   UNL     1      -9.726   6.212  72.154  1.00  0.00    -0.168 A  
HETATM    5  C   UNL     1      -9.599   6.931  70.964  1.00  0.00    -0.172 A  
HETATM    6  C   UNL     1     -12.116   6.659  72.205  1.00  0.00    -0.299 A  
HETATM    7  C   UNL     1     -11.876   7.631  71.239  1.00  0.00    -0.316 A  
HETATM    8  C   UNL     1     -10.710   7.582  70.473  1.00  0.00    -0.244 A  
HETATM    9  C   UNL     1     -10.645   8.758  69.551  1.00  0.00    -0.224 C  
HETATM   10  C   UNL     1     -11.108   9.782  70.601  1.00  0.00    -0.332 C  
HETATM   11  C   UNL     1     -12.436   9.060  71.117  1.00  0.00    -0.285 C  
BRANCH   4  12
HETATM   12  C   UNL     1      -8.524   6.003  73.060  1.00  0.00    -0.119 C  
HETATM   13  C   UNL     1      -8.164   7.154  74.000  1.00  0.00    -0.163 C  
ENDBRANCH   4  12
BRANCH  10  14
HETATM   14  N   UNL     1     -11.005  11.191  70.168  1.00  0.00    -0.454 NA 
HETATM   15  H   UNL     1     -10.075  11.419  69.817  1.00  0.00     0.000 HD 
BRANCH  14  16
HETATM   16  C   UNL     1     -12.086  11.484  69.154  1.00  0.00    -0.263 C  
BRANCH  16  17
HETATM   17  C   UNL     1     -11.701  12.438  67.989  1.00  0.00    -0.356 C  
HETATM   18  H   UNL     1     -11.982  12.457  66.059  1.00  0.00     0.000 HD 
HETATM   19  O   UNL     1     -12.218  11.874  66.771  1.00  0.00    -0.489 OA 
BRANCH  17  20
HETATM   20  C   UNL     1     -10.191  12.713  67.841  1.00  0.00    -0.220 A  
HETATM   21  C   UNL     1      -9.677  13.951  67.386  1.00  0.00    -0.234 A  
HETATM   22  C   UNL     1     -10.515  15.143  67.197  1.00  0.00    -0.280 C  
HETATM   23  C   UNL     1     -10.014  16.283  66.702  1.00  0.00    -0.274 C  
HETATM   24  C   UNL     1      -8.589  16.378  66.291  1.00  0.00    -0.340 C  
HETATM   25  N   UNL     1      -7.805  15.285  66.530  1.00  0.00    -0.221 N  
HETATM   26  O   UNL     1      -8.150  17.393  65.776  1.00  0.00    -0.543 OA 
HETATM   27  H   UNL     1      -6.815  15.340  66.290  1.00  0.00     0.000 HD 
HETATM   28  C   UNL     1      -8.288  14.085  67.092  1.00  0.00    -0.156 A  
HETATM   29  C   UNL     1      -7.411  13.019  67.313  1.00  0.00    -0.074 A  
HETATM   30  C   UNL     1      -7.892  11.823  67.821  1.00  0.00    -0.135 A  
HETATM   31  O   UNL     1      -6.067  13.088  67.068  1.00  0.00    -0.475 OA 
HETATM   32  C   UNL     1      -9.259  11.674  68.088  1.00  0.00    -0.184 A  
HETATM   33  H   UNL     1      -5.471  12.363  67.218  1.00  0.00     0.000 HD 
ENDBRANCH  17  20
ENDBRANCH  16  17
ENDBRANCH  14  16
ENDBRANCH  10  14
ENDBRANCH   2   3
TORSDOF 6
ENDMDL
MODEL      171
REMARK 921   NORMALIZED FREE ENERGY PREDICTED BY IDOCK:   -5.11 KCAL/MOL
REMARK 922        TOTAL FREE ENERGY PREDICTED BY IDOCK:   -8.19 KCAL/MOL
REMARK 923 INTER-LIGAND FREE ENERGY PREDICTED BY IDOCK:   -6.66 KCAL/MOL
REMARK 924 INTRA-LIGAND FREE ENERGY PREDICTED BY IDOCK:   -1.53 KCAL/MOL
REMARK 927      BINDING AFFINITY PREDICTED BY RF-SCORE:    0.00 PKD
ROOT
HETATM    1  C   UNL     1     -11.362  15.071  70.226  1.00  0.00    -0.300 C  
HETATM    2  C   UNL     1     -12.159  14.159  69.308  1.00  0.00    -0.364 C  
ENDROOT
BRANCH   2   3
HETATM    3  C   UNL     1     -11.466  12.958  68.694  1.00  0.00    -0.346 A  
HETATM    4  C   UNL     1     -11.252  12.978  67.285  1.00  0.00    -0.325 A  
HETATM    5  C   UNL     1     -10.301  12.123  66.725  1.00  0.00    -0.237 A  
HETATM    6  C   UNL     1     -11.122  11.788  69.402  1.00  0.00    -0.245 A  
HETATM    7  C   UNL     1     -10.462  10.781  68.706  1.00  0.00    -0.221 A  
HETATM    8  C   UNL     1      -9.854  11.061  67.480  1.00  0.00    -0.190 A  
HETATM    9  C   UNL     1      -9.266   9.815  66.898  1.00  0.00    -0.174 C  
HETATM   10  C   UNL     1     -10.471   8.921  67.234  1.00  0.00    -0.277 C  
HETATM   11  C   UNL     1     -10.628   9.252  68.789  1.00  0.00    -0.220 C  
BRANCH   4  12
HETATM   12  C   UNL     1     -12.219  13.743  66.395  1.00  0.00    -0.480 C  
HETATM   13  C   UNL     1     -12.634  13.066  65.089  1.00  0.00    -0.530 C  
ENDBRANCH   4  12
BRANCH  10  14
HETATM   14  N   UNL     1     -10.414   7.569  66.641  1.00  0.00    -0.511 NA 
HETATM   15  H   UNL     1     -11.084   7.452  65.882  1.00  0.00     0.000 HD 
BRANCH  14  16
HETATM   16  C   UNL     1      -8.998   7.273  66.203  1.00  0.00    -0.149 C  
BRANCH  16  17
HETATM   17  C   UNL     1      -8.201   6.267  67.079  1.00  0.00    -0.109 C  
HETATM   18  H   UNL     1      -7.687   4.392  66.921  1.00  0.00     0.000 HD 
HETATM   19  O   UNL     1      -8.174   5.007  66.385  1.00  0.00    -0.107 OA 
BRANCH  17  20
HETATM   20  C   UNL     1      -8.746   6.069  68.508  1.00  0.00    -0.110 A  
HETATM   21  C   UNL     1      -8.329   6.861  69.605  1.00  0.00    -0.133 A  
HETATM   22  C   UNL     1      -7.494   8.060  69.453  1.00  0.00    -0.096 C  
HETATM   23  C   UNL     1      -7.061   8.753  70.515  1.00  0.00    -0.050 C  
HETATM   24  C   UNL     1      -7.382   8.316  71.898  1.00  0.00    -0.096 C  
HETATM   25  N   UNL     1      -8.212   7.238  72.025  1.00  0.00    -0.102 N  
HETATM   26  O   UNL     1      -6.930   8.906  72.865  1.00  0.00    -0.327 OA 
HETATM   27  H   UNL     1      -8.476   6.942  72.965  1.00  0.00     0.000 HD 
HETATM   28  C   UNL     1      -8.724   6.512  70.930  1.00  0.00    -0.136 A  
HETATM   29  C   UNL     1      -9.577   5.428  71.153  1.00  0.00    -0.164 A  
HETATM   30  C   UNL     1     -10.044   4.685  70.080  1.00  0.00    -0.283 A  
HETATM   31  O   UNL     1     -10.006   5.051  72.396  1.00  0.00    -0.167 OA 
HETATM   32  C   UNL     1      -9.641   5.004  68.777  1.00  0.00    -0.209 A  
HETATM   33  H   UNL     1     -10.585   4.314  72.548  1.00  0.00     0.000 HD 
ENDBRANCH  17  20
ENDBRANCH  16  17
ENDBRANCH  14  16
ENDBRANCH  10  14
ENDBRANCH   2   3
TORSDOF 6
ENDMDL
MODEL      172
REMARK 921   NORMALIZED FREE ENERGY PREDICTED BY IDOCK:   -5.09 KCAL/MOL
REMARK 922        TOTAL FREE ENERGY PREDICTED BY IDOCK:   -8.16 KCAL/MOL
REMARK 923 INTER-LIGAND FREE ENERGY PREDICTED BY IDOCK:   -7.36 KCAL/MOL
REMARK 924 INTRA-LIGAND FREE ENERGY PREDICTED BY IDOCK:   -0.80 KCAL/MOL
REMARK 927      BINDING AFFINITY PREDICTED BY RF-SCORE:    0.00 PKD
ROOT
HETATM    1  C   UNL     1     -12.406  14.578  65.146  1.00  0.00    -0.324 C  
HETATM    2  C   UNL     1     -11.150  14.361  65.975  1.00  0.00    -0.324 C  
ENDROOT
BRANCH   2   3
HETATM    3  C   UNL     1     -11.171  13.308  67.067  1.00  0.00    -0.319 A  
HETATM    4  C   UNL     1     -10.712  12.003  66.723  1.00  0.00    -0.280 A  
HETATM    5  C   UNL     1     -10.339  11.120  67.737  1.00  0.00    -0.215 A  
HETATM    6  C   UNL     1     -11.711  13.506  68.354  1.00  0.00    -0.393 A  
HETATM    7  C   UNL     1     -11.630  12.451  69.258  1.00  0.00    -0.379 A  
HETATM    8  C   UNL     1     -10.745  11.396  69.025  1.00  0.00    -0.245 A  
HETATM    9  C   UNL     1     -10.881  10.360  70.095  1.00  0.00    -0.333 C  
HETATM   10  C   UNL     1     -12.418  10.387  70.121  1.00  0.00    -0.176 C  
HETATM   11  C   UNL     1     -12.659  11.957  70.293  1.00  0.00    -0.091 C  
BRANCH   4  12
HETATM   12  C   UNL     1     -10.863  11.513  65.291  1.00  0.00    -0.319 C  
HETATM   13  C   UNL     1      -9.963  10.355  64.863  1.00  0.00    -0.409 C  
ENDBRANCH   4  12
BRANCH  10  14
HETATM   14  N   UNL     1     -13.034   9.325  70.942  1.00  0.00    -0.532 NA 
HETATM   15  H   UNL     1     -13.327   8.525  70.382  1.00  0.00     0.000 HD 
BRANCH  14  16
HETATM   16  C   UNL     1     -12.082   8.931  72.048  1.00  0.00    -0.371 C  
BRANCH  16  17
HETATM   17  C   UNL     1     -11.713   7.424  72.137  1.00  0.00    -0.290 C  
HETATM   18  H   UNL     1     -10.932   6.264  73.496  1.00  0.00     0.000 HD 
HETATM   19  O   UNL     1     -11.158   7.185  73.442  1.00  0.00    -0.289 OA 
BRANCH  17  20
HETATM   20  C   UNL     1     -10.738   6.925  71.051  1.00  0.00    -0.258 A  
HETATM   21  C   UNL     1      -9.366   7.273  71.033  1.00  0.00    -0.158 A  
HETATM   22  C   UNL     1      -8.705   7.977  72.141  1.00  0.00    -0.212 C  
HETATM   23  C   UNL     1      -7.421   8.352  72.068  1.00  0.00    -0.135 C  
HETATM   24  C   UNL     1      -6.617   8.099  70.844  1.00  0.00    -0.038 C  
HETATM   25  N   UNL     1      -7.222   7.388  69.847  1.00  0.00    -0.078 N  
HETATM   26  O   UNL     1      -5.470   8.502  70.751  1.00  0.00    -0.028 OA 
HETATM   27  H   UNL     1      -6.678   7.170  69.012  1.00  0.00     0.000 HD 
HETATM   28  C   UNL     1      -8.557   6.937  69.907  1.00  0.00    -0.141 A  
HETATM   29  C   UNL     1      -9.093   6.205  68.844  1.00  0.00    -0.123 A  
HETATM   30  C   UNL     1     -10.418   5.801  68.881  1.00  0.00    -0.326 A  
HETATM   31  O   UNL     1      -8.367   5.836  67.744  1.00  0.00    -0.105 OA 
HETATM   32  C   UNL     1     -11.226   6.149  69.971  1.00  0.00    -0.471 A  
HETATM   33  H   UNL     1      -8.731   5.339  67.021  1.00  0.00     0.000 HD 
ENDBRANCH  17  20
ENDBRANCH  16  17
ENDBRANCH  14  16
ENDBRANCH  10  14
ENDBRANCH   2   3
TORSDOF 6
ENDMDL
MODEL      173
REMARK 921   NORMALIZED FREE ENERGY PREDICTED BY IDOCK:   -5.08 KCAL/MOL
REMARK 922        TOTAL FREE ENERGY PREDICTED BY IDOCK:   -8.14 KCAL/MOL
REMARK 923 INTER-LIGAND FREE ENERGY PREDICTED BY IDOCK:   -7.86 KCAL/MOL
REMARK 924 INTRA-LIGAND FREE ENERGY PREDICTED BY IDOCK:   -0.28 KCAL/MOL
REMARK 927      BINDING AFFINITY PREDICTED BY RF-SCORE:    0.00 PKD
ROOT
HETATM    1  C   UNL     1      -7.522  20.447  66.329  1.00  0.00    -0.220 C  
HETATM    2  C   UNL     1      -7.485  19.805  67.706  1.00  0.00    -0.322 C  
ENDROOT
BRANCH   2   3
HETATM    3  C   UNL     1      -7.873  18.345  67.839  1.00  0.00    -0.267 A  
HETATM    4  C   UNL     1      -7.076  17.534  68.699  1.00  0.00    -0.243 A  
HETATM    5  C   UNL     1      -7.590  16.324  69.167  1.00  0.00    -0.227 A  
HETATM    6  C   UNL     1      -8.893  17.720  67.092  1.00  0.00    -0.251 A  
HETATM    7  C   UNL     1      -9.153  16.377  67.349  1.00  0.00    -0.206 A  
HETATM    8  C   UNL     1      -8.684  15.787  68.524  1.00  0.00    -0.184 A  
HETATM    9  C   UNL     1      -9.032  14.332  68.548  1.00  0.00    -0.185 C  
HETATM   10  C   UNL     1      -8.651  14.075  67.080  1.00  0.00    -0.205 C  
HETATM   11  C   UNL     1      -9.493  15.234  66.374  1.00  0.00    -0.326 C  
BRANCH   4  12
HETATM   12  C   UNL     1      -5.608  17.877  68.896  1.00  0.00    -0.185 C  
HETATM   13  C   UNL     1      -5.183  18.297  70.303  1.00  0.00    -0.245 C  
ENDBRANCH   4  12
BRANCH  10  14
HETATM   14  N   UNL     1      -8.649  12.650  66.690  1.00  0.00    -0.409 NA 
HETATM   15  H   UNL     1      -8.826  12.033  67.482  1.00  0.00     0.000 HD 
BRANCH  14  16
HETATM   16  C   UNL     1      -9.638  12.436  65.567  1.00  0.00    -0.063 C  
BRANCH  16  17
HETATM   17  C   UNL     1     -11.084  12.051  65.984  1.00  0.00    -0.320 C  
HETATM   18  H   UNL     1     -12.787  12.992  66.124  1.00  0.00     0.000 HD 
HETATM   19  O   UNL     1     -11.903  13.228  65.868  1.00  0.00    -0.355 OA 
BRANCH  17  20
HETATM   20  C   UNL     1     -11.220  11.454  67.400  1.00  0.00    -0.370 A  
HETATM   21  C   UNL     1     -11.617  12.222  68.522  1.00  0.00    -0.359 A  
HETATM   22  C   UNL     1     -12.120  13.598  68.411  1.00  0.00    -0.312 C  
HETATM   23  C   UNL     1     -12.427  14.323  69.495  1.00  0.00    -0.169 C  
HETATM   24  C   UNL     1     -12.239  13.773  70.862  1.00  0.00    -0.349 C  
HETATM   25  N   UNL     1     -11.832  12.472  70.952  1.00  0.00    -0.283 N  
HETATM   26  O   UNL     1     -12.452  14.457  71.849  1.00  0.00    -0.332 OA 
HETATM   27  H   UNL     1     -11.732  12.062  71.880  1.00  0.00     0.000 HD 
HETATM   28  C   UNL     1     -11.544  11.664  69.832  1.00  0.00    -0.288 A  
HETATM   29  C   UNL     1     -11.144  10.338  70.016  1.00  0.00    -0.311 A  
HETATM   30  C   UNL     1     -10.816   9.557  68.920  1.00  0.00    -0.177 A  
HETATM   31  O   UNL     1     -11.069   9.738  71.244  1.00  0.00    -0.355 OA 
HETATM   32  C   UNL     1     -10.860  10.104  67.631  1.00  0.00    -0.346 A  
HETATM   33  H   UNL     1     -10.797   8.837  71.370  1.00  0.00     0.000 HD 
ENDBRANCH  17  20
ENDBRANCH  16  17
ENDBRANCH  14  16
ENDBRANCH  10  14
ENDBRANCH   2   3
TORSDOF 6
ENDMDL
MODEL      174
REMARK 921   NORMALIZED FREE ENERGY PREDICTED BY IDOCK:   -5.07 KCAL/MOL
REMARK 922        TOTAL FREE ENERGY PREDICTED BY IDOCK:   -8.13 KCAL/MOL
REMARK 923 INTER-LIGAND FREE ENERGY PREDICTED BY IDOCK:   -7.31 KCAL/MOL
REMARK 924 INTRA-LIGAND FREE ENERGY PREDICTED BY IDOCK:   -0.82 KCAL/MOL
REMARK 927      BINDING AFFINITY PREDICTED BY RF-SCORE:    0.00 PKD
ROOT
HETATM    1  C   UNL     1     -10.431  19.881  65.962  1.00  0.00    -0.580 C  
HETATM    2  C   UNL     1     -10.312  19.292  67.359  1.00  0.00    -0.540 C  
ENDROOT
BRANCH   2   3
HETATM    3  C   UNL     1     -10.073  17.801  67.503  1.00  0.00    -0.340 A  
HETATM    4  C   UNL     1      -9.056  17.390  68.413  1.00  0.00    -0.274 A  
HETATM    5  C   UNL     1      -9.049  16.075  68.882  1.00  0.00    -0.235 A  
HETATM    6  C   UNL     1     -10.709  16.813  66.725  1.00  0.00    -0.117 A  
HETATM    7  C   UNL     1     -10.407  15.482  66.995  1.00  0.00    -0.279 A  
HETATM    8  C   UNL     1      -9.794  15.136  68.202  1.00  0.00    -0.218 A  
HETATM    9  C   UNL     1      -9.515  13.667  68.238  1.00  0.00    -0.213 C  
HETATM   10  C   UNL     1      -8.991  13.589  66.794  1.00  0.00    -0.176 C  
HETATM   11  C   UNL     1     -10.200  14.300  66.029  1.00  0.00    -0.327 C  
BRANCH   4  12
HETATM   12  C   UNL     1      -7.869  18.305  68.668  1.00  0.00    -0.313 C  
HETATM   13  C   UNL     1      -6.528  17.874  68.074  1.00  0.00    -0.186 C  
ENDBRANCH   4  12
BRANCH  10  14
HETATM   14  N   UNL     1      -8.386  12.291  66.432  1.00  0.00    -0.398 NA 
HETATM   15  H   UNL     1      -7.622  12.034  67.056  1.00  0.00     0.000 HD 
BRANCH  14  16
HETATM   16  C   UNL     1      -9.464  11.232  66.383  1.00  0.00    -0.200 C  
BRANCH  16  17
HETATM   17  C   UNL     1      -8.980   9.758  66.301  1.00  0.00    -0.153 C  
HETATM   18  H   UNL     1      -8.960   8.378  64.923  1.00  0.00     0.000 HD 
HETATM   19  O   UNL     1      -9.256   9.279  64.973  1.00  0.00    -0.235 OA 
BRANCH  17  20
HETATM   20  C   UNL     1      -9.602   8.806  67.342  1.00  0.00    -0.206 A  
HETATM   21  C   UNL     1      -9.215   8.800  68.704  1.00  0.00    -0.141 A  
HETATM   22  C   UNL     1      -8.333   9.820  69.289  1.00  0.00    -0.142 C  
HETATM   23  C   UNL     1      -7.931   9.752  70.565  1.00  0.00    -0.059 C  
HETATM   24  C   UNL     1      -8.336   8.619  71.437  1.00  0.00    -0.168 C  
HETATM   25  N   UNL     1      -9.206   7.712  70.902  1.00  0.00    -0.149 N  
HETATM   26  O   UNL     1      -7.913   8.521  72.577  1.00  0.00    -0.278 OA 
HETATM   27  H   UNL     1      -9.526   6.945  71.494  1.00  0.00     0.000 HD 
HETATM   28  C   UNL     1      -9.686   7.776  69.578  1.00  0.00    -0.165 A  
HETATM   29  C   UNL     1     -10.585   6.810  69.117  1.00  0.00    -0.232 A  
HETATM   30  C   UNL     1     -11.022   6.845  67.802  1.00  0.00    -0.280 A  
HETATM   31  O   UNL     1     -11.088   5.812  69.907  1.00  0.00    -0.360 OA 
HETATM   32  C   UNL     1     -10.544   7.831  66.930  1.00  0.00    -0.347 A  
HETATM   33  H   UNL     1     -11.698   5.156  69.594  1.00  0.00     0.000 HD 
ENDBRANCH  17  20
ENDBRANCH  16  17
ENDBRANCH  14  16
ENDBRANCH  10  14
ENDBRANCH   2   3
TORSDOF 6
ENDMDL
MODEL      175
REMARK 921   NORMALIZED FREE ENERGY PREDICTED BY IDOCK:   -5.07 KCAL/MOL
REMARK 922        TOTAL FREE ENERGY PREDICTED BY IDOCK:   -8.12 KCAL/MOL
REMARK 923 INTER-LIGAND FREE ENERGY PREDICTED BY IDOCK:   -7.66 KCAL/MOL
REMARK 924 INTRA-LIGAND FREE ENERGY PREDICTED BY IDOCK:   -0.46 KCAL/MOL
REMARK 927      BINDING AFFINITY PREDICTED BY RF-SCORE:    0.00 PKD
ROOT
HETATM    1  C   UNL     1      -5.731   4.769  66.471  1.00  0.00    -0.021 C  
HETATM    2  C   UNL     1      -6.787   5.860  66.393  1.00  0.00    -0.059 C  
ENDROOT
BRANCH   2   3
HETATM    3  C   UNL     1      -7.831   5.943  67.490  1.00  0.00    -0.098 A  
HETATM    4  C   UNL     1      -9.039   5.211  67.297  1.00  0.00    -0.113 A  
HETATM    5  C   UNL     1      -9.849   4.926  68.398  1.00  0.00    -0.200 A  
HETATM    6  C   UNL     1      -7.731   6.775  68.624  1.00  0.00    -0.113 A  
HETATM    7  C   UNL     1      -8.759   6.719  69.560  1.00  0.00    -0.133 A  
HETATM    8  C   UNL     1      -9.649   5.642  69.558  1.00  0.00    -0.192 A  
HETATM    9  C   UNL     1     -10.695   5.833  70.609  1.00  0.00    -0.351 C  
HETATM   10  C   UNL     1     -10.929   7.322  70.303  1.00  0.00    -0.260 C  
HETATM   11  C   UNL     1      -9.423   7.851  70.366  1.00  0.00    -0.163 C  
BRANCH   4  12
HETATM   12  C   UNL     1      -9.543   4.963  65.885  1.00  0.00    -0.185 C  
HETATM   13  C   UNL     1      -9.574   3.511  65.410  1.00  0.00    -0.132 C  
ENDBRANCH   4  12
BRANCH  10  14
HETATM   14  N   UNL     1     -12.082   7.917  71.009  1.00  0.00    -0.428 NA 
HETATM   15  H   UNL     1     -12.404   7.335  71.782  1.00  0.00     0.000 HD 
BRANCH  14  16
HETATM   16  C   UNL     1     -11.728   9.317  71.457  1.00  0.00    -0.380 C  
BRANCH  16  17
HETATM   17  C   UNL     1     -12.919  10.253  71.803  1.00  0.00    -0.469 C  
HETATM   18  H   UNL     1     -14.842  10.233  71.477  1.00  0.00     0.000 HD 
HETATM   19  O   UNL     1     -14.114   9.660  71.265  1.00  0.00    -0.117 OA 
BRANCH  17  20
HETATM   20  C   UNL     1     -12.779  11.704  71.298  1.00  0.00    -0.444 A  
HETATM   21  C   UNL     1     -12.183  12.030  70.056  1.00  0.00    -0.280 A  
HETATM   22  C   UNL     1     -11.821  11.019  69.053  1.00  0.00    -0.399 C  
HETATM   23  C   UNL     1     -11.199  11.350  67.914  1.00  0.00    -0.352 C  
HETATM   24  C   UNL     1     -10.818  12.759  67.632  1.00  0.00    -0.228 C  
HETATM   25  N   UNL     1     -11.216  13.698  68.540  1.00  0.00    -0.264 N  
HETATM   26  O   UNL     1     -10.190  13.050  66.628  1.00  0.00    -0.248 OA 
HETATM   27  H   UNL     1     -10.998  14.676  68.349  1.00  0.00     0.000 HD 
HETATM   28  C   UNL     1     -11.913  13.391  69.727  1.00  0.00    -0.330 A  
HETATM   29  C   UNL     1     -12.293  14.418  70.596  1.00  0.00    -0.351 A  
HETATM   30  C   UNL     1     -12.936  14.115  71.785  1.00  0.00    -0.427 A  
HETATM   31  O   UNL     1     -12.078  15.744  70.332  1.00  0.00    -0.378 OA 
HETATM   32  C   UNL     1     -13.182  12.779  72.128  1.00  0.00    -0.546 A  
HETATM   33  H   UNL     1     -12.335  16.442  70.923  1.00  0.00     0.000 HD 
ENDBRANCH  17  20
ENDBRANCH  16  17
ENDBRANCH  14  16
ENDBRANCH  10  14
ENDBRANCH   2   3
TORSDOF 6
ENDMDL
MODEL      176
REMARK 921   NORMALIZED FREE ENERGY PREDICTED BY IDOCK:   -5.06 KCAL/MOL
REMARK 922        TOTAL FREE ENERGY PREDICTED BY IDOCK:   -8.12 KCAL/MOL
REMARK 923 INTER-LIGAND FREE ENERGY PREDICTED BY IDOCK:   -7.27 KCAL/MOL
REMARK 924 INTRA-LIGAND FREE ENERGY PREDICTED BY IDOCK:   -0.85 KCAL/MOL
REMARK 927      BINDING AFFINITY PREDICTED BY RF-SCORE:    0.00 PKD
ROOT
HETATM    1  C   UNL     1     -11.379   5.181  73.311  1.00  0.00    -0.361 C  
HETATM    2  C   UNL     1     -11.092   6.673  73.317  1.00  0.00    -0.152 C  
ENDROOT
BRANCH   2   3
HETATM    3  C   UNL     1     -10.628   7.331  72.031  1.00  0.00    -0.236 A  
HETATM    4  C   UNL     1     -11.150   8.624  71.736  1.00  0.00    -0.396 A  
HETATM    5  C   UNL     1     -10.490   9.432  70.809  1.00  0.00    -0.372 A  
HETATM    6  C   UNL     1      -9.809   6.708  71.067  1.00  0.00    -0.196 A  
HETATM    7  C   UNL     1      -9.443   7.453  69.951  1.00  0.00    -0.153 A  
HETATM    8  C   UNL     1      -9.576   8.843  69.963  1.00  0.00    -0.190 A  
HETATM    9  C   UNL     1      -9.180   9.413  68.638  1.00  0.00    -0.131 C  
HETATM   10  C   UNL     1      -9.911   8.347  67.805  1.00  0.00    -0.186 C  
HETATM   11  C   UNL     1      -9.320   7.024  68.476  1.00  0.00    -0.135 C  
BRANCH   4  12
HETATM   12  C   UNL     1     -12.531   9.004  72.244  1.00  0.00    -0.427 C  
HETATM   13  C   UNL     1     -13.666   9.001  71.219  1.00  0.00    -0.246 C  
ENDBRANCH   4  12
BRANCH  10  14
HETATM   14  N   UNL     1      -9.959   8.632  66.355  1.00  0.00    -0.340 NA 
HETATM   15  H   UNL     1     -10.913   8.749  66.016  1.00  0.00     0.000 HD 
BRANCH  14  16
HETATM   16  C   UNL     1      -9.093   9.834  66.052  1.00  0.00    -0.162 C  
BRANCH  16  17
HETATM   17  C   UNL     1      -9.811  11.060  65.423  1.00  0.00    -0.251 C  
HETATM   18  H   UNL     1     -10.019  11.774  63.620  1.00  0.00     0.000 HD 
HETATM   19  O   UNL     1      -9.580  11.023  64.004  1.00  0.00    -0.234 OA 
BRANCH  17  20
HETATM   20  C   UNL     1      -9.383  12.429  65.990  1.00  0.00    -0.116 A  
HETATM   21  C   UNL     1      -9.958  13.650  65.563  1.00  0.00    -0.244 A  
HETATM   22  C   UNL     1     -11.140  13.716  64.692  1.00  0.00    -0.387 C  
HETATM   23  C   UNL     1     -11.623  14.884  64.251  1.00  0.00    -0.201 C  
HETATM   24  C   UNL     1     -10.961  16.168  64.600  1.00  0.00    -0.245 C  
HETATM   25  N   UNL     1      -9.904  16.100  65.462  1.00  0.00    -0.238 N  
HETATM   26  O   UNL     1     -11.360  17.226  64.142  1.00  0.00    -0.848 OA 
HETATM   27  H   UNL     1      -9.457  16.972  65.745  1.00  0.00     0.000 HD 
HETATM   28  C   UNL     1      -9.396  14.892  65.983  1.00  0.00    -0.241 A  
HETATM   29  C   UNL     1      -8.316  14.916  66.869  1.00  0.00    -0.177 A  
HETATM   30  C   UNL     1      -7.786  13.728  67.345  1.00  0.00    -0.158 A  
HETATM   31  O   UNL     1      -7.741  16.073  67.323  1.00  0.00    -0.148 OA 
HETATM   32  C   UNL     1      -8.315  12.503  66.918  1.00  0.00    -0.097 A  
HETATM   33  H   UNL     1      -7.007  16.090  67.925  1.00  0.00     0.000 HD 
ENDBRANCH  17  20
ENDBRANCH  16  17
ENDBRANCH  14  16
ENDBRANCH  10  14
ENDBRANCH   2   3
TORSDOF 6
ENDMDL
MODEL      177
REMARK 921   NORMALIZED FREE ENERGY PREDICTED BY IDOCK:   -5.06 KCAL/MOL
REMARK 922        TOTAL FREE ENERGY PREDICTED BY IDOCK:   -8.11 KCAL/MOL
REMARK 923 INTER-LIGAND FREE ENERGY PREDICTED BY IDOCK:   -7.28 KCAL/MOL
REMARK 924 INTRA-LIGAND FREE ENERGY PREDICTED BY IDOCK:   -0.84 KCAL/MOL
REMARK 927      BINDING AFFINITY PREDICTED BY RF-SCORE:    0.00 PKD
ROOT
HETATM    1  C   UNL     1     -12.245  13.531  63.778  1.00  0.00    -0.449 C  
HETATM    2  C   UNL     1     -10.883  12.956  64.130  1.00  0.00    -0.445 C  
ENDROOT
BRANCH   2   3
HETATM    3  C   UNL     1     -10.688  12.329  65.498  1.00  0.00    -0.314 A  
HETATM    4  C   UNL     1      -9.862  11.170  65.572  1.00  0.00    -0.281 A  
HETATM    5  C   UNL     1      -9.332  10.785  66.804  1.00  0.00    -0.182 A  
HETATM    6  C   UNL     1     -11.351  12.750  66.669  1.00  0.00    -0.364 A  
HETATM    7  C   UNL     1     -11.045  12.093  67.857  1.00  0.00    -0.295 A  
HETATM    8  C   UNL     1      -9.888  11.315  67.948  1.00  0.00    -0.187 A  
HETATM    9  C   UNL     1      -9.806  10.665  69.292  1.00  0.00    -0.201 C  
HETATM   10  C   UNL     1     -11.289  10.258  69.341  1.00  0.00    -0.221 C  
HETATM   11  C   UNL     1     -11.967  11.668  69.016  1.00  0.00    -0.368 C  
BRANCH   4  12
HETATM   12  C   UNL     1      -9.770  10.242  64.370  1.00  0.00    -0.381 C  
HETATM   13  C   UNL     1      -8.372   9.768  63.973  1.00  0.00    -0.169 C  
ENDBRANCH   4  12
BRANCH  10  14
HETATM   14  N   UNL     1     -11.643   9.370  70.467  1.00  0.00    -0.348 NA 
HETATM   15  H   UNL     1     -11.961   8.455  70.151  1.00  0.00     0.000 HD 
BRANCH  14  16
HETATM   16  C   UNL     1     -10.470   9.272  71.415  1.00  0.00    -0.338 C  
BRANCH  16  17
HETATM   17  C   UNL     1     -10.329   7.940  72.203  1.00  0.00    -0.237 C  
HETATM   18  H   UNL     1      -9.179   7.290  73.638  1.00  0.00     0.000 HD 
HETATM   19  O   UNL     1      -9.265   8.105  73.157  1.00  0.00    -0.261 OA 
BRANCH  17  20
HETATM   20  C   UNL     1     -10.068   6.691  71.336  1.00  0.00    -0.209 A  
HETATM   21  C   UNL     1     -10.254   5.372  71.815  1.00  0.00    -0.263 A  
HETATM   22  C   UNL     1     -10.890   5.072  73.105  1.00  0.00    -0.347 C  
HETATM   23  C   UNL     1     -10.994   3.817  73.562  1.00  0.00    -0.339 C  
HETATM   24  C   UNL     1     -10.436   2.674  72.793  1.00  0.00    -0.137 C  
HETATM   25  N   UNL     1      -9.905   2.957  71.568  1.00  0.00    -0.157 N  
HETATM   26  O   UNL     1     -10.468   1.540  73.242  1.00  0.00    -0.093 OA 
HETATM   27  H   UNL     1      -9.549   2.183  71.006  1.00  0.00     0.000 HD 
HETATM   28  C   UNL     1      -9.821   4.260  71.034  1.00  0.00    -0.181 A  
HETATM   29  C   UNL     1      -9.271   4.457  69.765  1.00  0.00    -0.131 A  
HETATM   30  C   UNL     1      -9.145   5.741  69.258  1.00  0.00    -0.128 A  
HETATM   31  O   UNL     1      -8.852   3.433  68.959  1.00  0.00    -0.087 OA 
HETATM   32  C   UNL     1      -9.544   6.841  70.028  1.00  0.00    -0.160 A  
HETATM   33  H   UNL     1      -8.478   3.567  68.096  1.00  0.00     0.000 HD 
ENDBRANCH  17  20
ENDBRANCH  16  17
ENDBRANCH  14  16
ENDBRANCH  10  14
ENDBRANCH   2   3
TORSDOF 6
ENDMDL
MODEL      178
REMARK 921   NORMALIZED FREE ENERGY PREDICTED BY IDOCK:   -5.04 KCAL/MOL
REMARK 922        TOTAL FREE ENERGY PREDICTED BY IDOCK:   -8.09 KCAL/MOL
REMARK 923 INTER-LIGAND FREE ENERGY PREDICTED BY IDOCK:   -7.88 KCAL/MOL
REMARK 924 INTRA-LIGAND FREE ENERGY PREDICTED BY IDOCK:   -0.21 KCAL/MOL
REMARK 927      BINDING AFFINITY PREDICTED BY RF-SCORE:    0.00 PKD
ROOT
HETATM    1  C   UNL     1      -9.117   4.709  74.119  1.00  0.00    -0.111 C  
HETATM    2  C   UNL     1      -8.248   4.384  72.915  1.00  0.00    -0.095 C  
ENDROOT
BRANCH   2   3
HETATM    3  C   UNL     1      -8.586   5.021  71.580  1.00  0.00    -0.132 A  
HETATM    4  C   UNL     1      -7.595   5.856  70.987  1.00  0.00    -0.096 A  
HETATM    5  C   UNL     1      -7.671   6.144  69.624  1.00  0.00    -0.098 A  
HETATM    6  C   UNL     1      -9.843   4.928  70.948  1.00  0.00    -0.277 A  
HETATM    7  C   UNL     1      -9.991   5.543  69.709  1.00  0.00    -0.279 A  
HETATM    8  C   UNL     1      -8.863   5.913  68.973  1.00  0.00    -0.119 A  
HETATM    9  C   UNL     1      -9.271   6.606  67.712  1.00  0.00    -0.111 C  
HETATM   10  C   UNL     1     -10.358   7.469  68.374  1.00  0.00    -0.195 C  
HETATM   11  C   UNL     1     -11.183   6.331  69.134  1.00  0.00    -0.439 C  
BRANCH   4  12
HETATM   12  C   UNL     1      -6.621   6.607  71.881  1.00  0.00    -0.054 C  
HETATM   13  C   UNL     1      -7.148   7.869  72.563  1.00  0.00    -0.095 C  
ENDBRANCH   4  12
BRANCH  10  14
HETATM   14  N   UNL     1     -10.932   8.509  67.496  1.00  0.00    -0.466 NA 
HETATM   15  H   UNL     1     -11.769   8.933  67.895  1.00  0.00     0.000 HD 
BRANCH  14  16
HETATM   16  C   UNL     1      -9.870   9.535  67.174  1.00  0.00    -0.185 C  
BRANCH  16  17
HETATM   17  C   UNL     1      -9.633   9.834  65.668  1.00  0.00    -0.263 C  
HETATM   18  H   UNL     1      -8.068  10.047  64.523  1.00  0.00     0.000 HD 
HETATM   19  O   UNL     1      -8.213   9.864  65.445  1.00  0.00    -0.128 OA 
BRANCH  17  20
HETATM   20  C   UNL     1     -10.274  11.139  65.151  1.00  0.00    -0.347 A  
HETATM   21  C   UNL     1     -10.454  12.281  65.968  1.00  0.00    -0.284 A  
HETATM   22  C   UNL     1      -9.880  12.399  67.315  1.00  0.00    -0.207 C  
HETATM   23  C   UNL     1     -10.121  13.464  68.091  1.00  0.00    -0.244 C  
HETATM   24  C   UNL     1     -11.013  14.560  67.631  1.00  0.00    -0.288 C  
HETATM   25  N   UNL     1     -11.489  14.471  66.354  1.00  0.00    -0.354 N  
HETATM   26  O   UNL     1     -11.288  15.496  68.364  1.00  0.00    -0.320 OA 
HETATM   27  H   UNL     1     -12.073  15.230  66.003  1.00  0.00     0.000 HD 
HETATM   28  C   UNL     1     -11.218  13.387  65.493  1.00  0.00    -0.288 A  
HETATM   29  C   UNL     1     -11.738  13.384  64.196  1.00  0.00    -0.419 A  
HETATM   30  C   UNL     1     -11.512  12.299  63.364  1.00  0.00    -0.512 A  
HETATM   31  O   UNL     1     -12.464  14.419  63.673  1.00  0.00    -1.066 OA 
HETATM   32  C   UNL     1     -10.785  11.196  63.831  1.00  0.00    -0.407 A  
HETATM   33  H   UNL     1     -12.818  14.417  62.792  1.00  0.00     0.000 HD 
ENDBRANCH  17  20
ENDBRANCH  16  17
ENDBRANCH  14  16
ENDBRANCH  10  14
ENDBRANCH   2   3
TORSDOF 6
ENDMDL
MODEL      179
REMARK 921   NORMALIZED FREE ENERGY PREDICTED BY IDOCK:   -5.03 KCAL/MOL
REMARK 922        TOTAL FREE ENERGY PREDICTED BY IDOCK:   -8.08 KCAL/MOL
REMARK 923 INTER-LIGAND FREE ENERGY PREDICTED BY IDOCK:   -7.83 KCAL/MOL
REMARK 924 INTRA-LIGAND FREE ENERGY PREDICTED BY IDOCK:   -0.25 KCAL/MOL
REMARK 927      BINDING AFFINITY PREDICTED BY RF-SCORE:    0.00 PKD
ROOT
HETATM    1  C   UNL     1     -11.612  15.202  64.658  1.00  0.00    -0.357 C  
HETATM    2  C   UNL     1     -10.389  14.492  65.215  1.00  0.00    -0.435 C  
ENDROOT
BRANCH   2   3
HETATM    3  C   UNL     1     -10.582  13.449  66.299  1.00  0.00    -0.292 A  
HETATM    4  C   UNL     1     -10.603  12.083  65.894  1.00  0.00    -0.302 A  
HETATM    5  C   UNL     1     -10.384  11.085  66.844  1.00  0.00    -0.279 A  
HETATM    6  C   UNL     1     -10.847  13.746  67.652  1.00  0.00    -0.264 A  
HETATM    7  C   UNL     1     -10.972  12.679  68.536  1.00  0.00    -0.292 A  
HETATM    8  C   UNL     1     -10.500  11.415  68.177  1.00  0.00    -0.212 A  
HETATM    9  C   UNL     1     -10.798  10.425  69.257  1.00  0.00    -0.280 C  
HETATM   10  C   UNL     1     -12.232  10.921  69.508  1.00  0.00    -0.261 C  
HETATM   11  C   UNL     1     -11.947  12.480  69.711  1.00  0.00    -0.359 C  
BRANCH   4  12
HETATM   12  C   UNL     1     -11.098  11.727  64.501  1.00  0.00    -0.376 C  
HETATM   13  C   UNL     1     -10.046  11.252  63.498  1.00  0.00    -0.443 C  
ENDBRANCH   4  12
BRANCH  10  14
HETATM   14  N   UNL     1     -13.026  10.064  70.413  1.00  0.00    -0.585 NA 
HETATM   15  H   UNL     1     -13.704   9.494  69.909  1.00  0.00     0.000 HD 
BRANCH  14  16
HETATM   16  C   UNL     1     -12.092   9.228  71.259  1.00  0.00    -0.337 C  
BRANCH  16  17
HETATM   17  C   UNL     1     -12.193   7.688  71.082  1.00  0.00    -0.285 C  
HETATM   18  H   UNL     1     -13.639   6.379  71.104  1.00  0.00     0.000 HD 
HETATM   19  O   UNL     1     -13.578   7.321  71.213  1.00  0.00    -0.365 OA 
BRANCH  17  20
HETATM   20  C   UNL     1     -11.335   6.859  72.059  1.00  0.00    -0.301 A  
HETATM   21  C   UNL     1      -9.982   7.164  72.341  1.00  0.00    -0.190 A  
HETATM   22  C   UNL     1      -9.329   8.398  71.883  1.00  0.00    -0.313 C  
HETATM   23  C   UNL     1      -8.029   8.630  72.108  1.00  0.00    -0.098 C  
HETATM   24  C   UNL     1      -7.182   7.627  72.805  1.00  0.00    -0.077 C  
HETATM   25  N   UNL     1      -7.812   6.514  73.282  1.00  0.00    -0.096 N  
HETATM   26  O   UNL     1      -5.984   7.808  72.948  1.00  0.00    -0.047 OA 
HETATM   27  H   UNL     1      -7.258   5.829  73.796  1.00  0.00     0.000 HD 
HETATM   28  C   UNL     1      -9.188   6.258  73.104  1.00  0.00    -0.128 A  
HETATM   29  C   UNL     1      -9.754   5.097  73.637  1.00  0.00    -0.143 A  
HETATM   30  C   UNL     1     -11.095   4.821  73.423  1.00  0.00    -0.422 A  
HETATM   31  O   UNL     1      -9.052   4.196  74.391  1.00  0.00    -0.099 OA 
HETATM   32  C   UNL     1     -11.876   5.692  72.653  1.00  0.00    -0.192 A  
HETATM   33  H   UNL     1      -9.436   3.406  74.753  1.00  0.00     0.000 HD 
ENDBRANCH  17  20
ENDBRANCH  16  17
ENDBRANCH  14  16
ENDBRANCH  10  14
ENDBRANCH   2   3
TORSDOF 6
ENDMDL
MODEL      180
REMARK 921   NORMALIZED FREE ENERGY PREDICTED BY IDOCK:   -5.02 KCAL/MOL
REMARK 922        TOTAL FREE ENERGY PREDICTED BY IDOCK:   -8.07 KCAL/MOL
REMARK 923 INTER-LIGAND FREE ENERGY PREDICTED BY IDOCK:   -7.92 KCAL/MOL
REMARK 924 INTRA-LIGAND FREE ENERGY PREDICTED BY IDOCK:   -0.15 KCAL/MOL
REMARK 927      BINDING AFFINITY PREDICTED BY RF-SCORE:    0.00 PKD
ROOT
HETATM    1  C   UNL     1     -11.347   4.419  73.512  1.00  0.00    -0.334 C  
HETATM    2  C   UNL     1     -10.779   5.818  73.684  1.00  0.00    -0.281 C  
ENDROOT
BRANCH   2   3
HETATM    3  C   UNL     1     -10.848   6.781  72.514  1.00  0.00    -0.271 A  
HETATM    4  C   UNL     1      -9.816   6.694  71.536  1.00  0.00    -0.182 A  
HETATM    5  C   UNL     1     -10.021   7.253  70.273  1.00  0.00    -0.188 A  
HETATM    6  C   UNL     1     -11.796   7.818  72.391  1.00  0.00    -0.371 A  
HETATM    7  C   UNL     1     -11.750   8.603  71.243  1.00  0.00    -0.341 A  
HETATM    8  C   UNL     1     -11.047   8.159  70.120  1.00  0.00    -0.187 A  
HETATM    9  C   UNL     1     -11.091   9.193  69.041  1.00  0.00     0.063 C  
HETATM   10  C   UNL     1     -10.827  10.384  69.978  1.00  0.00    -0.289 C  
HETATM   11  C   UNL     1     -11.957  10.120  71.076  1.00  0.00    -0.474 C  
BRANCH   4  12
HETATM   12  C   UNL     1      -8.434   6.214  71.951  1.00  0.00    -0.129 C  
HETATM   13  C   UNL     1      -7.849   5.041  71.164  1.00  0.00    -0.093 C  
ENDBRANCH   4  12
BRANCH  10  14
HETATM   14  N   UNL     1     -10.581  11.665  69.284  1.00  0.00    -0.423 NA 
HETATM   15  H   UNL     1      -9.991  12.293  69.830  1.00  0.00     0.000 HD 
BRANCH  14  16
HETATM   16  C   UNL     1     -10.008  11.390  67.913  1.00  0.00    -0.177 C  
BRANCH  16  17
HETATM   17  C   UNL     1      -8.921  12.379  67.408  1.00  0.00    -0.185 C  
HETATM   18  H   UNL     1      -7.573  13.510  68.250  1.00  0.00     0.000 HD 
HETATM   19  O   UNL     1      -8.237  12.905  68.559  1.00  0.00    -0.139 OA 
BRANCH  17  20
HETATM   20  C   UNL     1      -9.445  13.537  66.534  1.00  0.00    -0.265 A  
HETATM   21  C   UNL     1      -8.817  14.805  66.482  1.00  0.00    -0.223 A  
HETATM   22  C   UNL     1      -7.511  15.075  67.098  1.00  0.00    -0.145 C  
HETATM   23  C   UNL     1      -6.971  16.301  67.090  1.00  0.00    -0.243 C  
HETATM   24  C   UNL     1      -7.690  17.451  66.482  1.00  0.00    -0.284 C  
HETATM   25  N   UNL     1      -8.872  17.175  65.856  1.00  0.00    -0.079 N  
HETATM   26  O   UNL     1      -7.230  18.579  66.537  1.00  0.00    -0.207 OA 
HETATM   27  H   UNL     1      -9.366  17.943  65.400  1.00  0.00     0.000 HD 
HETATM   28  C   UNL     1      -9.449  15.889  65.806  1.00  0.00    -0.281 A  
HETATM   29  C   UNL     1     -10.658  15.696  65.132  1.00  0.00    -0.424 A  
HETATM   30  C   UNL     1     -11.249  14.443  65.121  1.00  0.00    -0.359 A  
HETATM   31  O   UNL     1     -11.307  16.689  64.451  1.00  0.00    -1.120 OA 
HETATM   32  C   UNL     1     -10.649  13.378  65.804  1.00  0.00    -0.286 A  
HETATM   33  H   UNL     1     -12.129  16.558  63.993  1.00  0.00     0.000 HD 
ENDBRANCH  17  20
ENDBRANCH  16  17
ENDBRANCH  14  16
ENDBRANCH  10  14
ENDBRANCH   2   3
TORSDOF 6
ENDMDL
MODEL      181
REMARK 921   NORMALIZED FREE ENERGY PREDICTED BY IDOCK:   -5.01 KCAL/MOL
REMARK 922        TOTAL FREE ENERGY PREDICTED BY IDOCK:   -8.04 KCAL/MOL
REMARK 923 INTER-LIGAND FREE ENERGY PREDICTED BY IDOCK:   -6.68 KCAL/MOL
REMARK 924 INTRA-LIGAND FREE ENERGY PREDICTED BY IDOCK:   -1.36 KCAL/MOL
REMARK 927      BINDING AFFINITY PREDICTED BY RF-SCORE:    0.00 PKD
ROOT
HETATM    1  C   UNL     1     -12.138  14.340  67.570  1.00  0.00    -0.347 C  
HETATM    2  C   UNL     1     -11.649  13.175  66.726  1.00  0.00    -0.414 C  
ENDROOT
BRANCH   2   3
HETATM    3  C   UNL     1     -10.905  12.042  67.408  1.00  0.00    -0.285 A  
HETATM    4  C   UNL     1      -9.552  12.284  67.782  1.00  0.00    -0.200 A  
HETATM    5  C   UNL     1      -8.949  11.462  68.735  1.00  0.00    -0.086 A  
HETATM    6  C   UNL     1     -11.426  10.746  67.596  1.00  0.00    -0.234 A  
HETATM    7  C   UNL     1     -10.633   9.821  68.267  1.00  0.00    -0.271 A  
HETATM    8  C   UNL     1      -9.544  10.254  69.026  1.00  0.00    -0.210 A  
HETATM    9  C   UNL     1      -8.812   9.082  69.598  1.00  0.00    -0.145 C  
HETATM   10  C   UNL     1      -8.861   8.245  68.309  1.00  0.00    -0.140 C  
HETATM   11  C   UNL     1     -10.425   8.318  67.997  1.00  0.00    -0.239 C  
BRANCH   4  12
HETATM   12  C   UNL     1      -8.719  13.265  66.972  1.00  0.00    -0.192 C  
HETATM   13  C   UNL     1      -8.352  14.582  67.656  1.00  0.00    -0.188 C  
ENDBRANCH   4  12
BRANCH  10  14
HETATM   14  N   UNL     1      -8.046   7.013  68.349  1.00  0.00    -0.122 NA 
HETATM   15  H   UNL     1      -7.384   7.013  69.125  1.00  0.00     0.000 HD 
BRANCH  14  16
HETATM   16  C   UNL     1      -8.959   5.809  68.378  1.00  0.00    -0.111 C  
BRANCH  16  17
HETATM   17  C   UNL     1      -8.837   4.879  69.617  1.00  0.00    -0.086 C  
HETATM   18  H   UNL     1      -9.754   3.277  70.246  1.00  0.00     0.000 HD 
HETATM   19  O   UNL     1      -9.828   3.845  69.488  1.00  0.00    -0.177 OA 
BRANCH  17  20
HETATM   20  C   UNL     1      -8.988   5.584  70.980  1.00  0.00    -0.153 A  
HETATM   21  C   UNL     1     -10.146   6.312  71.344  1.00  0.00    -0.222 A  
HETATM   22  C   UNL     1     -11.379   6.304  70.545  1.00  0.00    -0.428 C  
HETATM   23  C   UNL     1     -12.437   7.054  70.879  1.00  0.00    -0.319 C  
HETATM   24  C   UNL     1     -12.395   7.956  72.060  1.00  0.00    -0.308 C  
HETATM   25  N   UNL     1     -11.269   7.907  72.831  1.00  0.00    -0.437 N  
HETATM   26  O   UNL     1     -13.333   8.691  72.323  1.00  0.00    -0.370 OA 
HETATM   27  H   UNL     1     -11.232   8.490  73.667  1.00  0.00     0.000 HD 
HETATM   28  C   UNL     1     -10.154   7.096  72.536  1.00  0.00    -0.182 A  
HETATM   29  C   UNL     1      -9.046   7.100  73.388  1.00  0.00    -0.157 A  
HETATM   30  C   UNL     1      -7.931   6.339  73.075  1.00  0.00    -0.107 A  
HETATM   31  O   UNL     1      -8.996   7.815  74.553  1.00  0.00    -0.442 OA 
HETATM   32  C   UNL     1      -7.905   5.587  71.894  1.00  0.00    -0.109 A  
HETATM   33  H   UNL     1      -8.243   7.819  75.132  1.00  0.00     0.000 HD 
ENDBRANCH  17  20
ENDBRANCH  16  17
ENDBRANCH  14  16
ENDBRANCH  10  14
ENDBRANCH   2   3
TORSDOF 6
ENDMDL
MODEL      182
REMARK 921   NORMALIZED FREE ENERGY PREDICTED BY IDOCK:   -5.01 KCAL/MOL
REMARK 922        TOTAL FREE ENERGY PREDICTED BY IDOCK:   -8.04 KCAL/MOL
REMARK 923 INTER-LIGAND FREE ENERGY PREDICTED BY IDOCK:   -6.81 KCAL/MOL
REMARK 924 INTRA-LIGAND FREE ENERGY PREDICTED BY IDOCK:   -1.23 KCAL/MOL
REMARK 927      BINDING AFFINITY PREDICTED BY RF-SCORE:    0.00 PKD
ROOT
HETATM    1  C   UNL     1     -13.832  14.803  72.046  1.00  0.00    -0.548 C  
HETATM    2  C   UNL     1     -13.118  13.466  71.931  1.00  0.00    -0.476 C  
ENDROOT
BRANCH   2   3
HETATM    3  C   UNL     1     -12.480  13.093  70.607  1.00  0.00    -0.363 A  
HETATM    4  C   UNL     1     -12.346  11.704  70.316  1.00  0.00    -0.339 A  
HETATM    5  C   UNL     1     -12.143  11.298  68.996  1.00  0.00    -0.325 A  
HETATM    6  C   UNL     1     -11.918  14.018  69.703  1.00  0.00    -0.393 A  
HETATM    7  C   UNL     1     -11.395  13.524  68.513  1.00  0.00    -0.327 A  
HETATM    8  C   UNL     1     -11.734  12.241  68.079  1.00  0.00    -0.417 A  
HETATM    9  C   UNL     1     -11.005  11.912  66.815  1.00  0.00    -0.337 C  
HETATM   10  C   UNL     1      -9.656  12.484  67.280  1.00  0.00    -0.205 C  
HETATM   11  C   UNL     1     -10.124  13.938  67.746  1.00  0.00    -0.241 C  
BRANCH   4  12
HETATM   12  C   UNL     1     -12.186  10.715  71.460  1.00  0.00    -0.345 C  
HETATM   13  C   UNL     1     -11.213   9.557  71.237  1.00  0.00    -0.452 C  
ENDBRANCH   4  12
BRANCH  10  14
HETATM   14  N   UNL     1      -8.524  12.191  66.376  1.00  0.00    -0.396 NA 
HETATM   15  H   UNL     1      -8.238  13.008  65.838  1.00  0.00     0.000 HD 
BRANCH  14  16
HETATM   16  C   UNL     1      -7.383  11.605  67.175  1.00  0.00    -0.143 C  
BRANCH  16  17
HETATM   17  C   UNL     1      -7.711  10.347  68.026  1.00  0.00    -0.092 C  
HETATM   18  H   UNL     1      -6.926   9.484  69.589  1.00  0.00     0.000 HD 
HETATM   19  O   UNL     1      -6.725  10.253  69.069  1.00  0.00    -0.051 OA 
BRANCH  17  20
HETATM   20  C   UNL     1      -7.771   9.022  67.239  1.00  0.00    -0.096 A  
HETATM   21  C   UNL     1      -8.357   7.844  67.762  1.00  0.00    -0.129 A  
HETATM   22  C   UNL     1      -9.128   7.822  69.013  1.00  0.00    -0.144 C  
HETATM   23  C   UNL     1      -9.616   6.681  69.517  1.00  0.00    -0.150 C  
HETATM   24  C   UNL     1      -9.367   5.379  68.846  1.00  0.00    -0.127 C  
HETATM   25  N   UNL     1      -8.704   5.419  67.652  1.00  0.00    -0.107 N  
HETATM   26  O   UNL     1      -9.751   4.333  69.343  1.00  0.00    -0.192 OA 
HETATM   27  H   UNL     1      -8.554   4.541  67.156  1.00  0.00     0.000 HD 
HETATM   28  C   UNL     1      -8.217   6.606  67.068  1.00  0.00    -0.113 A  
HETATM   29  C   UNL     1      -7.559   6.555  65.836  1.00  0.00    -0.087 A  
HETATM   30  C   UNL     1      -7.039   7.714  65.283  1.00  0.00    -0.063 A  
HETATM   31  O   UNL     1      -7.406   5.404  65.112  1.00  0.00    -0.066 OA 
HETATM   32  C   UNL     1      -7.149   8.930  65.969  1.00  0.00    -0.088 A  
HETATM   33  H   UNL     1      -6.958   5.369  64.275  1.00  0.00     0.000 HD 
ENDBRANCH  17  20
ENDBRANCH  16  17
ENDBRANCH  14  16
ENDBRANCH  10  14
ENDBRANCH   2   3
TORSDOF 6
ENDMDL
MODEL      183
REMARK 921   NORMALIZED FREE ENERGY PREDICTED BY IDOCK:   -5.00 KCAL/MOL
REMARK 922        TOTAL FREE ENERGY PREDICTED BY IDOCK:   -8.02 KCAL/MOL
REMARK 923 INTER-LIGAND FREE ENERGY PREDICTED BY IDOCK:   -6.59 KCAL/MOL
REMARK 924 INTRA-LIGAND FREE ENERGY PREDICTED BY IDOCK:   -1.43 KCAL/MOL
REMARK 927      BINDING AFFINITY PREDICTED BY RF-SCORE:    0.00 PKD
ROOT
HETATM    1  C   UNL     1     -11.037  16.044  69.105  1.00  0.00    -0.317 C  
HETATM    2  C   UNL     1     -11.400  15.161  67.922  1.00  0.00    -0.346 C  
ENDROOT
BRANCH   2   3
HETATM    3  C   UNL     1     -10.481  14.008  67.565  1.00  0.00    -0.252 A  
HETATM    4  C   UNL     1     -10.804  13.254  66.399  1.00  0.00    -0.296 A  
HETATM    5  C   UNL     1      -9.821  12.462  65.804  1.00  0.00    -0.253 A  
HETATM    6  C   UNL     1      -9.403  13.572  68.362  1.00  0.00    -0.171 A  
HETATM    7  C   UNL     1      -8.630  12.518  67.885  1.00  0.00    -0.179 A  
HETATM    8  C   UNL     1      -8.695  12.158  66.537  1.00  0.00    -0.114 A  
HETATM    9  C   UNL     1      -7.828  10.967  66.277  1.00  0.00    -0.158 C  
HETATM   10  C   UNL     1      -8.265  10.200  67.537  1.00  0.00    -0.114 C  
HETATM   11  C   UNL     1      -8.011  11.326  68.640  1.00  0.00    -0.145 C  
BRANCH   4  12
HETATM   12  C   UNL     1     -12.257  13.135  65.968  1.00  0.00    -0.478 C  
HETATM   13  C   UNL     1     -12.512  12.798  64.499  1.00  0.00    -0.501 C  
ENDBRANCH   4  12
BRANCH  10  14
HETATM   14  N   UNL     1      -7.782   8.805  67.601  1.00  0.00    -0.101 NA 
HETATM   15  H   UNL     1      -7.720   8.462  68.559  1.00  0.00     0.000 HD 
BRANCH  14  16
HETATM   16  C   UNL     1      -8.659   7.931  66.735  1.00  0.00    -0.131 C  
BRANCH  16  17
HETATM   17  C   UNL     1      -9.672   7.017  67.479  1.00  0.00    -0.136 C  
HETATM   18  H   UNL     1     -11.524   6.476  67.195  1.00  0.00     0.000 HD 
HETATM   19  O   UNL     1     -10.905   7.035  66.740  1.00  0.00    -0.318 OA 
BRANCH  17  20
HETATM   20  C   UNL     1      -9.936   7.396  68.951  1.00  0.00    -0.169 A  
HETATM   21  C   UNL     1     -10.578   8.599  69.330  1.00  0.00    -0.207 A  
HETATM   22  C   UNL     1     -11.222   9.500  68.365  1.00  0.00     0.067 C  
HETATM   23  C   UNL     1     -11.765  10.664  68.744  1.00  0.00    -0.259 C  
HETATM   24  C   UNL     1     -11.709  11.109  70.161  1.00  0.00    -0.353 C  
HETATM   25  N   UNL     1     -11.167  10.235  71.060  1.00  0.00    -0.316 N  
HETATM   26  O   UNL     1     -12.142  12.200  70.495  1.00  0.00    -0.364 OA 
HETATM   27  H   UNL     1     -11.152  10.503  72.044  1.00  0.00     0.000 HD 
HETATM   28  C   UNL     1     -10.627   8.982  70.703  1.00  0.00    -0.236 A  
HETATM   29  C   UNL     1     -10.102   8.145  71.691  1.00  0.00    -0.199 A  
HETATM   30  C   UNL     1      -9.529   6.934  71.337  1.00  0.00    -0.160 A  
HETATM   31  O   UNL     1     -10.132   8.445  73.026  1.00  0.00    -0.226 OA 
HETATM   32  C   UNL     1      -9.454   6.561  69.989  1.00  0.00    -0.163 A  
HETATM   33  H   UNL     1      -9.775   7.876  73.698  1.00  0.00     0.000 HD 
ENDBRANCH  17  20
ENDBRANCH  16  17
ENDBRANCH  14  16
ENDBRANCH  10  14
ENDBRANCH   2   3
TORSDOF 6
ENDMDL
MODEL      184
REMARK 921   NORMALIZED FREE ENERGY PREDICTED BY IDOCK:   -4.98 KCAL/MOL
REMARK 922        TOTAL FREE ENERGY PREDICTED BY IDOCK:   -8.01 KCAL/MOL
REMARK 923 INTER-LIGAND FREE ENERGY PREDICTED BY IDOCK:   -7.37 KCAL/MOL
REMARK 924 INTRA-LIGAND FREE ENERGY PREDICTED BY IDOCK:   -0.64 KCAL/MOL
REMARK 927      BINDING AFFINITY PREDICTED BY RF-SCORE:    0.00 PKD
ROOT
HETATM    1  C   UNL     1     -12.138  13.780  64.489  1.00  0.00    -0.463 C  
HETATM    2  C   UNL     1     -11.856  14.328  65.879  1.00  0.00    -0.386 C  
ENDROOT
BRANCH   2   3
HETATM    3  C   UNL     1     -11.756  13.356  67.039  1.00  0.00    -0.426 A  
HETATM    4  C   UNL     1     -11.657  13.911  68.348  1.00  0.00    -0.368 A  
HETATM    5  C   UNL     1     -11.954  13.112  69.453  1.00  0.00    -0.347 A  
HETATM    6  C   UNL     1     -11.647  11.957  66.899  1.00  0.00    -0.358 A  
HETATM    7  C   UNL     1     -11.594  11.193  68.061  1.00  0.00    -0.337 A  
HETATM    8  C   UNL     1     -11.992  11.745  69.280  1.00  0.00    -0.354 A  
HETATM    9  C   UNL     1     -11.788  10.760  70.386  1.00  0.00    -0.450 C  
HETATM   10  C   UNL     1     -10.403  10.295  69.905  1.00  0.00    -0.233 C  
HETATM   11  C   UNL     1     -10.747   9.947  68.385  1.00  0.00    -0.271 C  
BRANCH   4  12
HETATM   12  C   UNL     1     -11.005  15.272  68.533  1.00  0.00    -0.266 C  
HETATM   13  C   UNL     1     -10.280  15.512  69.857  1.00  0.00    -0.305 C  
ENDBRANCH   4  12
BRANCH  10  14
HETATM   14  N   UNL     1      -9.692   9.412  70.853  1.00  0.00    -0.273 NA 
HETATM   15  H   UNL     1      -9.861   9.673  71.824  1.00  0.00     0.000 HD 
BRANCH  14  16
HETATM   16  C   UNL     1     -10.064   7.974  70.574  1.00  0.00    -0.192 C  
BRANCH  16  17
HETATM   17  C   UNL     1      -8.904   7.030  70.154  1.00  0.00    -0.145 C  
HETATM   18  H   UNL     1      -6.972   7.208  69.951  1.00  0.00     0.000 HD 
HETATM   19  O   UNL     1      -7.682   7.786  70.208  1.00  0.00    -0.086 OA 
BRANCH  17  20
HETATM   20  C   UNL     1      -9.059   6.382  68.763  1.00  0.00    -0.125 A  
HETATM   21  C   UNL     1      -8.674   7.032  67.566  1.00  0.00    -0.120 A  
HETATM   22  C   UNL     1      -7.919   8.292  67.548  1.00  0.00    -0.110 C  
HETATM   23  C   UNL     1      -7.624   8.918  66.401  1.00  0.00    -0.092 C  
HETATM   24  C   UNL     1      -8.081   8.378  65.094  1.00  0.00    -0.147 C  
HETATM   25  N   UNL     1      -8.725   7.174  65.118  1.00  0.00    -0.359 N  
HETATM   26  O   UNL     1      -7.873   8.984  64.056  1.00  0.00    -0.119 OA 
HETATM   27  H   UNL     1      -9.015   6.765  64.229  1.00  0.00     0.000 HD 
HETATM   28  C   UNL     1      -9.012   6.464  66.302  1.00  0.00    -0.156 A  
HETATM   29  C   UNL     1      -9.666   5.231  66.232  1.00  0.00    -0.169 A  
HETATM   30  C   UNL     1      -9.990   4.554  67.397  1.00  0.00    -0.171 A  
HETATM   31  O   UNL     1     -10.003   4.624  65.053  1.00  0.00    -0.331 OA 
HETATM   32  C   UNL     1      -9.685   5.116  68.643  1.00  0.00    -0.210 A  
HETATM   33  H   UNL     1     -10.449   3.786  65.005  1.00  0.00     0.000 HD 
ENDBRANCH  17  20
ENDBRANCH  16  17
ENDBRANCH  14  16
ENDBRANCH  10  14
ENDBRANCH   2   3
TORSDOF 6
ENDMDL
MODEL      185
REMARK 921   NORMALIZED FREE ENERGY PREDICTED BY IDOCK:   -4.98 KCAL/MOL
REMARK 922        TOTAL FREE ENERGY PREDICTED BY IDOCK:   -8.01 KCAL/MOL
REMARK 923 INTER-LIGAND FREE ENERGY PREDICTED BY IDOCK:   -6.91 KCAL/MOL
REMARK 924 INTRA-LIGAND FREE ENERGY PREDICTED BY IDOCK:   -1.10 KCAL/MOL
REMARK 927      BINDING AFFINITY PREDICTED BY RF-SCORE:    0.00 PKD
ROOT
HETATM    1  C   UNL     1      -6.795  19.927  68.314  1.00  0.00    -0.330 C  
HETATM    2  C   UNL     1      -7.390  19.720  66.931  1.00  0.00    -0.257 C  
ENDROOT
BRANCH   2   3
HETATM    3  C   UNL     1      -8.313  18.537  66.704  1.00  0.00    -0.285 A  
HETATM    4  C   UNL     1      -7.745  17.235  66.826  1.00  0.00    -0.279 A  
HETATM    5  C   UNL     1      -8.586  16.138  67.019  1.00  0.00    -0.233 A  
HETATM    6  C   UNL     1      -9.653  18.642  66.280  1.00  0.00    -0.295 A  
HETATM    7  C   UNL     1     -10.382  17.465  66.144  1.00  0.00    -0.329 A  
HETATM    8  C   UNL     1      -9.927  16.287  66.742  1.00  0.00    -0.268 A  
HETATM    9  C   UNL     1     -10.840  15.151  66.408  1.00  0.00    -0.326 C  
HETATM   10  C   UNL     1     -10.988  15.523  64.923  1.00  0.00    -0.436 C  
HETATM   11  C   UNL     1     -11.408  17.057  65.070  1.00  0.00     0.431 C  
BRANCH   4  12
HETATM   12  C   UNL     1      -6.273  17.031  66.505  1.00  0.00    -0.205 C  
HETATM   13  C   UNL     1      -5.387  16.517  67.639  1.00  0.00    -0.156 C  
ENDBRANCH   4  12
BRANCH  10  14
HETATM   14  N   UNL     1     -11.689  14.511  64.106  1.00  0.00    -0.661 NA 
HETATM   15  H   UNL     1     -11.986  14.882  63.204  1.00  0.00     0.000 HD 
BRANCH  14  16
HETATM   16  C   UNL     1     -10.811  13.289  63.961  1.00  0.00    -0.259 C  
BRANCH  16  17
HETATM   17  C   UNL     1     -11.326  11.986  64.633  1.00  0.00    -0.318 C  
HETATM   18  H   UNL     1     -12.890  11.491  65.687  1.00  0.00     0.000 HD 
HETATM   19  O   UNL     1     -12.576  12.288  65.276  1.00  0.00    -0.583 OA 
BRANCH  17  20
HETATM   20  C   UNL     1     -10.355  11.346  65.647  1.00  0.00    -0.307 A  
HETATM   21  C   UNL     1      -9.429  10.337  65.290  1.00  0.00    -0.296 A  
HETATM   22  C   UNL     1      -9.171   9.945  63.897  1.00  0.00    -0.295 C  
HETATM   23  C   UNL     1      -8.336   8.942  63.593  1.00  0.00    -0.164 C  
HETATM   24  C   UNL     1      -7.659   8.158  64.660  1.00  0.00    -0.111 C  
HETATM   25  N   UNL     1      -7.856   8.572  65.946  1.00  0.00    -0.096 N  
HETATM   26  O   UNL     1      -6.955   7.201  64.385  1.00  0.00    -0.048 OA 
HETATM   27  H   UNL     1      -7.372   8.073  66.692  1.00  0.00     0.000 HD 
HETATM   28  C   UNL     1      -8.691   9.653  66.301  1.00  0.00    -0.142 A  
HETATM   29  C   UNL     1      -8.825  10.016  67.643  1.00  0.00    -0.121 A  
HETATM   30  C   UNL     1      -9.680  11.046  67.998  1.00  0.00    -0.181 A  
HETATM   31  O   UNL     1      -8.135   9.411  68.659  1.00  0.00    -0.101 OA 
HETATM   32  C   UNL     1     -10.429  11.706  67.015  1.00  0.00    -0.258 A  
HETATM   33  H   UNL     1      -8.226   9.657  69.572  1.00  0.00     0.000 HD 
ENDBRANCH  17  20
ENDBRANCH  16  17
ENDBRANCH  14  16
ENDBRANCH  10  14
ENDBRANCH   2   3
TORSDOF 6
ENDMDL
MODEL      186
REMARK 921   NORMALIZED FREE ENERGY PREDICTED BY IDOCK:   -4.98 KCAL/MOL
REMARK 922        TOTAL FREE ENERGY PREDICTED BY IDOCK:   -8.01 KCAL/MOL
REMARK 923 INTER-LIGAND FREE ENERGY PREDICTED BY IDOCK:   -7.24 KCAL/MOL
REMARK 924 INTRA-LIGAND FREE ENERGY PREDICTED BY IDOCK:   -0.77 KCAL/MOL
REMARK 927      BINDING AFFINITY PREDICTED BY RF-SCORE:    0.00 PKD
ROOT
HETATM    1  C   UNL     1     -10.526  14.892  66.896  1.00  0.00    -0.280 C  
HETATM    2  C   UNL     1     -11.855  14.343  67.389  1.00  0.00    -0.430 C  
ENDROOT
BRANCH   2   3
HETATM    3  C   UNL     1     -11.846  13.188  68.372  1.00  0.00    -0.386 A  
HETATM    4  C   UNL     1     -11.952  13.510  69.757  1.00  0.00    -0.405 A  
HETATM    5  C   UNL     1     -12.339  12.520  70.662  1.00  0.00    -0.369 A  
HETATM    6  C   UNL     1     -11.634  11.840  68.017  1.00  0.00    -0.386 A  
HETATM    7  C   UNL     1     -11.684  10.888  69.031  1.00  0.00    -0.391 A  
HETATM    8  C   UNL     1     -12.270  11.205  70.258  1.00  0.00    -0.436 A  
HETATM    9  C   UNL     1     -12.151  10.050  71.201  1.00  0.00    -0.475 C  
HETATM   10  C   UNL     1     -10.690   9.730  70.846  1.00  0.00    -0.305 C  
HETATM   11  C   UNL     1     -10.812   9.639  69.256  1.00  0.00    -0.227 C  
BRANCH   4  12
HETATM   12  C   UNL     1     -11.414  14.842  70.255  1.00  0.00    -0.315 C  
HETATM   13  C   UNL     1     -11.730  15.212  71.704  1.00  0.00    -0.458 C  
ENDBRANCH   4  12
BRANCH  10  14
HETATM   14  N   UNL     1     -10.054   8.724  71.721  1.00  0.00    -0.306 NA 
HETATM   15  H   UNL     1      -9.362   9.137  72.345  1.00  0.00     0.000 HD 
BRANCH  14  16
HETATM   16  C   UNL     1     -11.124   7.968  72.475  1.00  0.00    -0.375 C  
BRANCH  16  17
HETATM   17  C   UNL     1     -11.308   6.472  72.098  1.00  0.00    -0.282 C  
HETATM   18  H   UNL     1     -12.727   5.151  72.309  1.00  0.00     0.000 HD 
HETATM   19  O   UNL     1     -12.615   6.066  72.539  1.00  0.00    -0.066 OA 
BRANCH  17  20
HETATM   20  C   UNL     1     -10.240   5.517  72.670  1.00  0.00    -0.222 A  
HETATM   21  C   UNL     1      -9.125   5.074  71.918  1.00  0.00    -0.157 A  
HETATM   22  C   UNL     1      -8.777   5.629  70.602  1.00  0.00    -0.138 C  
HETATM   23  C   UNL     1      -7.754   5.146  69.885  1.00  0.00    -0.068 C  
HETATM   24  C   UNL     1      -6.945   4.001  70.379  1.00  0.00    -0.034 C  
HETATM   25  N   UNL     1      -7.237   3.536  71.630  1.00  0.00    -0.038 N  
HETATM   26  O   UNL     1      -6.059   3.517  69.695  1.00  0.00    -0.022 OA 
HETATM   27  H   UNL     1      -6.670   2.775  72.004  1.00  0.00     0.000 HD 
HETATM   28  C   UNL     1      -8.276   4.050  72.432  1.00  0.00    -0.098 A  
HETATM   29  C   UNL     1      -8.496   3.522  73.707  1.00  0.00    -0.082 A  
HETATM   30  C   UNL     1      -9.546   3.993  74.478  1.00  0.00    -0.144 A  
HETATM   31  O   UNL     1      -7.710   2.550  74.265  1.00  0.00    -0.045 OA 
HETATM   32  C   UNL     1     -10.401   4.981  73.971  1.00  0.00    -0.299 A  
HETATM   33  H   UNL     1      -7.860   2.190  75.131  1.00  0.00     0.000 HD 
ENDBRANCH  17  20
ENDBRANCH  16  17
ENDBRANCH  14  16
ENDBRANCH  10  14
ENDBRANCH   2   3
TORSDOF 6
ENDMDL
MODEL      187
REMARK 921   NORMALIZED FREE ENERGY PREDICTED BY IDOCK:   -4.98 KCAL/MOL
REMARK 922        TOTAL FREE ENERGY PREDICTED BY IDOCK:   -8.00 KCAL/MOL
REMARK 923 INTER-LIGAND FREE ENERGY PREDICTED BY IDOCK:   -7.12 KCAL/MOL
REMARK 924 INTRA-LIGAND FREE ENERGY PREDICTED BY IDOCK:   -0.88 KCAL/MOL
REMARK 927      BINDING AFFINITY PREDICTED BY RF-SCORE:    0.00 PKD
ROOT
HETATM    1  C   UNL     1     -11.817  14.154  64.222  1.00  0.00    -0.420 C  
HETATM    2  C   UNL     1     -11.492  14.693  65.605  1.00  0.00    -0.340 C  
ENDROOT
BRANCH   2   3
HETATM    3  C   UNL     1     -11.599  13.758  66.795  1.00  0.00    -0.394 A  
HETATM    4  C   UNL     1     -11.561  14.347  68.092  1.00  0.00    -0.360 A  
HETATM    5  C   UNL     1     -12.037  13.623  69.186  1.00  0.00    -0.361 A  
HETATM    6  C   UNL     1     -11.625  12.351  66.704  1.00  0.00    -0.447 A  
HETATM    7  C   UNL     1     -11.756  11.628  67.885  1.00  0.00    -0.329 A  
HETATM    8  C   UNL     1     -12.203  12.262  69.047  1.00  0.00    -0.047 A  
HETATM    9  C   UNL     1     -12.204  11.302  70.193  1.00  0.00    -0.410 C  
HETATM   10  C   UNL     1     -10.838  10.682  69.856  1.00  0.00    -0.241 C  
HETATM   11  C   UNL     1     -11.077  10.316  68.320  1.00  0.00    -0.311 C  
BRANCH   4  12
HETATM   12  C   UNL     1     -10.789  15.640  68.301  1.00  0.00    -0.298 C  
HETATM   13  C   UNL     1     -10.190  15.867  69.689  1.00  0.00    -0.280 C  
ENDBRANCH   4  12
BRANCH  10  14
HETATM   14  N   UNL     1     -10.311   9.766  70.889  1.00  0.00    -0.332 NA 
HETATM   15  H   UNL     1     -10.723   9.939  71.805  1.00  0.00     0.000 HD 
BRANCH  14  16
HETATM   16  C   UNL     1     -10.504   8.336  70.438  1.00  0.00    -0.215 C  
BRANCH  16  17
HETATM   17  C   UNL     1      -9.226   7.576  69.987  1.00  0.00    -0.151 C  
HETATM   18  H   UNL     1      -7.345   8.037  69.755  1.00  0.00     0.000 HD 
HETATM   19  O   UNL     1      -8.127   8.502  70.031  1.00  0.00    -0.104 OA 
BRANCH  17  20
HETATM   20  C   UNL     1      -9.310   6.925  68.592  1.00  0.00    -0.135 A  
HETATM   21  C   UNL     1      -9.370   5.524  68.401  1.00  0.00    -0.130 A  
HETATM   22  C   UNL     1      -9.552   4.573  69.507  1.00  0.00    -0.266 C  
HETATM   23  C   UNL     1      -9.540   3.249  69.305  1.00  0.00    -0.110 C  
HETATM   24  C   UNL     1      -9.307   2.684  67.951  1.00  0.00    -0.194 C  
HETATM   25  N   UNL     1      -9.203   3.575  66.921  1.00  0.00    -0.175 N  
HETATM   26  O   UNL     1      -9.226   1.479  67.779  1.00  0.00    -0.134 OA 
HETATM   27  H   UNL     1      -9.080   3.208  65.977  1.00  0.00     0.000 HD 
HETATM   28  C   UNL     1      -9.257   4.974  67.090  1.00  0.00    -0.120 A  
HETATM   29  C   UNL     1      -9.154   5.813  65.977  1.00  0.00    -0.153 A  
HETATM   30  C   UNL     1      -9.160   7.188  66.146  1.00  0.00    -0.155 A  
HETATM   31  O   UNL     1      -9.060   5.351  64.692  1.00  0.00    -0.355 OA 
HETATM   32  C   UNL     1      -9.244   7.737  67.432  1.00  0.00    -0.156 A  
HETATM   33  H   UNL     1      -8.989   5.921  63.936  1.00  0.00     0.000 HD 
ENDBRANCH  17  20
ENDBRANCH  16  17
ENDBRANCH  14  16
ENDBRANCH  10  14
ENDBRANCH   2   3
TORSDOF 6
ENDMDL
MODEL      188
REMARK 921   NORMALIZED FREE ENERGY PREDICTED BY IDOCK:   -4.96 KCAL/MOL
REMARK 922        TOTAL FREE ENERGY PREDICTED BY IDOCK:   -7.97 KCAL/MOL
REMARK 923 INTER-LIGAND FREE ENERGY PREDICTED BY IDOCK:   -7.23 KCAL/MOL
REMARK 924 INTRA-LIGAND FREE ENERGY PREDICTED BY IDOCK:   -0.74 KCAL/MOL
REMARK 927      BINDING AFFINITY PREDICTED BY RF-SCORE:    0.00 PKD
ROOT
HETATM    1  C   UNL     1     -10.636   5.915  73.076  1.00  0.00    -0.270 C  
HETATM    2  C   UNL     1     -10.115   6.373  71.724  1.00  0.00    -0.206 C  
ENDROOT
BRANCH   2   3
HETATM    3  C   UNL     1     -10.614   7.689  71.159  1.00  0.00    -0.235 A  
HETATM    4  C   UNL     1      -9.759   8.372  70.246  1.00  0.00    -0.178 A  
HETATM    5  C   UNL     1     -10.296   9.351  69.408  1.00  0.00    -0.222 A  
HETATM    6  C   UNL     1     -11.807   8.326  71.557  1.00  0.00    -0.335 A  
HETATM    7  C   UNL     1     -12.146   9.518  70.924  1.00  0.00    -0.357 A  
HETATM    8  C   UNL     1     -11.534   9.869  69.719  1.00  0.00    -0.194 A  
HETATM    9  C   UNL     1     -12.012  11.211  69.267  1.00  0.00    -0.421 C  
HETATM   10  C   UNL     1     -11.927  11.865  70.656  1.00  0.00    -0.191 C  
HETATM   11  C   UNL     1     -12.765  10.803  71.506  1.00  0.00    -0.536 C  
BRANCH   4  12
HETATM   12  C   UNL     1      -8.253   8.201  70.365  1.00  0.00    -0.114 C  
HETATM   13  C   UNL     1      -7.400   9.453  70.158  1.00  0.00    -0.110 C  
ENDBRANCH   4  12
BRANCH  10  14
HETATM   14  N   UNL     1     -12.135  13.328  70.658  1.00  0.00    -0.496 NA 
HETATM   15  H   UNL     1     -12.044  13.729  71.590  1.00  0.00     0.000 HD 
BRANCH  14  16
HETATM   16  C   UNL     1     -11.192  13.969  69.665  1.00  0.00    -0.164 C  
BRANCH  16  17
HETATM   17  C   UNL     1     -10.536  15.308  70.101  1.00  0.00    -0.257 C  
HETATM   18  H   UNL     1     -11.022  16.766  71.302  1.00  0.00     0.000 HD 
HETATM   19  O   UNL     1     -11.424  15.947  71.036  1.00  0.00    -0.363 OA 
BRANCH  17  20
HETATM   20  C   UNL     1     -10.200  16.277  68.950  1.00  0.00    -0.256 A  
HETATM   21  C   UNL     1      -8.881  16.711  68.673  1.00  0.00    -0.249 A  
HETATM   22  C   UNL     1      -7.696  16.135  69.325  1.00  0.00    -0.210 C  
HETATM   23  C   UNL     1      -6.466  16.610  69.091  1.00  0.00    -0.200 C  
HETATM   24  C   UNL     1      -6.251  17.767  68.183  1.00  0.00    -0.173 C  
HETATM   25  N   UNL     1      -7.350  18.252  67.534  1.00  0.00    -0.208 N  
HETATM   26  O   UNL     1      -5.139  18.243  68.025  1.00  0.00    -0.160 OA 
HETATM   27  H   UNL     1      -7.221  19.021  66.877  1.00  0.00     0.000 HD 
HETATM   28  C   UNL     1      -8.654  17.747  67.720  1.00  0.00    -0.237 A  
HETATM   29  C   UNL     1      -9.720  18.297  67.004  1.00  0.00    -0.303 A  
HETATM   30  C   UNL     1     -11.009  17.834  67.219  1.00  0.00    -0.033 A  
HETATM   31  O   UNL     1      -9.569  19.281  66.065  1.00  0.00    -0.400 OA 
HETATM   32  C   UNL     1     -11.244  16.835  68.172  1.00  0.00    -0.154 A  
HETATM   33  H   UNL     1     -10.294  19.655  65.578  1.00  0.00     0.000 HD 
ENDBRANCH  17  20
ENDBRANCH  16  17
ENDBRANCH  14  16
ENDBRANCH  10  14
ENDBRANCH   2   3
TORSDOF 6
ENDMDL
MODEL      189
REMARK 921   NORMALIZED FREE ENERGY PREDICTED BY IDOCK:   -4.94 KCAL/MOL
REMARK 922        TOTAL FREE ENERGY PREDICTED BY IDOCK:   -7.95 KCAL/MOL
REMARK 923 INTER-LIGAND FREE ENERGY PREDICTED BY IDOCK:   -7.51 KCAL/MOL
REMARK 924 INTRA-LIGAND FREE ENERGY PREDICTED BY IDOCK:   -0.44 KCAL/MOL
REMARK 927      BINDING AFFINITY PREDICTED BY RF-SCORE:    0.00 PKD
ROOT
HETATM    1  C   UNL     1     -11.121   5.993  69.393  1.00  0.00    -0.445 C  
HETATM    2  C   UNL     1     -10.799   6.460  67.983  1.00  0.00    -0.396 C  
ENDROOT
BRANCH   2   3
HETATM    3  C   UNL     1     -10.247   7.859  67.786  1.00  0.00    -0.276 A  
HETATM    4  C   UNL     1      -8.846   7.981  67.556  1.00  0.00    -0.129 A  
HETATM    5  C   UNL     1      -8.345   9.154  66.990  1.00  0.00    -0.120 A  
HETATM    6  C   UNL     1     -11.004   9.041  67.923  1.00  0.00    -0.001 A  
HETATM    7  C   UNL     1     -10.362  10.252  67.682  1.00  0.00    -0.264 A  
HETATM    8  C   UNL     1      -9.148  10.274  66.993  1.00  0.00    -0.154 A  
HETATM    9  C   UNL     1      -8.625  11.673  66.910  1.00  0.00    -0.174 C  
HETATM   10  C   UNL     1      -8.952  12.030  68.370  1.00  0.00    -0.153 C  
HETATM   11  C   UNL     1     -10.489  11.599  68.417  1.00  0.00    -0.230 C  
BRANCH   4  12
HETATM   12  C   UNL     1      -7.901   6.945  68.145  1.00  0.00    -0.114 C  
HETATM   13  C   UNL     1      -7.539   7.105  69.622  1.00  0.00    -0.104 C  
ENDBRANCH   4  12
BRANCH  10  14
HETATM   14  N   UNL     1      -8.405  13.327  68.819  1.00  0.00    -0.357 NA 
HETATM   15  H   UNL     1      -7.939  13.257  69.723  1.00  0.00     0.000 HD 
BRANCH  14  16
HETATM   16  C   UNL     1      -7.495  13.885  67.748  1.00  0.00    -0.167 C  
BRANCH  16  17
HETATM   17  C   UNL     1      -7.025  15.354  67.939  1.00  0.00    -0.145 C  
HETATM   18  H   UNL     1      -6.129  16.353  69.354  1.00  0.00     0.000 HD 
HETATM   19  O   UNL     1      -6.416  15.454  69.238  1.00  0.00    -0.121 OA 
BRANCH  17  20
HETATM   20  C   UNL     1      -8.131  16.419  67.793  1.00  0.00    -0.167 A  
HETATM   21  C   UNL     1      -9.149  16.339  66.813  1.00  0.00    -0.257 A  
HETATM   22  C   UNL     1      -9.362  15.149  65.976  1.00  0.00    -0.326 C  
HETATM   23  C   UNL     1     -10.291  15.125  65.012  1.00  0.00    -0.377 C  
HETATM   24  C   UNL     1     -11.128  16.320  64.725  1.00  0.00    -0.281 C  
HETATM   25  N   UNL     1     -10.966  17.397  65.550  1.00  0.00    -0.049 N  
HETATM   26  O   UNL     1     -11.925  16.321  63.802  1.00  0.00    -0.973 OA 
HETATM   27  H   UNL     1     -11.556  18.214  65.395  1.00  0.00     0.000 HD 
HETATM   28  C   UNL     1     -10.030  17.440  66.604  1.00  0.00    -0.308 A  
HETATM   29  C   UNL     1      -9.940  18.581  67.407  1.00  0.00    -0.330 A  
HETATM   30  C   UNL     1      -8.990  18.644  68.413  1.00  0.00    -0.356 A  
HETATM   31  O   UNL     1     -10.765  19.664  67.269  1.00  0.00    -0.474 OA 
HETATM   32  C   UNL     1      -8.103  17.577  68.608  1.00  0.00    -0.263 A  
HETATM   33  H   UNL     1     -10.704  20.440  67.815  1.00  0.00     0.000 HD 
ENDBRANCH  17  20
ENDBRANCH  16  17
ENDBRANCH  14  16
ENDBRANCH  10  14
ENDBRANCH   2   3
TORSDOF 6
ENDMDL
MODEL      190
REMARK 921   NORMALIZED FREE ENERGY PREDICTED BY IDOCK:   -4.93 KCAL/MOL
REMARK 922        TOTAL FREE ENERGY PREDICTED BY IDOCK:   -7.94 KCAL/MOL
REMARK 923 INTER-LIGAND FREE ENERGY PREDICTED BY IDOCK:   -8.35 KCAL/MOL
REMARK 924 INTRA-LIGAND FREE ENERGY PREDICTED BY IDOCK:    0.40 KCAL/MOL
REMARK 927      BINDING AFFINITY PREDICTED BY RF-SCORE:    0.00 PKD
ROOT
HETATM    1  C   UNL     1      -7.536   6.137  74.555  1.00  0.00    -0.093 C  
HETATM    2  C   UNL     1      -7.999   7.567  74.331  1.00  0.00    -0.216 C  
ENDROOT
BRANCH   2   3
HETATM    3  C   UNL     1      -8.968   7.849  73.198  1.00  0.00    -0.304 A  
HETATM    4  C   UNL     1      -8.413   8.290  71.961  1.00  0.00    -0.227 A  
HETATM    5  C   UNL     1      -9.174   8.189  70.796  1.00  0.00    -0.165 A  
HETATM    6  C   UNL     1     -10.372   7.810  73.321  1.00  0.00    -0.364 A  
HETATM    7  C   UNL     1     -11.128   8.065  72.181  1.00  0.00    -0.372 A  
HETATM    8  C   UNL     1     -10.534   8.002  70.919  1.00  0.00    -0.223 A  
HETATM    9  C   UNL     1     -11.524   8.372  69.861  1.00  0.00     0.171 C  
HETATM   10  C   UNL     1     -12.109   9.568  70.631  1.00  0.00    -0.162 C  
HETATM   11  C   UNL     1     -12.438   8.859  72.024  1.00  0.00    -0.461 C  
BRANCH   4  12
HETATM   12  C   UNL     1      -7.111   9.075  71.966  1.00  0.00     0.129 C  
HETATM   13  C   UNL     1      -6.749   9.814  70.677  1.00  0.00    -0.111 C  
ENDBRANCH   4  12
BRANCH  10  14
HETATM   14  N   UNL     1     -13.042  10.402  69.846  1.00  0.00    -0.519 NA 
HETATM   15  H   UNL     1     -13.650  10.965  70.440  1.00  0.00     0.000 HD 
BRANCH  14  16
HETATM   16  C   UNL     1     -12.257  11.247  68.868  1.00  0.00    -0.093 C  
BRANCH  16  17
HETATM   17  C   UNL     1     -10.871  10.694  68.435  1.00  0.00    -0.237 C  
HETATM   18  H   UNL     1      -9.018  11.060  68.919  1.00  0.00     0.000 HD 
HETATM   19  O   UNL     1      -9.865  11.398  69.184  1.00  0.00    -0.096 OA 
BRANCH  17  20
HETATM   20  C   UNL     1     -10.569  10.794  66.926  1.00  0.00    -0.312 A  
HETATM   21  C   UNL     1     -11.084  11.828  66.107  1.00  0.00    -0.358 A  
HETATM   22  C   UNL     1     -11.788  13.000  66.647  1.00  0.00    -0.455 C  
HETATM   23  C   UNL     1     -12.322  13.930  65.844  1.00  0.00    -0.517 C  
HETATM   24  C   UNL     1     -12.252  13.796  64.365  1.00  0.00    -0.399 C  
HETATM   25  N   UNL     1     -11.541  12.738  63.876  1.00  0.00    -0.416 N  
HETATM   26  O   UNL     1     -12.799  14.606  63.635  1.00  0.00    -0.637 OA 
HETATM   27  H   UNL     1     -11.448  12.647  62.864  1.00  0.00     0.000 HD 
HETATM   28  C   UNL     1     -10.926  11.765  64.691  1.00  0.00    -0.310 A  
HETATM   29  C   UNL     1     -10.207  10.721  64.105  1.00  0.00    -0.344 A  
HETATM   30  C   UNL     1      -9.642   9.738  64.902  1.00  0.00    -0.316 A  
HETATM   31  O   UNL     1     -10.005  10.611  62.755  1.00  0.00    -0.625 OA 
HETATM   32  C   UNL     1      -9.814   9.777  66.291  1.00  0.00    -0.315 A  
HETATM   33  H   UNL     1      -9.516   9.901  62.357  1.00  0.00     0.000 HD 
ENDBRANCH  17  20
ENDBRANCH  16  17
ENDBRANCH  14  16
ENDBRANCH  10  14
ENDBRANCH   2   3
TORSDOF 6
ENDMDL
MODEL      191
REMARK 921   NORMALIZED FREE ENERGY PREDICTED BY IDOCK:   -4.93 KCAL/MOL
REMARK 922        TOTAL FREE ENERGY PREDICTED BY IDOCK:   -7.93 KCAL/MOL
REMARK 923 INTER-LIGAND FREE ENERGY PREDICTED BY IDOCK:   -7.20 KCAL/MOL
REMARK 924 INTRA-LIGAND FREE ENERGY PREDICTED BY IDOCK:   -0.73 KCAL/MOL
REMARK 927      BINDING AFFINITY PREDICTED BY RF-SCORE:    0.00 PKD
ROOT
HETATM    1  C   UNL     1      -5.331   3.599  62.487  1.00  0.00    -0.005 C  
HETATM    2  C   UNL     1      -6.392   2.775  63.199  1.00  0.00    -0.018 C  
ENDROOT
BRANCH   2   3
HETATM    3  C   UNL     1      -7.326   3.473  64.170  1.00  0.00    -0.059 A  
HETATM    4  C   UNL     1      -8.692   3.066  64.167  1.00  0.00    -0.093 A  
HETATM    5  C   UNL     1      -9.497   3.367  65.267  1.00  0.00    -0.145 A  
HETATM    6  C   UNL     1      -6.957   4.560  64.989  1.00  0.00    -0.061 A  
HETATM    7  C   UNL     1      -7.919   5.076  65.851  1.00  0.00    -0.107 A  
HETATM    8  C   UNL     1      -9.061   4.331  66.150  1.00  0.00    -0.133 A  
HETATM    9  C   UNL     1      -9.971   5.113  67.044  1.00  0.00    -0.222 C  
HETATM   10  C   UNL     1      -9.814   6.437  66.276  1.00  0.00     0.009 C  
HETATM   11  C   UNL     1      -8.221   6.538  66.232  1.00  0.00    -0.119 C  
BRANCH   4  12
HETATM   12  C   UNL     1      -9.308   2.532  62.884  1.00  0.00    -0.090 C  
HETATM   13  C   UNL     1     -10.805   2.226  62.916  1.00  0.00    -0.214 C  
ENDBRANCH   4  12
BRANCH  10  14
HETATM   14  N   UNL     1     -10.735   7.507  66.711  1.00  0.00    -0.477 NA 
HETATM   15  H   UNL     1     -11.583   7.137  67.139  1.00  0.00     0.000 HD 
BRANCH  14  16
HETATM   16  C   UNL     1     -10.001   8.459  67.628  1.00  0.00    -0.190 C  
BRANCH  16  17
HETATM   17  C   UNL     1      -9.509   9.788  66.992  1.00  0.00    -0.157 C  
HETATM   18  H   UNL     1      -7.884  10.863  67.101  1.00  0.00     0.000 HD 
HETATM   19  O   UNL     1      -8.185  10.049  67.490  1.00  0.00    -0.113 OA 
BRANCH  17  20
HETATM   20  C   UNL     1     -10.416  11.010  67.246  1.00  0.00    -0.270 A  
HETATM   21  C   UNL     1     -11.034  11.737  66.200  1.00  0.00    -0.355 A  
HETATM   22  C   UNL     1     -11.028  11.287  64.801  1.00  0.00    -0.262 C  
HETATM   23  C   UNL     1     -11.564  12.029  63.823  1.00  0.00    -0.565 C  
HETATM   24  C   UNL     1     -12.160  13.359  64.110  1.00  0.00    -0.433 C  
HETATM   25  N   UNL     1     -12.218  13.738  65.421  1.00  0.00    -0.412 N  
HETATM   26  O   UNL     1     -12.585  14.064  63.209  1.00  0.00    -0.801 OA 
HETATM   27  H   UNL     1     -12.657  14.631  65.645  1.00  0.00     0.000 HD 
HETATM   28  C   UNL     1     -11.705  12.963  66.482  1.00  0.00    -0.393 A  
HETATM   29  C   UNL     1     -11.818  13.424  67.796  1.00  0.00    -0.358 A  
HETATM   30  C   UNL     1     -11.274  12.686  68.835  1.00  0.00    -0.329 A  
HETATM   31  O   UNL     1     -12.464  14.582  68.135  1.00  0.00    -0.589 OA 
HETATM   32  C   UNL     1     -10.590  11.494  68.566  1.00  0.00    -0.236 A  
HETATM   33  H   UNL     1     -12.540  14.895  69.028  1.00  0.00     0.000 HD 
ENDBRANCH  17  20
ENDBRANCH  16  17
ENDBRANCH  14  16
ENDBRANCH  10  14
ENDBRANCH   2   3
TORSDOF 6
ENDMDL
MODEL      192
REMARK 921   NORMALIZED FREE ENERGY PREDICTED BY IDOCK:   -4.89 KCAL/MOL
REMARK 922        TOTAL FREE ENERGY PREDICTED BY IDOCK:   -7.89 KCAL/MOL
REMARK 923 INTER-LIGAND FREE ENERGY PREDICTED BY IDOCK:   -7.00 KCAL/MOL
REMARK 924 INTRA-LIGAND FREE ENERGY PREDICTED BY IDOCK:   -0.89 KCAL/MOL
REMARK 927      BINDING AFFINITY PREDICTED BY RF-SCORE:    0.00 PKD
ROOT
HETATM    1  C   UNL     1      -6.021   4.712  62.398  1.00  0.00    -0.014 C  
HETATM    2  C   UNL     1      -6.847   3.587  63.000  1.00  0.00    -0.035 C  
ENDROOT
BRANCH   2   3
HETATM    3  C   UNL     1      -7.727   3.890  64.198  1.00  0.00    -0.083 A  
HETATM    4  C   UNL     1      -8.953   3.172  64.305  1.00  0.00    -0.108 A  
HETATM    5  C   UNL     1      -9.602   3.107  65.539  1.00  0.00    -0.015 A  
HETATM    6  C   UNL     1      -7.464   4.903  65.144  1.00  0.00    -0.076 A  
HETATM    7  C   UNL     1      -8.350   5.040  66.207  1.00  0.00    -0.112 A  
HETATM    8  C   UNL     1      -9.237   4.007  66.517  1.00  0.00    -0.171 A  
HETATM    9  C   UNL     1     -10.125   4.408  67.651  1.00  0.00    -0.038 C  
HETATM   10  C   UNL     1     -10.391   5.828  67.124  1.00  0.00    -0.240 C  
HETATM   11  C   UNL     1      -8.889   6.315  66.885  1.00  0.00    -0.115 C  
BRANCH   4  12
HETATM   12  C   UNL     1      -9.652   2.699  63.041  1.00  0.00    -0.093 C  
HETATM   13  C   UNL     1     -11.082   2.182  63.199  1.00  0.00    -0.241 C  
ENDBRANCH   4  12
BRANCH  10  14
HETATM   14  N   UNL     1     -11.431   6.571  67.866  1.00  0.00    -0.641 NA 
HETATM   15  H   UNL     1     -12.371   6.342  67.546  1.00  0.00     0.000 HD 
BRANCH  14  16
HETATM   16  C   UNL     1     -11.257   6.330  69.348  1.00  0.00    -0.420 C  
BRANCH  16  17
HETATM   17  C   UNL     1     -10.525   7.443  70.147  1.00  0.00    -0.220 C  
HETATM   18  H   UNL     1      -9.461   7.509  71.781  1.00  0.00     0.000 HD 
HETATM   19  O   UNL     1      -9.909   6.828  71.292  1.00  0.00    -0.177 OA 
BRANCH  17  20
HETATM   20  C   UNL     1     -11.415   8.619  70.597  1.00  0.00    -0.256 A  
HETATM   21  C   UNL     1     -11.352   9.902  70.001  1.00  0.00    -0.303 A  
HETATM   22  C   UNL     1     -10.580  10.179  68.781  1.00  0.00    -0.236 C  
HETATM   23  C   UNL     1     -10.486  11.416  68.276  1.00  0.00    -0.221 C  
HETATM   24  C   UNL     1     -11.135  12.570  68.951  1.00  0.00    -0.260 C  
HETATM   25  N   UNL     1     -11.902  12.291  70.046  1.00  0.00    -0.455 N  
HETATM   26  O   UNL     1     -10.990  13.706  68.529  1.00  0.00    -0.248 OA 
HETATM   27  H   UNL     1     -12.387  13.063  70.503  1.00  0.00     0.000 HD 
HETATM   28  C   UNL     1     -12.061  10.995  70.579  1.00  0.00    -0.377 A  
HETATM   29  C   UNL     1     -12.876  10.799  71.697  1.00  0.00    -0.457 A  
HETATM   30  C   UNL     1     -12.997   9.535  72.250  1.00  0.00    -0.466 A  
HETATM   31  O   UNL     1     -13.595  11.802  72.289  1.00  0.00    -0.543 OA 
HETATM   32  C   UNL     1     -12.284   8.460  71.705  1.00  0.00    -0.377 A  
HETATM   33  H   UNL     1     -14.149  11.669  73.049  1.00  0.00     0.000 HD 
ENDBRANCH  17  20
ENDBRANCH  16  17
ENDBRANCH  14  16
ENDBRANCH  10  14
ENDBRANCH   2   3
TORSDOF 6
ENDMDL
MODEL      193
REMARK 921   NORMALIZED FREE ENERGY PREDICTED BY IDOCK:   -4.88 KCAL/MOL
REMARK 922        TOTAL FREE ENERGY PREDICTED BY IDOCK:   -7.87 KCAL/MOL
REMARK 923 INTER-LIGAND FREE ENERGY PREDICTED BY IDOCK:   -7.60 KCAL/MOL
REMARK 924 INTRA-LIGAND FREE ENERGY PREDICTED BY IDOCK:   -0.27 KCAL/MOL
REMARK 927      BINDING AFFINITY PREDICTED BY RF-SCORE:    0.00 PKD
ROOT
HETATM    1  C   UNL     1      -9.038   1.545  64.501  1.00  0.00    -0.116 C  
HETATM    2  C   UNL     1      -8.961   1.601  66.018  1.00  0.00    -0.095 C  
ENDROOT
BRANCH   2   3
HETATM    3  C   UNL     1      -9.094   2.946  66.706  1.00  0.00    -0.171 A  
HETATM    4  C   UNL     1      -8.763   3.006  68.091  1.00  0.00    -0.139 A  
HETATM    5  C   UNL     1      -8.486   4.243  68.675  1.00  0.00    -0.096 A  
HETATM    6  C   UNL     1      -9.620   4.104  66.097  1.00  0.00    -0.204 A  
HETATM    7  C   UNL     1      -9.649   5.274  66.849  1.00  0.00    -0.153 A  
HETATM    8  C   UNL     1      -8.872   5.382  68.004  1.00  0.00    -0.105 A  
HETATM    9  C   UNL     1      -9.115   6.699  68.671  1.00  0.00    -0.126 C  
HETATM   10  C   UNL     1     -10.643   6.662  68.496  1.00  0.00    -0.233 C  
HETATM   11  C   UNL     1     -10.729   6.370  66.928  1.00  0.00    -0.408 C  
BRANCH   4  12
HETATM   12  C   UNL     1      -8.952   1.770  68.956  1.00  0.00    -0.149 C  
HETATM   13  C   UNL     1      -9.134   2.001  70.456  1.00  0.00    -0.162 C  
ENDBRANCH   4  12
BRANCH  10  14
HETATM   14  N   UNL     1     -11.366   7.731  69.215  1.00  0.00    -0.335 NA 
HETATM   15  H   UNL     1     -11.470   7.526  70.208  1.00  0.00     0.000 HD 
BRANCH  14  16
HETATM   16  C   UNL     1     -10.676   9.054  68.973  1.00  0.00    -0.141 C  
BRANCH  16  17
HETATM   17  C   UNL     1     -11.269   9.947  67.849  1.00  0.00    -0.038 C  
HETATM   18  H   UNL     1     -10.806  10.336  65.995  1.00  0.00     0.000 HD 
HETATM   19  O   UNL     1     -10.443   9.790  66.682  1.00  0.00    -0.218 OA 
BRANCH  17  20
HETATM   20  C   UNL     1     -11.400  11.443  68.203  1.00  0.00    -0.374 A  
HETATM   21  C   UNL     1     -11.982  11.898  69.410  1.00  0.00    -0.350 A  
HETATM   22  C   UNL     1     -12.336  10.998  70.516  1.00  0.00    -0.462 C  
HETATM   23  C   UNL     1     -12.946  11.448  71.620  1.00  0.00    -0.523 C  
HETATM   24  C   UNL     1     -13.320  12.880  71.759  1.00  0.00    -0.359 C  
HETATM   25  N   UNL     1     -12.928  13.718  70.755  1.00  0.00    -0.223 N  
HETATM   26  O   UNL     1     -13.936  13.276  72.734  1.00  0.00    -0.701 OA 
HETATM   27  H   UNL     1     -13.141  14.711  70.846  1.00  0.00     0.000 HD 
HETATM   28  C   UNL     1     -12.244  13.287  69.599  1.00  0.00    -0.199 A  
HETATM   29  C   UNL     1     -11.871  14.217  68.625  1.00  0.00    -0.344 A  
HETATM   30  C   UNL     1     -11.241  13.790  67.467  1.00  0.00    -0.316 A  
HETATM   31  O   UNL     1     -12.079  15.564  68.752  1.00  0.00    -0.558 OA 
HETATM   32  C   UNL     1     -11.002  12.425  67.262  1.00  0.00    -0.302 A  
HETATM   33  H   UNL     1     -11.826  16.196  68.090  1.00  0.00     0.000 HD 
ENDBRANCH  17  20
ENDBRANCH  16  17
ENDBRANCH  14  16
ENDBRANCH  10  14
ENDBRANCH   2   3
TORSDOF 6
ENDMDL
MODEL      194
REMARK 921   NORMALIZED FREE ENERGY PREDICTED BY IDOCK:   -4.86 KCAL/MOL
REMARK 922        TOTAL FREE ENERGY PREDICTED BY IDOCK:   -7.85 KCAL/MOL
REMARK 923 INTER-LIGAND FREE ENERGY PREDICTED BY IDOCK:   -7.55 KCAL/MOL
REMARK 924 INTRA-LIGAND FREE ENERGY PREDICTED BY IDOCK:   -0.30 KCAL/MOL
REMARK 927      BINDING AFFINITY PREDICTED BY RF-SCORE:    0.00 PKD
ROOT
HETATM    1  C   UNL     1      -6.307  20.363  67.036  1.00  0.00    -0.255 C  
HETATM    2  C   UNL     1      -7.101  19.656  68.122  1.00  0.00    -0.327 C  
ENDROOT
BRANCH   2   3
HETATM    3  C   UNL     1      -8.076  18.566  67.719  1.00  0.00    -0.264 A  
HETATM    4  C   UNL     1      -7.733  17.226  68.062  1.00  0.00    -0.202 A  
HETATM    5  C   UNL     1      -8.729  16.248  68.079  1.00  0.00    -0.178 A  
HETATM    6  C   UNL     1      -9.232  18.778  66.940  1.00  0.00    -0.316 A  
HETATM    7  C   UNL     1     -10.045  17.681  66.676  1.00  0.00    -0.335 A  
HETATM    8  C   UNL     1      -9.919  16.518  67.440  1.00  0.00    -0.267 A  
HETATM    9  C   UNL     1     -10.850  15.463  66.934  1.00  0.00    -0.313 C  
HETATM   10  C   UNL     1     -10.553  15.717  65.446  1.00  0.00    -0.421 C  
HETATM   11  C   UNL     1     -10.795  17.295  65.388  1.00  0.00    -0.024 C  
BRANCH   4  12
HETATM   12  C   UNL     1      -6.267  16.835  68.166  1.00  0.00    -0.136 C  
HETATM   13  C   UNL     1      -5.766  16.406  69.546  1.00  0.00    -0.161 C  
ENDBRANCH   4  12
BRANCH  10  14
HETATM   14  N   UNL     1     -11.137  14.720  64.527  1.00  0.00    -0.622 NA 
HETATM   15  H   UNL     1     -11.191  15.063  63.568  1.00  0.00     0.000 HD 
BRANCH  14  16
HETATM   16  C   UNL     1     -10.360  13.427  64.629  1.00  0.00    -0.381 C  
BRANCH  16  17
HETATM   17  C   UNL     1     -11.074  12.149  64.109  1.00  0.00    -0.364 C  
HETATM   18  H   UNL     1     -12.740  11.223  64.522  1.00  0.00     0.000 HD 
HETATM   19  O   UNL     1     -12.303  12.005  64.840  1.00  0.00    -0.367 OA 
BRANCH  17  20
HETATM   20  C   UNL     1     -10.247  10.851  64.209  1.00  0.00    -0.430 A  
HETATM   21  C   UNL     1      -9.998  10.193  65.438  1.00  0.00    -0.377 A  
HETATM   22  C   UNL     1     -10.659  10.571  66.695  1.00  0.00    -0.263 C  
HETATM   23  C   UNL     1     -10.355   9.974  67.855  1.00  0.00    -0.249 C  
HETATM   24  C   UNL     1      -9.309   8.921  67.924  1.00  0.00    -0.141 C  
HETATM   25  N   UNL     1      -8.748   8.533  66.740  1.00  0.00    -0.119 N  
HETATM   26  O   UNL     1      -8.984   8.426  68.990  1.00  0.00    -0.145 OA 
HETATM   27  H   UNL     1      -8.054   7.785  66.758  1.00  0.00     0.000 HD 
HETATM   28  C   UNL     1      -9.076   9.107  65.494  1.00  0.00    -0.219 A  
HETATM   29  C   UNL     1      -8.461   8.639  64.330  1.00  0.00    -0.095 A  
HETATM   30  C   UNL     1      -8.747   9.234  63.111  1.00  0.00    -0.194 A  
HETATM   31  O   UNL     1      -7.580   7.592  64.313  1.00  0.00    -0.091 OA 
HETATM   32  C   UNL     1      -9.631  10.318  63.050  1.00  0.00    -0.297 A  
HETATM   33  H   UNL     1      -7.161   7.274  63.522  1.00  0.00     0.000 HD 
ENDBRANCH  17  20
ENDBRANCH  16  17
ENDBRANCH  14  16
ENDBRANCH  10  14
ENDBRANCH   2   3
TORSDOF 6
ENDMDL
MODEL      195
REMARK 921   NORMALIZED FREE ENERGY PREDICTED BY IDOCK:   -4.86 KCAL/MOL
REMARK 922        TOTAL FREE ENERGY PREDICTED BY IDOCK:   -7.85 KCAL/MOL
REMARK 923 INTER-LIGAND FREE ENERGY PREDICTED BY IDOCK:   -7.35 KCAL/MOL
REMARK 924 INTRA-LIGAND FREE ENERGY PREDICTED BY IDOCK:   -0.50 KCAL/MOL
REMARK 927      BINDING AFFINITY PREDICTED BY RF-SCORE:    0.00 PKD
ROOT
HETATM    1  C   UNL     1      -7.171  19.048  67.609  1.00  0.00    -0.243 C  
HETATM    2  C   UNL     1      -7.597  18.455  66.276  1.00  0.00    -0.289 C  
ENDROOT
BRANCH   2   3
HETATM    3  C   UNL     1      -8.526  17.256  66.275  1.00  0.00    -0.278 A  
HETATM    4  C   UNL     1      -9.897  17.495  65.967  1.00  0.00    -0.195 A  
HETATM    5  C   UNL     1     -10.704  16.428  65.568  1.00  0.00    -0.300 A  
HETATM    6  C   UNL     1      -8.148  15.954  66.661  1.00  0.00    -0.298 A  
HETATM    7  C   UNL     1      -9.108  14.950  66.578  1.00  0.00    -0.309 A  
HETATM    8  C   UNL     1     -10.261  15.147  65.816  1.00  0.00    -0.365 A  
HETATM    9  C   UNL     1     -11.165  13.961  65.929  1.00  0.00    -0.297 C  
HETATM   10  C   UNL     1     -10.989  13.796  67.447  1.00  0.00    -0.284 C  
HETATM   11  C   UNL     1      -9.394  13.777  67.534  1.00  0.00    -0.222 C  
BRANCH   4  12
HETATM   12  C   UNL     1     -10.513  18.843  66.305  1.00  0.00    -0.510 C  
HETATM   13  C   UNL     1     -10.867  19.089  67.771  1.00  0.00    -0.374 C  
ENDBRANCH   4  12
BRANCH  10  14
HETATM   14  N   UNL     1     -11.898  12.808  68.064  1.00  0.00    -0.352 NA 
HETATM   15  H   UNL     1     -12.265  12.144  67.384  1.00  0.00     0.000 HD 
BRANCH  14  16
HETATM   16  C   UNL     1     -11.190  12.122  69.210  1.00  0.00    -0.226 C  
BRANCH  16  17
HETATM   17  C   UNL     1     -11.495  10.611  69.404  1.00  0.00    -0.286 C  
HETATM   18  H   UNL     1     -11.464   9.369  70.908  1.00  0.00     0.000 HD 
HETATM   19  O   UNL     1     -11.278  10.294  70.789  1.00  0.00    -0.329 OA 
BRANCH  17  20
HETATM   20  C   UNL     1     -10.674   9.658  68.511  1.00  0.00    -0.239 A  
HETATM   21  C   UNL     1     -10.543   8.274  68.782  1.00  0.00    -0.152 A  
HETATM   22  C   UNL     1     -11.327   7.585  69.817  1.00  0.00     0.007 C  
HETATM   23  C   UNL     1     -11.135   6.289  70.096  1.00  0.00    -0.443 C  
HETATM   24  C   UNL     1     -10.094   5.499  69.388  1.00  0.00    -0.236 C  
HETATM   25  N   UNL     1      -9.417   6.132  68.386  1.00  0.00    -0.119 N  
HETATM   26  O   UNL     1      -9.873   4.338  69.691  1.00  0.00    -0.213 OA 
HETATM   27  H   UNL     1      -8.723   5.599  67.862  1.00  0.00     0.000 HD 
HETATM   28  C   UNL     1      -9.624   7.482  68.034  1.00  0.00    -0.143 A  
HETATM   29  C   UNL     1      -8.893   8.047  66.984  1.00  0.00    -0.133 A  
HETATM   30  C   UNL     1      -9.061   9.385  66.667  1.00  0.00    -0.181 A  
HETATM   31  O   UNL     1      -8.008   7.338  66.217  1.00  0.00    -0.102 OA 
HETATM   32  C   UNL     1      -9.943  10.177  67.414  1.00  0.00    -0.238 A  
HETATM   33  H   UNL     1      -7.511   7.722  65.504  1.00  0.00     0.000 HD 
ENDBRANCH  17  20
ENDBRANCH  16  17
ENDBRANCH  14  16
ENDBRANCH  10  14
ENDBRANCH   2   3
TORSDOF 6
ENDMDL
MODEL      196
REMARK 921   NORMALIZED FREE ENERGY PREDICTED BY IDOCK:   -4.86 KCAL/MOL
REMARK 922        TOTAL FREE ENERGY PREDICTED BY IDOCK:   -7.84 KCAL/MOL
REMARK 923 INTER-LIGAND FREE ENERGY PREDICTED BY IDOCK:   -7.03 KCAL/MOL
REMARK 924 INTRA-LIGAND FREE ENERGY PREDICTED BY IDOCK:   -0.81 KCAL/MOL
REMARK 927      BINDING AFFINITY PREDICTED BY RF-SCORE:    0.00 PKD
ROOT
HETATM    1  C   UNL     1      -8.278   4.914  71.597  1.00  0.00    -0.114 C  
HETATM    2  C   UNL     1      -9.568   5.714  71.675  1.00  0.00    -0.184 C  
ENDROOT
BRANCH   2   3
HETATM    3  C   UNL     1      -9.603   7.101  71.061  1.00  0.00    -0.158 A  
HETATM    4  C   UNL     1     -10.699   7.406  70.203  1.00  0.00    -0.254 A  
HETATM    5  C   UNL     1     -11.003   8.740  69.929  1.00  0.00    -0.184 A  
HETATM    6  C   UNL     1      -8.577   8.058  71.196  1.00  0.00    -0.145 A  
HETATM    7  C   UNL     1      -8.768   9.300  70.598  1.00  0.00    -0.282 A  
HETATM    8  C   UNL     1     -10.048   9.695  70.202  1.00  0.00    -0.311 A  
HETATM    9  C   UNL     1      -9.992  11.032  69.532  1.00  0.00     0.074 C  
HETATM   10  C   UNL     1      -8.741  10.717  68.696  1.00  0.00    -0.148 C  
HETATM   11  C   UNL     1      -7.766  10.200  69.850  1.00  0.00    -0.171 C  
BRANCH   4  12
HETATM   12  C   UNL     1     -11.363   6.287  69.415  1.00  0.00    -0.448 C  
HETATM   13  C   UNL     1     -10.991   6.173  67.936  1.00  0.00    -0.399 C  
ENDBRANCH   4  12
BRANCH  10  14
HETATM   14  N   UNL     1      -8.411  11.739  67.681  1.00  0.00    -0.142 NA 
HETATM   15  H   UNL     1      -9.185  11.910  67.040  1.00  0.00     0.000 HD 
BRANCH  14  16
HETATM   16  C   UNL     1      -7.951  13.001  68.372  1.00  0.00    -0.135 C  
BRANCH  16  17
HETATM   17  C   UNL     1      -7.454  14.151  67.452  1.00  0.00    -0.134 C  
HETATM   18  H   UNL     1      -5.850  15.256  67.352  1.00  0.00     0.000 HD 
HETATM   19  O   UNL     1      -6.153  14.553  67.915  1.00  0.00    -0.141 OA 
BRANCH  17  20
HETATM   20  C   UNL     1      -8.387  15.377  67.376  1.00  0.00    -0.204 A  
HETATM   21  C   UNL     1      -9.457  15.471  66.454  1.00  0.00    -0.320 A  
HETATM   22  C   UNL     1      -9.898  14.342  65.623  1.00  0.00    -0.301 C  
HETATM   23  C   UNL     1     -10.871  14.478  64.713  1.00  0.00    -0.410 C  
HETATM   24  C   UNL     1     -11.525  15.792  64.481  1.00  0.00    -0.289 C  
HETATM   25  N   UNL     1     -11.153  16.817  65.303  1.00  0.00    -0.111 N  
HETATM   26  O   UNL     1     -12.362  15.931  63.605  1.00  0.00    -0.659 OA 
HETATM   27  H   UNL     1     -11.615  17.719  65.187  1.00  0.00     0.000 HD 
HETATM   28  C   UNL     1     -10.165  16.699  66.303  1.00  0.00    -0.334 A  
HETATM   29  C   UNL     1      -9.856  17.799  67.107  1.00  0.00    -0.311 A  
HETATM   30  C   UNL     1      -8.853  17.698  68.059  1.00  0.00    -0.257 A  
HETATM   31  O   UNL     1     -10.507  19.000  67.024  1.00  0.00    -0.385 OA 
HETATM   32  C   UNL     1      -8.135  16.504  68.197  1.00  0.00    -0.172 A  
HETATM   33  H   UNL     1     -10.296  19.748  67.570  1.00  0.00     0.000 HD 
ENDBRANCH  17  20
ENDBRANCH  16  17
ENDBRANCH  14  16
ENDBRANCH  10  14
ENDBRANCH   2   3
TORSDOF 6
ENDMDL
MODEL      197
REMARK 921   NORMALIZED FREE ENERGY PREDICTED BY IDOCK:   -4.85 KCAL/MOL
REMARK 922        TOTAL FREE ENERGY PREDICTED BY IDOCK:   -7.83 KCAL/MOL
REMARK 923 INTER-LIGAND FREE ENERGY PREDICTED BY IDOCK:   -7.81 KCAL/MOL
REMARK 924 INTRA-LIGAND FREE ENERGY PREDICTED BY IDOCK:   -0.01 KCAL/MOL
REMARK 927      BINDING AFFINITY PREDICTED BY RF-SCORE:    0.00 PKD
ROOT
HETATM    1  C   UNL     1     -10.684   3.808  74.259  1.00  0.00    -0.224 C  
HETATM    2  C   UNL     1      -9.490   4.071  73.356  1.00  0.00    -0.128 C  
ENDROOT
BRANCH   2   3
HETATM    3  C   UNL     1      -9.650   5.040  72.199  1.00  0.00    -0.191 A  
HETATM    4  C   UNL     1      -8.536   5.200  71.325  1.00  0.00    -0.132 A  
HETATM    5  C   UNL     1      -8.736   5.748  70.057  1.00  0.00    -0.132 A  
HETATM    6  C   UNL     1     -10.777   5.863  71.999  1.00  0.00    -0.282 A  
HETATM    7  C   UNL     1     -10.790   6.680  70.873  1.00  0.00    -0.297 A  
HETATM    8  C   UNL     1      -9.910   6.429  69.818  1.00  0.00    -0.189 A  
HETATM    9  C   UNL     1     -10.067   7.469  68.755  1.00  0.00    -0.191 C  
HETATM   10  C   UNL     1     -10.144   8.655  69.730  1.00  0.00    -0.199 C  
HETATM   11  C   UNL     1     -11.291   8.127  70.709  1.00  0.00    -0.283 C  
BRANCH   4  12
HETATM   12  C   UNL     1      -7.129   5.000  71.865  1.00  0.00    -0.067 C  
HETATM   13  C   UNL     1      -6.267   6.253  72.019  1.00  0.00    -0.042 C  
ENDBRANCH   4  12
BRANCH  10  14
HETATM   14  N   UNL     1     -10.107   9.983  69.083  1.00  0.00    -0.195 NA 
HETATM   15  H   UNL     1     -10.062   9.915  68.067  1.00  0.00     0.000 HD 
BRANCH  14  16
HETATM   16  C   UNL     1     -11.289  10.802  69.549  1.00  0.00    -0.289 C  
BRANCH  16  17
HETATM   17  C   UNL     1     -12.024  11.634  68.463  1.00  0.00    -0.217 C  
HETATM   18  H   UNL     1     -12.076  11.635  66.513  1.00  0.00     0.000 HD 
HETATM   19  O   UNL     1     -11.627  11.126  67.177  1.00  0.00    -0.495 OA 
BRANCH  17  20
HETATM   20  C   UNL     1     -11.776  13.155  68.525  1.00  0.00    -0.387 A  
HETATM   21  C   UNL     1     -11.756  13.978  67.373  1.00  0.00    -0.421 A  
HETATM   22  C   UNL     1     -12.158  13.500  66.043  1.00  0.00    -0.489 C  
HETATM   23  C   UNL     1     -12.067  14.281  64.959  1.00  0.00    -0.428 C  
HETATM   24  C   UNL     1     -11.522  15.661  65.053  1.00  0.00    -0.175 C  
HETATM   25  N   UNL     1     -11.212  16.116  66.302  1.00  0.00     0.107 N  
HETATM   26  O   UNL     1     -11.375  16.347  64.055  1.00  0.00    -0.964 OA 
HETATM   27  H   UNL     1     -10.872  17.073  66.395  1.00  0.00     0.000 HD 
HETATM   28  C   UNL     1     -11.338  15.338  67.472  1.00  0.00    -0.297 A  
HETATM   29  C   UNL     1     -11.009  15.889  68.713  1.00  0.00    -0.301 A  
HETATM   30  C   UNL     1     -11.088  15.112  69.857  1.00  0.00    -0.302 A  
HETATM   31  O   UNL     1     -10.617  17.190  68.878  1.00  0.00    -0.337 OA 
HETATM   32  C   UNL     1     -11.472  13.768  69.766  1.00  0.00    -0.267 A  
HETATM   33  H   UNL     1     -10.393  17.565  69.721  1.00  0.00     0.000 HD 
ENDBRANCH  17  20
ENDBRANCH  16  17
ENDBRANCH  14  16
ENDBRANCH  10  14
ENDBRANCH   2   3
TORSDOF 6
ENDMDL
MODEL      198
REMARK 921   NORMALIZED FREE ENERGY PREDICTED BY IDOCK:   -4.84 KCAL/MOL
REMARK 922        TOTAL FREE ENERGY PREDICTED BY IDOCK:   -7.81 KCAL/MOL
REMARK 923 INTER-LIGAND FREE ENERGY PREDICTED BY IDOCK:   -7.99 KCAL/MOL
REMARK 924 INTRA-LIGAND FREE ENERGY PREDICTED BY IDOCK:    0.18 KCAL/MOL
REMARK 927      BINDING AFFINITY PREDICTED BY RF-SCORE:    0.00 PKD
ROOT
HETATM    1  C   UNL     1      -7.269   8.296  74.551  1.00  0.00    -0.239 C  
HETATM    2  C   UNL     1      -7.615   7.309  73.449  1.00  0.00    -0.105 C  
ENDROOT
BRANCH   2   3
HETATM    3  C   UNL     1      -8.546   7.755  72.337  1.00  0.00    -0.176 A  
HETATM    4  C   UNL     1      -8.010   7.801  71.017  1.00  0.00    -0.090 A  
HETATM    5  C   UNL     1      -8.880   7.816  69.926  1.00  0.00    -0.142 A  
HETATM    6  C   UNL     1      -9.860   8.226  72.538  1.00  0.00    -0.368 A  
HETATM    7  C   UNL     1     -10.602   8.572  71.414  1.00  0.00    -0.312 A  
HETATM    8  C   UNL     1     -10.202   8.134  70.150  1.00  0.00    -0.199 A  
HETATM    9  C   UNL     1     -11.116   8.679  69.099  1.00  0.00     0.158 C  
HETATM   10  C   UNL     1     -11.178  10.097  69.691  1.00  0.00    -0.261 C  
HETATM   11  C   UNL     1     -11.577   9.745  71.197  1.00  0.00    -0.469 C  
BRANCH   4  12
HETATM   12  C   UNL     1      -6.527   8.074  70.824  1.00  0.00    -0.037 C  
HETATM   13  C   UNL     1      -6.156   9.235  69.902  1.00  0.00    -0.038 C  
ENDBRANCH   4  12
BRANCH  10  14
HETATM   14  N   UNL     1     -11.852  11.090  68.829  1.00  0.00    -0.509 NA 
HETATM   15  H   UNL     1     -12.579  11.603  69.327  1.00  0.00     0.000 HD 
BRANCH  14  16
HETATM   16  C   UNL     1     -10.818  12.010  68.221  1.00  0.00    -0.229 C  
BRANCH  16  17
HETATM   17  C   UNL     1     -10.797  13.471  68.751  1.00  0.00    -0.253 C  
HETATM   18  H   UNL     1     -11.825  14.488  70.060  1.00  0.00     0.000 HD 
HETATM   19  O   UNL     1     -11.838  13.595  69.736  1.00  0.00    -0.294 OA 
BRANCH  17  20
HETATM   20  C   UNL     1     -10.962  14.561  67.672  1.00  0.00    -0.293 A  
HETATM   21  C   UNL     1     -11.454  14.287  66.373  1.00  0.00    -0.361 A  
HETATM   22  C   UNL     1     -12.032  12.989  65.995  1.00  0.00    -0.498 C  
HETATM   23  C   UNL     1     -12.430  12.737  64.741  1.00  0.00    -0.539 C  
HETATM   24  C   UNL     1     -12.272  13.753  63.668  1.00  0.00    -0.256 C  
HETATM   25  N   UNL     1     -11.794  14.976  64.045  1.00  0.00    -0.846 N  
HETATM   26  O   UNL     1     -12.570  13.499  62.513  1.00  0.00     0.044 OA 
HETATM   27  H   UNL     1     -11.713  15.701  63.332  1.00  0.00     0.000 HD 
HETATM   28  C   UNL     1     -11.409  15.293  65.364  1.00  0.00    -0.253 A  
HETATM   29  C   UNL     1     -10.941  16.575  65.663  1.00  0.00    -0.051 A  
HETATM   30  C   UNL     1     -10.518  16.874  66.948  1.00  0.00    -0.271 A  
HETATM   31  O   UNL     1     -10.887  17.589  64.745  1.00  0.00    -0.814 OA 
HETATM   32  C   UNL     1     -10.535  15.885  67.939  1.00  0.00    -0.288 A  
HETATM   33  H   UNL     1     -10.569  18.461  64.948  1.00  0.00     0.000 HD 
ENDBRANCH  17  20
ENDBRANCH  16  17
ENDBRANCH  14  16
ENDBRANCH  10  14
ENDBRANCH   2   3
TORSDOF 6
ENDMDL
MODEL      199
REMARK 921   NORMALIZED FREE ENERGY PREDICTED BY IDOCK:   -4.83 KCAL/MOL
REMARK 922        TOTAL FREE ENERGY PREDICTED BY IDOCK:   -7.81 KCAL/MOL
REMARK 923 INTER-LIGAND FREE ENERGY PREDICTED BY IDOCK:   -7.25 KCAL/MOL
REMARK 924 INTRA-LIGAND FREE ENERGY PREDICTED BY IDOCK:   -0.56 KCAL/MOL
REMARK 927      BINDING AFFINITY PREDICTED BY RF-SCORE:    0.00 PKD
ROOT
HETATM    1  C   UNL     1      -6.151   3.307  70.994  1.00  0.00    -0.018 C  
HETATM    2  C   UNL     1      -7.565   2.902  70.611  1.00  0.00    -0.039 C  
ENDROOT
BRANCH   2   3
HETATM    3  C   UNL     1      -8.505   3.962  70.069  1.00  0.00    -0.095 A  
HETATM    4  C   UNL     1      -8.684   4.013  68.656  1.00  0.00    -0.130 A  
HETATM    5  C   UNL     1      -9.797   4.673  68.131  1.00  0.00    -0.170 A  
HETATM    6  C   UNL     1      -9.121   4.958  70.854  1.00  0.00    -0.184 A  
HETATM    7  C   UNL     1      -9.983   5.845  70.215  1.00  0.00    -0.247 A  
HETATM    8  C   UNL     1     -10.488   5.538  68.950  1.00  0.00    -0.282 A  
HETATM    9  C   UNL     1     -11.337   6.662  68.446  1.00  0.00    -0.110 C  
HETATM   10  C   UNL     1     -10.375   7.775  68.894  1.00  0.00    -0.213 C  
HETATM   11  C   UNL     1     -10.173   7.359  70.423  1.00  0.00    -0.201 C  
BRANCH   4  12
HETATM   12  C   UNL     1      -7.553   3.565  67.744  1.00  0.00    -0.069 C  
HETATM   13  C   UNL     1      -7.737   3.813  66.247  1.00  0.00    -0.089 C  
ENDBRANCH   4  12
BRANCH  10  14
HETATM   14  N   UNL     1     -10.731   9.123  68.407  1.00  0.00    -0.397 NA 
HETATM   15  H   UNL     1     -10.603   9.838  69.122  1.00  0.00     0.000 HD 
BRANCH  14  16
HETATM   16  C   UNL     1      -9.947   9.425  67.150  1.00  0.00    -0.204 C  
BRANCH  16  17
HETATM   17  C   UNL     1     -10.505  10.557  66.244  1.00  0.00    -0.183 C  
HETATM   18  H   UNL     1     -10.551  10.905  64.325  1.00  0.00     0.000 HD 
HETATM   19  O   UNL     1     -10.210  10.212  64.879  1.00  0.00    -0.300 OA 
BRANCH  17  20
HETATM   20  C   UNL     1      -9.969  11.970  66.556  1.00  0.00    -0.224 A  
HETATM   21  C   UNL     1     -10.493  13.140  65.955  1.00  0.00    -0.291 A  
HETATM   22  C   UNL     1     -11.711  13.139  65.133  1.00  0.00    -0.367 C  
HETATM   23  C   UNL     1     -12.147  14.249  64.523  1.00  0.00    -0.499 C  
HETATM   24  C   UNL     1     -11.394  15.526  64.627  1.00  0.00    -0.357 C  
HETATM   25  N   UNL     1     -10.300  15.531  65.445  1.00  0.00    -0.379 N  
HETATM   26  O   UNL     1     -11.753  16.519  64.015  1.00  0.00    -1.111 OA 
HETATM   27  H   UNL     1      -9.789  16.406  65.561  1.00  0.00     0.000 HD 
HETATM   28  C   UNL     1      -9.838  14.393  66.139  1.00  0.00    -0.320 A  
HETATM   29  C   UNL     1      -8.715  14.491  66.965  1.00  0.00    -0.234 A  
HETATM   30  C   UNL     1      -8.232  13.364  67.611  1.00  0.00    -0.177 A  
HETATM   31  O   UNL     1      -8.052  15.665  67.196  1.00  0.00    -0.176 OA 
HETATM   32  C   UNL     1      -8.853  12.124  67.416  1.00  0.00    -0.181 A  
HETATM   33  H   UNL     1      -7.288  15.732  67.757  1.00  0.00     0.000 HD 
ENDBRANCH  17  20
ENDBRANCH  16  17
ENDBRANCH  14  16
ENDBRANCH  10  14
ENDBRANCH   2   3
TORSDOF 6
ENDMDL
MODEL      200
REMARK 921   NORMALIZED FREE ENERGY PREDICTED BY IDOCK:   -4.83 KCAL/MOL
REMARK 922        TOTAL FREE ENERGY PREDICTED BY IDOCK:   -7.81 KCAL/MOL
REMARK 923 INTER-LIGAND FREE ENERGY PREDICTED BY IDOCK:   -6.68 KCAL/MOL
REMARK 924 INTRA-LIGAND FREE ENERGY PREDICTED BY IDOCK:   -1.13 KCAL/MOL
REMARK 927      BINDING AFFINITY PREDICTED BY RF-SCORE:    0.00 PKD
ROOT
HETATM    1  C   UNL     1     -11.352  16.125  64.585  1.00  0.00    -0.287 C  
HETATM    2  C   UNL     1     -11.912  14.716  64.700  1.00  0.00    -0.472 C  
ENDROOT
BRANCH   2   3
HETATM    3  C   UNL     1     -11.539  13.881  65.910  1.00  0.00    -0.348 A  
HETATM    4  C   UNL     1     -10.936  12.613  65.666  1.00  0.00    -0.313 A  
HETATM    5  C   UNL     1     -10.227  11.984  66.691  1.00  0.00    -0.229 A  
HETATM    6  C   UNL     1     -11.846  14.227  67.242  1.00  0.00    -0.444 A  
HETATM    7  C   UNL     1     -11.411  13.371  68.249  1.00  0.00    -0.330 A  
HETATM    8  C   UNL     1     -10.419  12.425  67.983  1.00  0.00    -0.227 A  
HETATM    9  C   UNL     1     -10.164  11.586  69.194  1.00  0.00    -0.038 C  
HETATM   10  C   UNL     1     -11.648  11.403  69.552  1.00  0.00    -0.331 C  
HETATM   11  C   UNL     1     -12.119  12.929  69.544  1.00  0.00    -0.274 C  
BRANCH   4  12
HETATM   12  C   UNL     1     -11.273  11.861  64.388  1.00  0.00    -0.401 C  
HETATM   13  C   UNL     1     -10.395  10.657  64.047  1.00  0.00    -0.262 C  
ENDBRANCH   4  12
BRANCH  10  14
HETATM   14  N   UNL     1     -11.901  10.428  70.632  1.00  0.00    -0.322 NA 
HETATM   15  H   UNL     1     -12.599   9.733  70.370  1.00  0.00     0.000 HD 
BRANCH  14  16
HETATM   16  C   UNL     1     -10.594   9.794  71.052  1.00  0.00    -0.225 C  
BRANCH  16  17
HETATM   17  C   UNL     1     -10.621   8.262  71.311  1.00  0.00    -0.219 C  
HETATM   18  H   UNL     1     -10.682   7.122  72.892  1.00  0.00     0.000 HD 
HETATM   19  O   UNL     1     -10.665   8.059  72.734  1.00  0.00    -0.331 OA 
BRANCH  17  20
HETATM   20  C   UNL     1      -9.442   7.476  70.704  1.00  0.00    -0.164 A  
HETATM   21  C   UNL     1      -9.383   7.113  69.336  1.00  0.00    -0.147 A  
HETATM   22  C   UNL     1     -10.336   7.613  68.336  1.00  0.00    -0.228 C  
HETATM   23  C   UNL     1     -10.296   7.202  67.061  1.00  0.00    -0.368 C  
HETATM   24  C   UNL     1      -9.303   6.192  66.613  1.00  0.00    -0.146 C  
HETATM   25  N   UNL     1      -8.382   5.783  67.535  1.00  0.00    -0.105 N  
HETATM   26  O   UNL     1      -9.312   5.767  65.470  1.00  0.00    -0.055 OA 
HETATM   27  H   UNL     1      -7.668   5.118  67.240  1.00  0.00     0.000 HD 
HETATM   28  C   UNL     1      -8.365   6.229  68.873  1.00  0.00    -0.120 A  
HETATM   29  C   UNL     1      -7.378   5.766  69.747  1.00  0.00    -0.071 A  
HETATM   30  C   UNL     1      -7.387   6.166  71.074  1.00  0.00    -0.083 A  
HETATM   31  O   UNL     1      -6.365   4.930  69.363  1.00  0.00    -0.028 OA 
HETATM   32  C   UNL     1      -8.398   7.014  71.544  1.00  0.00    -0.112 A  
HETATM   33  H   UNL     1      -5.694   4.614  69.957  1.00  0.00     0.000 HD 
ENDBRANCH  17  20
ENDBRANCH  16  17
ENDBRANCH  14  16
ENDBRANCH  10  14
ENDBRANCH   2   3
TORSDOF 6
ENDMDL
MODEL      201
REMARK 921   NORMALIZED FREE ENERGY PREDICTED BY IDOCK:   -4.83 KCAL/MOL
REMARK 922        TOTAL FREE ENERGY PREDICTED BY IDOCK:   -7.80 KCAL/MOL
REMARK 923 INTER-LIGAND FREE ENERGY PREDICTED BY IDOCK:   -7.92 KCAL/MOL
REMARK 924 INTRA-LIGAND FREE ENERGY PREDICTED BY IDOCK:    0.12 KCAL/MOL
REMARK 927      BINDING AFFINITY PREDICTED BY RF-SCORE:    0.00 PKD
ROOT
HETATM    1  C   UNL     1     -11.234   5.601  72.977  1.00  0.00    -0.319 C  
HETATM    2  C   UNL     1     -10.648   6.995  73.123  1.00  0.00    -0.350 C  
ENDROOT
BRANCH   2   3
HETATM    3  C   UNL     1     -11.090   8.077  72.155  1.00  0.00    -0.372 A  
HETATM    4  C   UNL     1     -10.318   8.245  70.969  1.00  0.00    -0.230 A  
HETATM    5  C   UNL     1     -10.873   8.922  69.882  1.00  0.00    -0.219 A  
HETATM    6  C   UNL     1     -12.137   8.988  72.402  1.00  0.00    -0.289 A  
HETATM    7  C   UNL     1     -12.445   9.906  71.404  1.00  0.00    -0.495 A  
HETATM    8  C   UNL     1     -11.991   9.699  70.099  1.00  0.00    -0.019 A  
HETATM    9  C   UNL     1     -12.393  10.842  69.223  1.00  0.00    -0.055 C  
HETATM   10  C   UNL     1     -12.032  11.933  70.244  1.00  0.00    -0.330 C  
HETATM   11  C   UNL     1     -12.834  11.392  71.515  1.00  0.00    -0.508 C  
BRANCH   4  12
HETATM   12  C   UNL     1      -8.837   7.903  70.989  1.00  0.00    -0.149 C  
HETATM   13  C   UNL     1      -7.966   8.555  69.915  1.00  0.00    -0.106 C  
ENDBRANCH   4  12
BRANCH  10  14
HETATM   14  N   UNL     1     -12.086  13.311  69.712  1.00  0.00    -0.312 NA 
HETATM   15  H   UNL     1     -11.979  14.012  70.444  1.00  0.00     0.000 HD 
BRANCH  14  16
HETATM   16  C   UNL     1     -11.056  13.466  68.617  1.00  0.00    -0.263 C  
BRANCH  16  17
HETATM   17  C   UNL     1     -10.002  12.331  68.494  1.00  0.00    -0.170 C  
HETATM   18  H   UNL     1      -8.113  12.137  68.937  1.00  0.00     0.000 HD 
HETATM   19  O   UNL     1      -8.757  12.831  69.012  1.00  0.00     0.248 OA 
BRANCH  17  20
HETATM   20  C   UNL     1      -9.795  11.782  67.068  1.00  0.00    -0.213 A  
HETATM   21  C   UNL     1     -10.488  12.289  65.942  1.00  0.00    -0.288 A  
HETATM   22  C   UNL     1     -11.315  13.503  65.993  1.00  0.00    -0.327 C  
HETATM   23  C   UNL     1     -12.011  13.923  64.928  1.00  0.00    -0.412 C  
HETATM   24  C   UNL     1     -12.001  13.157  63.655  1.00  0.00    -0.514 C  
HETATM   25  N   UNL     1     -11.179  12.067  63.599  1.00  0.00    -0.439 N  
HETATM   26  O   UNL     1     -12.689  13.501  62.709  1.00  0.00    -0.419 OA 
HETATM   27  H   UNL     1     -11.127  11.548  62.724  1.00  0.00     0.000 HD 
HETATM   28  C   UNL     1     -10.396  11.622  64.685  1.00  0.00    -0.292 A  
HETATM   29  C   UNL     1      -9.573  10.503  64.536  1.00  0.00    -0.302 A  
HETATM   30  C   UNL     1      -8.840  10.036  65.615  1.00  0.00    -0.184 A  
HETATM   31  O   UNL     1      -9.428   9.828  63.354  1.00  0.00    -0.446 OA 
HETATM   32  C   UNL     1      -8.943  10.669  66.860  1.00  0.00    -0.147 A  
HETATM   33  H   UNL     1      -8.869   9.067  63.253  1.00  0.00     0.000 HD 
ENDBRANCH  17  20
ENDBRANCH  16  17
ENDBRANCH  14  16
ENDBRANCH  10  14
ENDBRANCH   2   3
TORSDOF 6
ENDMDL
MODEL      202
REMARK 921   NORMALIZED FREE ENERGY PREDICTED BY IDOCK:   -4.81 KCAL/MOL
REMARK 922        TOTAL FREE ENERGY PREDICTED BY IDOCK:   -7.78 KCAL/MOL
REMARK 923 INTER-LIGAND FREE ENERGY PREDICTED BY IDOCK:   -7.05 KCAL/MOL
REMARK 924 INTRA-LIGAND FREE ENERGY PREDICTED BY IDOCK:   -0.72 KCAL/MOL
REMARK 927      BINDING AFFINITY PREDICTED BY RF-SCORE:    0.00 PKD
ROOT
HETATM    1  C   UNL     1      -8.779  17.703  67.864  1.00  0.00    -0.245 C  
HETATM    2  C   UNL     1     -10.066  17.036  68.321  1.00  0.00    -0.306 C  
ENDROOT
BRANCH   2   3
HETATM    3  C   UNL     1     -10.599  15.860  67.524  1.00  0.00    -0.315 A  
HETATM    4  C   UNL     1     -11.307  14.854  68.243  1.00  0.00    -0.325 A  
HETATM    5  C   UNL     1     -12.142  13.977  67.549  1.00  0.00    -0.361 A  
HETATM    6  C   UNL     1     -10.349  15.647  66.153  1.00  0.00    -0.329 A  
HETATM    7  C   UNL     1     -10.933  14.535  65.554  1.00  0.00    -0.337 A  
HETATM    8  C   UNL     1     -11.994  13.879  66.183  1.00  0.00    -0.449 A  
HETATM    9  C   UNL     1     -12.411  12.686  65.383  1.00  0.00    -0.499 C  
HETATM   10  C   UNL     1     -10.979  12.211  65.085  1.00  0.00    -0.310 C  
HETATM   11  C   UNL     1     -10.359  13.564  64.505  1.00  0.00    -0.381 C  
BRANCH   4  12
HETATM   12  C   UNL     1     -10.962  14.597  69.702  1.00  0.00    -0.255 C  
HETATM   13  C   UNL     1     -11.935  13.726  70.496  1.00  0.00    -0.367 C  
ENDBRANCH   4  12
BRANCH  10  14
HETATM   14  N   UNL     1     -10.897  10.881  64.446  1.00  0.00    -0.300 NA 
HETATM   15  H   UNL     1     -10.510  10.929  63.504  1.00  0.00     0.000 HD 
BRANCH  14  16
HETATM   16  C   UNL     1     -10.117   9.943  65.338  1.00  0.00    -0.200 C  
BRANCH  16  17
HETATM   17  C   UNL     1      -8.579  10.161  65.392  1.00  0.00    -0.155 C  
HETATM   18  H   UNL     1      -7.017   9.210  64.716  1.00  0.00     0.000 HD 
HETATM   19  O   UNL     1      -7.957   9.076  64.682  1.00  0.00    -0.115 OA 
BRANCH  17  20
HETATM   20  C   UNL     1      -7.983  10.272  66.811  1.00  0.00    -0.114 A  
HETATM   21  C   UNL     1      -8.242   9.322  67.828  1.00  0.00    -0.115 A  
HETATM   22  C   UNL     1      -8.938   8.051  67.577  1.00  0.00    -0.143 C  
HETATM   23  C   UNL     1      -9.227   7.201  68.571  1.00  0.00    -0.134 C  
HETATM   24  C   UNL     1      -8.884   7.525  69.980  1.00  0.00    -0.144 C  
HETATM   25  N   UNL     1      -8.181   8.676  70.193  1.00  0.00    -0.116 N  
HETATM   26  O   UNL     1      -9.209   6.783  70.892  1.00  0.00    -0.156 OA 
HETATM   27  H   UNL     1      -7.902   8.900  71.148  1.00  0.00     0.000 HD 
HETATM   28  C   UNL     1      -7.819   9.573  69.166  1.00  0.00    -0.082 A  
HETATM   29  C   UNL     1      -7.089  10.724  69.474  1.00  0.00    -0.132 A  
HETATM   30  C   UNL     1      -6.773  11.629  68.473  1.00  0.00    -0.069 A  
HETATM   31  O   UNL     1      -6.639  11.016  70.733  1.00  0.00    -0.467 OA 
HETATM   32  C   UNL     1      -7.207  11.404  67.161  1.00  0.00    -0.134 A  
HETATM   33  H   UNL     1      -6.143  11.798  70.942  1.00  0.00     0.000 HD 
ENDBRANCH  17  20
ENDBRANCH  16  17
ENDBRANCH  14  16
ENDBRANCH  10  14
ENDBRANCH   2   3
TORSDOF 6
ENDMDL
MODEL      203
REMARK 921   NORMALIZED FREE ENERGY PREDICTED BY IDOCK:   -4.80 KCAL/MOL
REMARK 922        TOTAL FREE ENERGY PREDICTED BY IDOCK:   -7.76 KCAL/MOL
REMARK 923 INTER-LIGAND FREE ENERGY PREDICTED BY IDOCK:   -6.58 KCAL/MOL
REMARK 924 INTRA-LIGAND FREE ENERGY PREDICTED BY IDOCK:   -1.18 KCAL/MOL
REMARK 927      BINDING AFFINITY PREDICTED BY RF-SCORE:    0.00 PKD
ROOT
HETATM    1  C   UNL     1     -12.100  12.884  63.311  1.00  0.00    -0.520 C  
HETATM    2  C   UNL     1     -10.730  12.476  63.830  1.00  0.00    -0.483 C  
ENDROOT
BRANCH   2   3
HETATM    3  C   UNL     1     -10.613  11.967  65.254  1.00  0.00    -0.328 A  
HETATM    4  C   UNL     1      -9.702  10.897  65.491  1.00  0.00    -0.282 A  
HETATM    5  C   UNL     1      -9.259  10.651  66.792  1.00  0.00    -0.174 A  
HETATM    6  C   UNL     1     -11.417  12.406  66.326  1.00  0.00    -0.423 A  
HETATM    7  C   UNL     1     -11.170  11.866  67.584  1.00  0.00    -0.340 A  
HETATM    8  C   UNL     1      -9.965  11.207  67.837  1.00  0.00    -0.189 A  
HETATM    9  C   UNL     1      -9.955  10.663  69.230  1.00  0.00    -0.215 C  
HETATM   10  C   UNL     1     -11.395  10.126  69.180  1.00  0.00    -0.143 C  
HETATM   11  C   UNL     1     -12.157  11.440  68.687  1.00  0.00    -0.214 C  
BRANCH   4  12
HETATM   12  C   UNL     1      -9.418   9.900  64.379  1.00  0.00    -0.304 C  
HETATM   13  C   UNL     1      -8.372   8.825  64.671  1.00  0.00    -0.175 C  
ENDBRANCH   4  12
BRANCH  10  14
HETATM   14  N   UNL     1     -11.776   9.290  70.337  1.00  0.00    -0.441 NA 
HETATM   15  H   UNL     1     -12.039   8.345  70.061  1.00  0.00     0.000 HD 
BRANCH  14  16
HETATM   16  C   UNL     1     -10.657   9.299  71.352  1.00  0.00    -0.347 C  
BRANCH  16  17
HETATM   17  C   UNL     1     -10.193   7.913  71.880  1.00  0.00    -0.202 C  
HETATM   18  H   UNL     1      -8.854   7.289  73.155  1.00  0.00     0.000 HD 
HETATM   19  O   UNL     1      -9.138   8.137  72.832  1.00  0.00    -0.221 OA 
BRANCH  17  20
HETATM   20  C   UNL     1      -9.721   6.924  70.795  1.00  0.00    -0.176 A  
HETATM   21  C   UNL     1      -8.665   7.215  69.898  1.00  0.00    -0.142 A  
HETATM   22  C   UNL     1      -7.799   8.395  70.039  1.00  0.00    -0.103 C  
HETATM   23  C   UNL     1      -6.849   8.680  69.139  1.00  0.00    -0.055 C  
HETATM   24  C   UNL     1      -6.654   7.829  67.936  1.00  0.00    -0.056 C  
HETATM   25  N   UNL     1      -7.420   6.702  67.849  1.00  0.00    -0.096 N  
HETATM   26  O   UNL     1      -5.836   8.128  67.081  1.00  0.00    -0.040 OA 
HETATM   27  H   UNL     1      -7.277   6.083  67.051  1.00  0.00     0.000 HD 
HETATM   28  C   UNL     1      -8.397   6.345  68.801  1.00  0.00    -0.121 A  
HETATM   29  C   UNL     1      -9.128   5.165  68.638  1.00  0.00    -0.111 A  
HETATM   30  C   UNL     1     -10.120   4.837  69.548  1.00  0.00    -0.260 A  
HETATM   31  O   UNL     1      -8.910   4.280  67.618  1.00  0.00    -0.104 OA 
HETATM   32  C   UNL     1     -10.408   5.699  70.614  1.00  0.00    -0.320 A  
HETATM   33  H   UNL     1      -9.407   3.478  67.507  1.00  0.00     0.000 HD 
ENDBRANCH  17  20
ENDBRANCH  16  17
ENDBRANCH  14  16
ENDBRANCH  10  14
ENDBRANCH   2   3
TORSDOF 6
ENDMDL
MODEL      204
REMARK 921   NORMALIZED FREE ENERGY PREDICTED BY IDOCK:   -4.79 KCAL/MOL
REMARK 922        TOTAL FREE ENERGY PREDICTED BY IDOCK:   -7.75 KCAL/MOL
REMARK 923 INTER-LIGAND FREE ENERGY PREDICTED BY IDOCK:   -6.39 KCAL/MOL
REMARK 924 INTRA-LIGAND FREE ENERGY PREDICTED BY IDOCK:   -1.36 KCAL/MOL
REMARK 927      BINDING AFFINITY PREDICTED BY RF-SCORE:    0.00 PKD
ROOT
HETATM    1  C   UNL     1      -7.092   1.535  65.929  1.00  0.00    -0.046 C  
HETATM    2  C   UNL     1      -7.768   2.599  65.079  1.00  0.00    -0.077 C  
ENDROOT
BRANCH   2   3
HETATM    3  C   UNL     1      -8.540   3.704  65.774  1.00  0.00    -0.114 A  
HETATM    4  C   UNL     1      -9.810   4.055  65.229  1.00  0.00    -0.199 A  
HETATM    5  C   UNL     1     -10.722   4.758  66.017  1.00  0.00    -0.211 A  
HETATM    6  C   UNL     1      -8.042   4.473  66.846  1.00  0.00    -0.102 A  
HETATM    7  C   UNL     1      -8.882   5.434  67.399  1.00  0.00    -0.105 A  
HETATM    8  C   UNL     1     -10.255   5.388  67.150  1.00  0.00    -0.266 A  
HETATM    9  C   UNL     1     -10.938   6.552  67.796  1.00  0.00    -0.407 C  
HETATM   10  C   UNL     1      -9.880   7.585  67.374  1.00  0.00    -0.169 C  
HETATM   11  C   UNL     1      -8.561   6.854  67.901  1.00  0.00    -0.122 C  
BRANCH   4  12
HETATM   12  C   UNL     1     -10.056   3.874  63.739  1.00  0.00    -0.186 C  
HETATM   13  C   UNL     1      -9.366   4.866  62.803  1.00  0.00     0.079 C  
ENDBRANCH   4  12
BRANCH  10  14
HETATM   14  N   UNL     1     -10.255   8.988  67.643  1.00  0.00    -0.226 NA 
HETATM   15  H   UNL     1     -11.032   9.061  68.299  1.00  0.00     0.000 HD 
BRANCH  14  16
HETATM   16  C   UNL     1      -9.038   9.751  68.113  1.00  0.00    -0.125 C  
BRANCH  16  17
HETATM   17  C   UNL     1      -9.060  10.250  69.584  1.00  0.00    -0.125 C  
HETATM   18  H   UNL     1      -7.752  11.016  70.811  1.00  0.00     0.000 HD 
HETATM   19  O   UNL     1      -7.738  10.712  69.911  1.00  0.00    -0.092 OA 
BRANCH  17  20
HETATM   20  C   UNL     1      -9.525   9.208  70.621  1.00  0.00    -0.316 A  
HETATM   21  C   UNL     1     -10.813   9.231  71.209  1.00  0.00    -0.417 A  
HETATM   22  C   UNL     1     -11.885  10.125  70.749  1.00  0.00    -0.443 C  
HETATM   23  C   UNL     1     -13.073  10.171  71.366  1.00  0.00    -0.512 C  
HETATM   24  C   UNL     1     -13.345   9.341  72.568  1.00  0.00    -0.391 C  
HETATM   25  N   UNL     1     -12.365   8.468  72.948  1.00  0.00    -0.418 N  
HETATM   26  O   UNL     1     -14.402   9.435  73.171  1.00  0.00    -0.186 OA 
HETATM   27  H   UNL     1     -12.544   7.862  73.748  1.00  0.00     0.000 HD 
HETATM   28  C   UNL     1     -11.120   8.359  72.294  1.00  0.00    -0.368 A  
HETATM   29  C   UNL     1     -10.179   7.429  72.744  1.00  0.00    -0.238 A  
HETATM   30  C   UNL     1      -8.938   7.352  72.133  1.00  0.00    -0.154 A  
HETATM   31  O   UNL     1     -10.417   6.553  73.768  1.00  0.00    -0.285 OA 
HETATM   32  C   UNL     1      -8.618   8.223  71.083  1.00  0.00    -0.168 A  
HETATM   33  H   UNL     1      -9.777   5.921  74.074  1.00  0.00     0.000 HD 
ENDBRANCH  17  20
ENDBRANCH  16  17
ENDBRANCH  14  16
ENDBRANCH  10  14
ENDBRANCH   2   3
TORSDOF 6
ENDMDL
MODEL      205
REMARK 921   NORMALIZED FREE ENERGY PREDICTED BY IDOCK:   -4.79 KCAL/MOL
REMARK 922        TOTAL FREE ENERGY PREDICTED BY IDOCK:   -7.74 KCAL/MOL
REMARK 923 INTER-LIGAND FREE ENERGY PREDICTED BY IDOCK:   -6.98 KCAL/MOL
REMARK 924 INTRA-LIGAND FREE ENERGY PREDICTED BY IDOCK:   -0.77 KCAL/MOL
REMARK 927      BINDING AFFINITY PREDICTED BY RF-SCORE:    0.00 PKD
ROOT
HETATM    1  C   UNL     1     -11.148  13.050  66.632  1.00  0.00    -0.318 C  
HETATM    2  C   UNL     1     -11.748  13.392  67.985  1.00  0.00    -0.391 C  
ENDROOT
BRANCH   2   3
HETATM    3  C   UNL     1     -11.901  12.288  69.015  1.00  0.00    -0.358 A  
HETATM    4  C   UNL     1     -12.246  12.678  70.342  1.00  0.00    -0.368 A  
HETATM    5  C   UNL     1     -12.776  11.729  71.217  1.00  0.00    -0.420 A  
HETATM    6  C   UNL     1     -11.622  10.928  68.772  1.00  0.00    -0.378 A  
HETATM    7  C   UNL     1     -11.840  10.027  69.809  1.00  0.00    -0.087 A  
HETATM    8  C   UNL     1     -12.631  10.396  70.900  1.00  0.00    -0.478 A  
HETATM    9  C   UNL     1     -12.669   9.292  71.909  1.00  0.00    -0.474 C  
HETATM   10  C   UNL     1     -11.166   8.977  71.826  1.00  0.00    -0.378 C  
HETATM   11  C   UNL     1     -11.011   8.804  70.246  1.00  0.00    -0.255 C  
BRANCH   4  12
HETATM   12  C   UNL     1     -11.811  14.041  70.855  1.00  0.00    -0.249 C  
HETATM   13  C   UNL     1     -12.921  15.046  71.163  1.00  0.00    -0.457 C  
ENDBRANCH   4  12
BRANCH  10  14
HETATM   14  N   UNL     1     -10.684   8.025  72.849  1.00  0.00    -0.368 NA 
HETATM   15  H   UNL     1     -11.035   8.248  73.779  1.00  0.00     0.000 HD 
BRANCH  14  16
HETATM   16  C   UNL     1     -11.034   6.617  72.428  1.00  0.00    -0.244 C  
BRANCH  16  17
HETATM   17  C   UNL     1      -9.864   5.596  72.391  1.00  0.00    -0.164 C  
HETATM   18  H   UNL     1      -8.085   5.493  73.184  1.00  0.00     0.000 HD 
HETATM   19  O   UNL     1      -8.801   6.117  73.207  1.00  0.00    -0.127 OA 
BRANCH  17  20
HETATM   20  C   UNL     1      -9.330   5.263  70.982  1.00  0.00    -0.193 A  
HETATM   21  C   UNL     1      -8.467   6.127  70.265  1.00  0.00    -0.126 A  
HETATM   22  C   UNL     1      -7.848   7.317  70.865  1.00  0.00    -0.094 C  
HETATM   23  C   UNL     1      -7.088   8.152  70.144  1.00  0.00    -0.048 C  
HETATM   24  C   UNL     1      -6.865   7.924  68.692  1.00  0.00    -0.063 C  
HETATM   25  N   UNL     1      -7.391   6.781  68.161  1.00  0.00    -0.094 N  
HETATM   26  O   UNL     1      -6.231   8.722  68.022  1.00  0.00    -0.050 OA 
HETATM   27  H   UNL     1      -7.219   6.586  67.175  1.00  0.00     0.000 HD 
HETATM   28  C   UNL     1      -8.158   5.857  68.900  1.00  0.00    -0.103 A  
HETATM   29  C   UNL     1      -8.647   4.706  68.277  1.00  0.00    -0.098 A  
HETATM   30  C   UNL     1      -9.440   3.819  68.988  1.00  0.00    -0.233 A  
HETATM   31  O   UNL     1      -8.375   4.380  66.976  1.00  0.00    -0.101 OA 
HETATM   32  C   UNL     1      -9.770   4.089  70.322  1.00  0.00    -0.263 A  
HETATM   33  H   UNL     1      -8.708   3.598  66.552  1.00  0.00     0.000 HD 
ENDBRANCH  17  20
ENDBRANCH  16  17
ENDBRANCH  14  16
ENDBRANCH  10  14
ENDBRANCH   2   3
TORSDOF 6
ENDMDL
MODEL      206
REMARK 921   NORMALIZED FREE ENERGY PREDICTED BY IDOCK:   -4.77 KCAL/MOL
REMARK 922        TOTAL FREE ENERGY PREDICTED BY IDOCK:   -7.72 KCAL/MOL
REMARK 923 INTER-LIGAND FREE ENERGY PREDICTED BY IDOCK:   -6.84 KCAL/MOL
REMARK 924 INTRA-LIGAND FREE ENERGY PREDICTED BY IDOCK:   -0.88 KCAL/MOL
REMARK 927      BINDING AFFINITY PREDICTED BY RF-SCORE:    0.00 PKD
ROOT
HETATM    1  C   UNL     1      -6.897   2.282  70.558  1.00  0.00    -0.033 C  
HETATM    2  C   UNL     1      -8.399   2.460  70.411  1.00  0.00    -0.076 C  
ENDROOT
BRANCH   2   3
HETATM    3  C   UNL     1      -8.951   3.858  70.209  1.00  0.00    -0.163 A  
HETATM    4  C   UNL     1      -9.471   4.174  68.920  1.00  0.00    -0.238 A  
HETATM    5  C   UNL     1     -10.328   5.267  68.778  1.00  0.00    -0.206 A  
HETATM    6  C   UNL     1      -8.885   4.887  71.171  1.00  0.00    -0.151 A  
HETATM    7  C   UNL     1      -9.464   6.111  70.850  1.00  0.00    -0.187 A  
HETATM    8  C   UNL     1     -10.371   6.199  69.791  1.00  0.00    -0.269 A  
HETATM    9  C   UNL     1     -10.808   7.616  69.600  1.00  0.00    -0.195 C  
HETATM   10  C   UNL     1      -9.402   8.218  69.763  1.00  0.00    -0.158 C  
HETATM   11  C   UNL     1      -8.976   7.542  71.145  1.00  0.00    -0.144 C  
BRANCH   4  12
HETATM   12  C   UNL     1      -8.902   3.476  67.695  1.00  0.00    -0.148 C  
HETATM   13  C   UNL     1      -7.647   4.091  67.075  1.00  0.00    -0.084 C  
ENDBRANCH   4  12
BRANCH  10  14
HETATM   14  N   UNL     1      -9.313   9.658  69.443  1.00  0.00    -0.180 NA 
HETATM   15  H   UNL     1      -8.375   9.931  69.150  1.00  0.00     0.000 HD 
BRANCH  14  16
HETATM   16  C   UNL     1     -10.360  10.008  68.410  1.00  0.00    -0.191 C  
BRANCH  16  17
HETATM   17  C   UNL     1     -11.071  11.378  68.585  1.00  0.00    -0.236 C  
HETATM   18  H   UNL     1     -12.897  11.959  68.947  1.00  0.00     0.000 HD 
HETATM   19  O   UNL     1     -12.462  11.121  68.840  1.00  0.00    -0.460 OA 
BRANCH  17  20
HETATM   20  C   UNL     1     -10.925  12.347  67.394  1.00  0.00    -0.296 A  
HETATM   21  C   UNL     1      -9.876  13.293  67.298  1.00  0.00    -0.233 A  
HETATM   22  C   UNL     1      -8.729  13.311  68.216  1.00  0.00    -0.168 C  
HETATM   23  C   UNL     1      -7.785  14.258  68.142  1.00  0.00    -0.141 C  
HETATM   24  C   UNL     1      -7.876  15.354  67.143  1.00  0.00    -0.214 C  
HETATM   25  N   UNL     1      -8.911  15.292  66.254  1.00  0.00    -0.442 N  
HETATM   26  O   UNL     1      -7.053  16.255  67.122  1.00  0.00    -0.170 OA 
HETATM   27  H   UNL     1      -8.973  16.013  65.536  1.00  0.00     0.000 HD 
HETATM   28  C   UNL     1      -9.898  14.284  66.273  1.00  0.00    -0.307 A  
HETATM   29  C   UNL     1     -10.916  14.291  65.316  1.00  0.00    -0.343 A  
HETATM   30  C   UNL     1     -11.913  13.330  65.361  1.00  0.00    -0.432 A  
HETATM   31  O   UNL     1     -10.986  15.203  64.298  1.00  0.00    -0.632 OA 
HETATM   32  C   UNL     1     -11.914  12.368  66.380  1.00  0.00    -0.346 A  
HETATM   33  H   UNL     1     -11.678  15.208  63.648  1.00  0.00     0.000 HD 
ENDBRANCH  17  20
ENDBRANCH  16  17
ENDBRANCH  14  16
ENDBRANCH  10  14
ENDBRANCH   2   3
TORSDOF 6
ENDMDL
MODEL      207
REMARK 921   NORMALIZED FREE ENERGY PREDICTED BY IDOCK:   -4.76 KCAL/MOL
REMARK 922        TOTAL FREE ENERGY PREDICTED BY IDOCK:   -7.71 KCAL/MOL
REMARK 923 INTER-LIGAND FREE ENERGY PREDICTED BY IDOCK:   -6.18 KCAL/MOL
REMARK 924 INTRA-LIGAND FREE ENERGY PREDICTED BY IDOCK:   -1.54 KCAL/MOL
REMARK 927      BINDING AFFINITY PREDICTED BY RF-SCORE:    0.00 PKD
ROOT
HETATM    1  C   UNL     1      -9.612   7.776  73.431  1.00  0.00    -0.352 C  
HETATM    2  C   UNL     1      -9.860   6.318  73.081  1.00  0.00    -0.173 C  
ENDROOT
BRANCH   2   3
HETATM    3  C   UNL     1      -9.849   5.907  71.621  1.00  0.00    -0.197 A  
HETATM    4  C   UNL     1      -8.649   5.326  71.117  1.00  0.00    -0.128 A  
HETATM    5  C   UNL     1      -8.692   4.583  69.936  1.00  0.00    -0.108 A  
HETATM    6  C   UNL     1     -10.898   6.158  70.714  1.00  0.00    -0.350 A  
HETATM    7  C   UNL     1     -10.753   5.692  69.411  1.00  0.00    -0.365 A  
HETATM    8  C   UNL     1      -9.793   4.721  69.119  1.00  0.00    -0.254 A  
HETATM    9  C   UNL     1      -9.784   4.426  67.653  1.00  0.00    -0.198 C  
HETATM   10  C   UNL     1      -9.880   5.898  67.215  1.00  0.00    -0.138 C  
HETATM   11  C   UNL     1     -11.145   6.354  68.077  1.00  0.00    -0.365 C  
BRANCH   4  12
HETATM   12  C   UNL     1      -7.315   5.719  71.732  1.00  0.00    -0.093 C  
HETATM   13  C   UNL     1      -6.449   6.692  70.931  1.00  0.00    -0.052 C  
ENDBRANCH   4  12
BRANCH  10  14
HETATM   14  N   UNL     1      -9.699   6.117  65.766  1.00  0.00    -0.363 NA 
HETATM   15  H   UNL     1     -10.198   6.942  65.435  1.00  0.00     0.000 HD 
BRANCH  14  16
HETATM   16  C   UNL     1      -8.222   6.177  65.448  1.00  0.00    -0.145 C  
BRANCH  16  17
HETATM   17  C   UNL     1      -7.488   7.494  65.823  1.00  0.00    -0.079 C  
HETATM   18  H   UNL     1      -5.769   7.946  66.626  1.00  0.00     0.000 HD 
HETATM   19  O   UNL     1      -6.217   7.140  66.396  1.00  0.00    -0.037 OA 
BRANCH  17  20
HETATM   20  C   UNL     1      -8.258   8.421  66.786  1.00  0.00    -0.102 A  
HETATM   21  C   UNL     1      -9.113   9.456  66.335  1.00  0.00    -0.199 A  
HETATM   22  C   UNL     1      -9.495   9.620  64.925  1.00  0.00    -0.288 C  
HETATM   23  C   UNL     1     -10.252  10.647  64.518  1.00  0.00    -0.399 C  
HETATM   24  C   UNL     1     -10.712  11.687  65.475  1.00  0.00    -0.281 C  
HETATM   25  N   UNL     1     -10.405  11.490  66.791  1.00  0.00    -0.219 N  
HETATM   26  O   UNL     1     -11.342  12.658  65.092  1.00  0.00    -0.292 OA 
HETATM   27  H   UNL     1     -10.742  12.171  67.471  1.00  0.00     0.000 HD 
HETATM   28  C   UNL     1      -9.649  10.396  67.263  1.00  0.00    -0.156 A  
HETATM   29  C   UNL     1      -9.392  10.267  68.630  1.00  0.00    -0.162 A  
HETATM   30  C   UNL     1      -8.611   9.220  69.090  1.00  0.00    -0.134 A  
HETATM   31  O   UNL     1      -9.890  11.125  69.573  1.00  0.00    -0.424 OA 
HETATM   32  C   UNL     1      -8.058   8.306  68.184  1.00  0.00    -0.124 A  
HETATM   33  H   UNL     1      -9.715  11.038  70.503  1.00  0.00     0.000 HD 
ENDBRANCH  17  20
ENDBRANCH  16  17
ENDBRANCH  14  16
ENDBRANCH  10  14
ENDBRANCH   2   3
TORSDOF 6
ENDMDL
MODEL      208
REMARK 921   NORMALIZED FREE ENERGY PREDICTED BY IDOCK:   -4.74 KCAL/MOL
REMARK 922        TOTAL FREE ENERGY PREDICTED BY IDOCK:   -7.69 KCAL/MOL
REMARK 923 INTER-LIGAND FREE ENERGY PREDICTED BY IDOCK:   -6.50 KCAL/MOL
REMARK 924 INTRA-LIGAND FREE ENERGY PREDICTED BY IDOCK:   -1.19 KCAL/MOL
REMARK 927      BINDING AFFINITY PREDICTED BY RF-SCORE:    0.00 PKD
ROOT
HETATM    1  C   UNL     1      -7.166   9.067  70.190  1.00  0.00    -0.062 C  
HETATM    2  C   UNL     1      -7.340   9.418  68.722  1.00  0.00    -0.074 C  
ENDROOT
BRANCH   2   3
HETATM    3  C   UNL     1      -8.511  10.292  68.315  1.00  0.00    -0.121 A  
HETATM    4  C   UNL     1      -8.372  11.053  67.118  1.00  0.00    -0.132 A  
HETATM    5  C   UNL     1      -9.513  11.553  66.489  1.00  0.00    -0.220 A  
HETATM    6  C   UNL     1      -9.672  10.482  69.093  1.00  0.00    -0.226 A  
HETATM    7  C   UNL     1     -10.675  11.292  68.571  1.00  0.00    -0.235 A  
HETATM    8  C   UNL     1     -10.687  11.600  67.209  1.00  0.00    -0.281 A  
HETATM    9  C   UNL     1     -11.818  12.529  66.898  1.00  0.00    -0.404 C  
HETATM   10  C   UNL     1     -11.597  13.431  68.123  1.00  0.00    -0.341 C  
HETATM   11  C   UNL     1     -11.576  12.324  69.275  1.00  0.00    -0.383 C  
BRANCH   4  12
HETATM   12  C   UNL     1      -6.989  11.509  66.681  1.00  0.00    -0.069 C  
HETATM   13  C   UNL     1      -6.369  10.779  65.489  1.00  0.00    -0.026 C  
ENDBRANCH   4  12
BRANCH  10  14
HETATM   14  N   UNL     1     -12.409  14.665  68.128  1.00  0.00    -0.592 NA 
HETATM   15  H   UNL     1     -13.295  14.543  68.617  1.00  0.00     0.000 HD 
BRANCH  14  16
HETATM   16  C   UNL     1     -11.592  15.801  68.699  1.00  0.00    -0.386 C  
BRANCH  16  17
HETATM   17  C   UNL     1     -10.950  16.774  67.672  1.00  0.00    -0.178 C  
HETATM   18  H   UNL     1     -10.497  16.693  65.777  1.00  0.00     0.000 HD 
HETATM   19  O   UNL     1     -10.890  16.098  66.405  1.00  0.00    -0.255 OA 
BRANCH  17  20
HETATM   20  C   UNL     1      -9.551  17.299  68.055  1.00  0.00    -0.274 A  
HETATM   21  C   UNL     1      -8.542  16.468  68.600  1.00  0.00    -0.243 A  
HETATM   22  C   UNL     1      -8.664  15.005  68.671  1.00  0.00    -0.176 C  
HETATM   23  C   UNL     1      -7.722  14.250  69.251  1.00  0.00     0.048 C  
HETATM   24  C   UNL     1      -6.525  14.867  69.879  1.00  0.00    -0.171 C  
HETATM   25  N   UNL     1      -6.390  16.220  69.750  1.00  0.00    -0.202 N  
HETATM   26  O   UNL     1      -5.703  14.184  70.468  1.00  0.00    -0.129 OA 
HETATM   27  H   UNL     1      -5.558  16.660  70.140  1.00  0.00     0.000 HD 
HETATM   28  C   UNL     1      -7.339  17.041  69.106  1.00  0.00    -0.186 A  
HETATM   29  C   UNL     1      -7.115  18.417  69.009  1.00  0.00    -0.245 A  
HETATM   30  C   UNL     1      -8.066  19.232  68.418  1.00  0.00    -0.378 A  
HETATM   31  O   UNL     1      -5.975  19.027  69.460  1.00  0.00    -0.240 OA 
HETATM   32  C   UNL     1      -9.263  18.681  67.942  1.00  0.00    -0.316 A  
HETATM   33  H   UNL     1      -5.823  19.963  69.395  1.00  0.00     0.000 HD 
ENDBRANCH  17  20
ENDBRANCH  16  17
ENDBRANCH  14  16
ENDBRANCH  10  14
ENDBRANCH   2   3
TORSDOF 6
ENDMDL
MODEL      209
REMARK 921   NORMALIZED FREE ENERGY PREDICTED BY IDOCK:   -4.74 KCAL/MOL
REMARK 922        TOTAL FREE ENERGY PREDICTED BY IDOCK:   -7.68 KCAL/MOL
REMARK 923 INTER-LIGAND FREE ENERGY PREDICTED BY IDOCK:   -6.54 KCAL/MOL
REMARK 924 INTRA-LIGAND FREE ENERGY PREDICTED BY IDOCK:   -1.14 KCAL/MOL
REMARK 927      BINDING AFFINITY PREDICTED BY RF-SCORE:    0.00 PKD
ROOT
HETATM    1  C   UNL     1     -10.829  14.377  64.618  1.00  0.00    -0.363 C  
HETATM    2  C   UNL     1     -11.644  13.095  64.588  1.00  0.00    -0.384 C  
ENDROOT
BRANCH   2   3
HETATM    3  C   UNL     1     -11.104  11.871  65.302  1.00  0.00    -0.354 A  
HETATM    4  C   UNL     1     -11.231  11.835  66.721  1.00  0.00    -0.388 A  
HETATM    5  C   UNL     1     -11.124  10.613  67.386  1.00  0.00    -0.341 A  
HETATM    6  C   UNL     1     -10.394  10.828  64.671  1.00  0.00    -0.394 A  
HETATM    7  C   UNL     1      -9.987   9.755  65.456  1.00  0.00    -0.329 A  
HETATM    8  C   UNL     1     -10.562   9.550  66.713  1.00  0.00    -0.208 A  
HETATM    9  C   UNL     1      -9.924   8.379  67.390  1.00  0.00    -0.274 C  
HETATM   10  C   UNL     1      -8.486   8.760  67.000  1.00  0.00    -0.109 C  
HETATM   11  C   UNL     1      -8.673   8.951  65.425  1.00  0.00    -0.224 C  
BRANCH   4  12
HETATM   12  C   UNL     1     -11.239  13.140  67.502  1.00  0.00    -0.314 C  
HETATM   13  C   UNL     1     -10.208  13.276  68.623  1.00  0.00    -0.178 C  
ENDBRANCH   4  12
BRANCH  10  14
HETATM   14  N   UNL     1      -7.440   7.945  67.651  1.00  0.00    -0.095 NA 
HETATM   15  H   UNL     1      -6.832   7.485  66.975  1.00  0.00     0.000 HD 
BRANCH  14  16
HETATM   16  C   UNL     1      -6.665   8.807  68.623  1.00  0.00    -0.059 C  
BRANCH  16  17
HETATM   17  C   UNL     1      -6.715   8.379  70.116  1.00  0.00    -0.039 C  
HETATM   18  H   UNL     1      -5.453   7.592  71.377  1.00  0.00     0.000 HD 
HETATM   19  O   UNL     1      -5.422   7.854  70.464  1.00  0.00    -0.023 OA 
BRANCH  17  20
HETATM   20  C   UNL     1      -7.811   7.354  70.467  1.00  0.00    -0.097 A  
HETATM   21  C   UNL     1      -9.150   7.724  70.739  1.00  0.00    -0.149 A  
HETATM   22  C   UNL     1      -9.662   9.085  70.525  1.00  0.00    -0.262 C  
HETATM   23  C   UNL     1     -10.916   9.424  70.853  1.00  0.00    -0.391 C  
HETATM   24  C   UNL     1     -11.836   8.439  71.480  1.00  0.00    -0.297 C  
HETATM   25  N   UNL     1     -11.371   7.162  71.615  1.00  0.00    -0.244 N  
HETATM   26  O   UNL     1     -12.954   8.766  71.842  1.00  0.00    -0.331 OA 
HETATM   27  H   UNL     1     -11.998   6.460  72.008  1.00  0.00     0.000 HD 
HETATM   28  C   UNL     1     -10.073   6.759  71.238  1.00  0.00    -0.187 A  
HETATM   29  C   UNL     1      -9.685   5.426  71.401  1.00  0.00    -0.161 A  
HETATM   30  C   UNL     1      -8.395   5.038  71.075  1.00  0.00    -0.118 A  
HETATM   31  O   UNL     1     -10.525   4.448  71.859  1.00  0.00    -0.142 OA 
HETATM   32  C   UNL     1      -7.474   5.985  70.609  1.00  0.00    -0.087 A  
HETATM   33  H   UNL     1     -10.261   3.542  71.970  1.00  0.00     0.000 HD 
ENDBRANCH  17  20
ENDBRANCH  16  17
ENDBRANCH  14  16
ENDBRANCH  10  14
ENDBRANCH   2   3
TORSDOF 6
ENDMDL
MODEL      210
REMARK 921   NORMALIZED FREE ENERGY PREDICTED BY IDOCK:   -4.72 KCAL/MOL
REMARK 922        TOTAL FREE ENERGY PREDICTED BY IDOCK:   -7.65 KCAL/MOL
REMARK 923 INTER-LIGAND FREE ENERGY PREDICTED BY IDOCK:   -7.16 KCAL/MOL
REMARK 924 INTRA-LIGAND FREE ENERGY PREDICTED BY IDOCK:   -0.49 KCAL/MOL
REMARK 927      BINDING AFFINITY PREDICTED BY RF-SCORE:    0.00 PKD
ROOT
HETATM    1  C   UNL     1      -9.245   2.795  67.357  1.00  0.00    -0.210 C  
HETATM    2  C   UNL     1      -8.714   3.766  68.398  1.00  0.00    -0.132 C  
ENDROOT
BRANCH   2   3
HETATM    3  C   UNL     1      -9.210   5.200  68.378  1.00  0.00    -0.142 A  
HETATM    4  C   UNL     1      -8.567   6.100  67.480  1.00  0.00    -0.106 A  
HETATM    5  C   UNL     1      -9.207   7.289  67.129  1.00  0.00    -0.156 A  
HETATM    6  C   UNL     1     -10.182   5.719  69.258  1.00  0.00    -0.292 A  
HETATM    7  C   UNL     1     -10.556   7.049  69.097  1.00  0.00    -0.235 A  
HETATM    8  C   UNL     1     -10.257   7.720  67.909  1.00  0.00    -0.259 A  
HETATM    9  C   UNL     1     -10.701   9.146  67.994  1.00  0.00    -0.205 C  
HETATM   10  C   UNL     1     -10.181   9.368  69.424  1.00  0.00    -0.207 C  
HETATM   11  C   UNL     1     -10.863   8.124  70.157  1.00  0.00    -0.241 C  
BRANCH   4  12
HETATM   12  C   UNL     1      -7.109   5.871  67.113  1.00  0.00    -0.070 C  
HETATM   13  C   UNL     1      -6.062   6.414  68.085  1.00  0.00    -0.027 C  
ENDBRANCH   4  12
BRANCH  10  14
HETATM   14  N   UNL     1     -10.232  10.772  69.881  1.00  0.00    -0.422 NA 
HETATM   15  H   UNL     1      -9.329  11.239  69.795  1.00  0.00     0.000 HD 
BRANCH  14  16
HETATM   16  C   UNL     1     -11.326  11.503  69.137  1.00  0.00    -0.286 C  
BRANCH  16  17
HETATM   17  C   UNL     1     -11.484  13.016  69.453  1.00  0.00    -0.261 C  
HETATM   18  H   UNL     1     -12.974  14.192  69.901  1.00  0.00     0.000 HD 
HETATM   19  O   UNL     1     -12.877  13.267  69.708  1.00  0.00     0.167 OA 
BRANCH  17  20
HETATM   20  C   UNL     1     -10.970  13.971  68.356  1.00  0.00    -0.269 A  
HETATM   21  C   UNL     1     -11.279  13.802  66.985  1.00  0.00    -0.326 A  
HETATM   22  C   UNL     1     -12.266  12.826  66.502  1.00  0.00    -0.198 C  
HETATM   23  C   UNL     1     -12.491  12.642  65.195  1.00  0.00    -0.531 C  
HETATM   24  C   UNL     1     -11.722  13.399  64.172  1.00  0.00    -0.419 C  
HETATM   25  N   UNL     1     -10.855  14.348  64.632  1.00  0.00    -0.565 N  
HETATM   26  O   UNL     1     -11.878  13.182  62.982  1.00  0.00    -0.347 OA 
HETATM   27  H   UNL     1     -10.344  14.906  63.948  1.00  0.00     0.000 HD 
HETATM   28  C   UNL     1     -10.627  14.601  66.001  1.00  0.00    -0.309 A  
HETATM   29  C   UNL     1      -9.729  15.601  66.382  1.00  0.00    -0.279 A  
HETATM   30  C   UNL     1      -9.468  15.820  67.726  1.00  0.00    -0.212 A  
HETATM   31  O   UNL     1      -9.082  16.413  65.490  1.00  0.00    -0.390 OA 
HETATM   32  C   UNL     1     -10.084  15.022  68.698  1.00  0.00    -0.233 A  
HETATM   33  H   UNL     1      -8.471  17.092  65.749  1.00  0.00     0.000 HD 
ENDBRANCH  17  20
ENDBRANCH  16  17
ENDBRANCH  14  16
ENDBRANCH  10  14
ENDBRANCH   2   3
TORSDOF 6
ENDMDL
MODEL      211
REMARK 921   NORMALIZED FREE ENERGY PREDICTED BY IDOCK:   -4.68 KCAL/MOL
REMARK 922        TOTAL FREE ENERGY PREDICTED BY IDOCK:   -7.60 KCAL/MOL
REMARK 923 INTER-LIGAND FREE ENERGY PREDICTED BY IDOCK:   -6.23 KCAL/MOL
REMARK 924 INTRA-LIGAND FREE ENERGY PREDICTED BY IDOCK:   -1.37 KCAL/MOL
REMARK 927      BINDING AFFINITY PREDICTED BY RF-SCORE:    0.00 PKD
ROOT
HETATM    1  C   UNL     1      -9.949   5.623  69.083  1.00  0.00    -0.244 C  
HETATM    2  C   UNL     1      -9.474   7.039  69.366  1.00  0.00    -0.145 C  
ENDROOT
BRANCH   2   3
HETATM    3  C   UNL     1      -9.082   7.923  68.197  1.00  0.00    -0.133 A  
HETATM    4  C   UNL     1      -8.070   8.899  68.429  1.00  0.00    -0.109 A  
HETATM    5  C   UNL     1      -7.398   9.459  67.342  1.00  0.00    -0.087 A  
HETATM    6  C   UNL     1      -9.724   7.915  66.942  1.00  0.00    -0.285 A  
HETATM    7  C   UNL     1      -9.230   8.766  65.957  1.00  0.00    -0.282 A  
HETATM    8  C   UNL     1      -7.955   9.321  66.089  1.00  0.00    -0.107 A  
HETATM    9  C   UNL     1      -7.672  10.243  64.946  1.00  0.00    -0.124 C  
HETATM   10  C   UNL     1      -9.058  10.909  64.958  1.00  0.00    -0.190 C  
HETATM   11  C   UNL     1      -9.984   9.609  64.912  1.00  0.00     0.086 C  
BRANCH   4  12
HETATM   12  C   UNL     1      -7.907   9.487  69.822  1.00  0.00    -0.128 C  
HETATM   13  C   UNL     1      -6.678   9.044  70.615  1.00  0.00    -0.064 C  
ENDBRANCH   4  12
BRANCH  10  14
HETATM   14  N   UNL     1      -9.178  12.086  64.072  1.00  0.00    -0.317 NA 
HETATM   15  H   UNL     1      -9.232  11.824  63.088  1.00  0.00     0.000 HD 
BRANCH  14  16
HETATM   16  C   UNL     1     -10.360  12.922  64.506  1.00  0.00    -0.357 C  
BRANCH  16  17
HETATM   17  C   UNL     1     -10.946  12.612  65.911  1.00  0.00    -0.278 C  
HETATM   18  H   UNL     1     -12.707  12.149  66.611  1.00  0.00     0.000 HD 
HETATM   19  O   UNL     1     -12.348  12.338  65.751  1.00  0.00    -0.622 OA 
BRANCH  17  20
HETATM   20  C   UNL     1     -10.744  13.722  66.963  1.00  0.00    -0.283 A  
HETATM   21  C   UNL     1      -9.518  13.921  67.643  1.00  0.00    -0.212 A  
HETATM   22  C   UNL     1      -8.278  13.223  67.276  1.00  0.00    -0.164 C  
HETATM   23  C   UNL     1      -7.148  13.383  67.978  1.00  0.00    -0.125 C  
HETATM   24  C   UNL     1      -7.112  14.251  69.184  1.00  0.00    -0.117 C  
HETATM   25  N   UNL     1      -8.252  14.943  69.478  1.00  0.00    -0.404 N  
HETATM   26  O   UNL     1      -6.103  14.340  69.863  1.00  0.00    -0.120 OA 
HETATM   27  H   UNL     1      -8.239  15.574  70.279  1.00  0.00     0.000 HD 
HETATM   28  C   UNL     1      -9.446  14.836  68.734  1.00  0.00    -0.206 A  
HETATM   29  C   UNL     1     -10.562  15.592  69.100  1.00  0.00    -0.237 A  
HETATM   30  C   UNL     1     -11.750  15.453  68.400  1.00  0.00    -0.332 A  
HETATM   31  O   UNL     1     -10.555  16.498  70.125  1.00  0.00    -0.231 OA 
HETATM   32  C   UNL     1     -11.838  14.538  67.343  1.00  0.00    -0.416 A  
HETATM   33  H   UNL     1     -11.314  17.012  70.375  1.00  0.00     0.000 HD 
ENDBRANCH  17  20
ENDBRANCH  16  17
ENDBRANCH  14  16
ENDBRANCH  10  14
ENDBRANCH   2   3
TORSDOF 6
ENDMDL
MODEL      212
REMARK 921   NORMALIZED FREE ENERGY PREDICTED BY IDOCK:   -4.68 KCAL/MOL
REMARK 922        TOTAL FREE ENERGY PREDICTED BY IDOCK:   -7.60 KCAL/MOL
REMARK 923 INTER-LIGAND FREE ENERGY PREDICTED BY IDOCK:   -6.67 KCAL/MOL
REMARK 924 INTRA-LIGAND FREE ENERGY PREDICTED BY IDOCK:   -0.93 KCAL/MOL
REMARK 927      BINDING AFFINITY PREDICTED BY RF-SCORE:    0.00 PKD
ROOT
HETATM    1  C   UNL     1      -8.225   4.739  72.617  1.00  0.00    -0.111 C  
HETATM    2  C   UNL     1      -9.489   5.131  71.870  1.00  0.00    -0.184 C  
ENDROOT
BRANCH   2   3
HETATM    3  C   UNL     1      -9.423   6.275  70.877  1.00  0.00    -0.185 A  
HETATM    4  C   UNL     1     -10.161   7.454  71.190  1.00  0.00    -0.189 A  
HETATM    5  C   UNL     1      -9.841   8.651  70.547  1.00  0.00    -0.210 A  
HETATM    6  C   UNL     1      -8.775   6.208  69.626  1.00  0.00    -0.135 A  
HETATM    7  C   UNL     1      -8.776   7.353  68.835  1.00  0.00    -0.132 A  
HETATM    8  C   UNL     1      -9.079   8.593  69.401  1.00  0.00    -0.149 A  
HETATM    9  C   UNL     1      -9.076   9.657  68.349  1.00  0.00    -0.123 C  
HETATM   10  C   UNL     1      -9.837   8.823  67.305  1.00  0.00    -0.201 C  
HETATM   11  C   UNL     1      -8.941   7.500  67.311  1.00  0.00    -0.130 C  
BRANCH   4  12
HETATM   12  C   UNL     1     -11.425   7.342  72.027  1.00  0.00    -0.305 C  
HETATM   13  C   UNL     1     -12.750   7.599  71.309  1.00  0.00    -0.306 C  
ENDBRANCH   4  12
BRANCH  10  14
HETATM   14  N   UNL     1     -10.253   9.577  66.105  1.00  0.00    -0.247 NA 
HETATM   15  H   UNL     1     -10.600   8.967  65.366  1.00  0.00     0.000 HD 
BRANCH  14  16
HETATM   16  C   UNL     1     -11.265  10.628  66.500  1.00  0.00     0.208 C  
BRANCH  16  17
HETATM   17  C   UNL     1     -10.866  12.106  66.235  1.00  0.00    -0.282 C  
HETATM   18  H   UNL     1      -9.189  13.063  65.959  1.00  0.00     0.000 HD 
HETATM   19  O   UNL     1      -9.433  12.159  66.122  1.00  0.00    -0.234 OA 
BRANCH  17  20
HETATM   20  C   UNL     1     -11.347  13.115  67.298  1.00  0.00    -0.344 A  
HETATM   21  C   UNL     1     -11.170  14.513  67.165  1.00  0.00    -0.341 A  
HETATM   22  C   UNL     1     -10.692  15.144  65.927  1.00  0.00    -0.341 C  
HETATM   23  C   UNL     1     -10.472  16.463  65.850  1.00  0.00    -0.350 C  
HETATM   24  C   UNL     1     -10.672  17.342  67.031  1.00  0.00    -0.162 C  
HETATM   25  N   UNL     1     -11.178  16.756  68.156  1.00  0.00    -0.256 N  
HETATM   26  O   UNL     1     -10.405  18.531  66.981  1.00  0.00    -0.361 OA 
HETATM   27  H   UNL     1     -11.359  17.347  68.968  1.00  0.00     0.000 HD 
HETATM   28  C   UNL     1     -11.465  15.379  68.259  1.00  0.00    -0.353 A  
HETATM   29  C   UNL     1     -11.993  14.865  69.446  1.00  0.00    -0.301 A  
HETATM   30  C   UNL     1     -12.231  13.505  69.565  1.00  0.00    -0.289 A  
HETATM   31  O   UNL     1     -12.312  15.643  70.526  1.00  0.00    -0.397 OA 
HETATM   32  C   UNL     1     -11.921  12.644  68.505  1.00  0.00    -0.258 A  
HETATM   33  H   UNL     1     -12.670  15.294  71.334  1.00  0.00     0.000 HD 
ENDBRANCH  17  20
ENDBRANCH  16  17
ENDBRANCH  14  16
ENDBRANCH  10  14
ENDBRANCH   2   3
TORSDOF 6
ENDMDL
MODEL      213
REMARK 921   NORMALIZED FREE ENERGY PREDICTED BY IDOCK:   -4.68 KCAL/MOL
REMARK 922        TOTAL FREE ENERGY PREDICTED BY IDOCK:   -7.60 KCAL/MOL
REMARK 923 INTER-LIGAND FREE ENERGY PREDICTED BY IDOCK:   -6.87 KCAL/MOL
REMARK 924 INTRA-LIGAND FREE ENERGY PREDICTED BY IDOCK:   -0.72 KCAL/MOL
REMARK 927      BINDING AFFINITY PREDICTED BY RF-SCORE:    0.00 PKD
ROOT
HETATM    1  C   UNL     1     -10.090  16.412  65.811  1.00  0.00    -0.352 C  
HETATM    2  C   UNL     1     -10.790  15.828  67.028  1.00  0.00    -0.273 C  
ENDROOT
BRANCH   2   3
HETATM    3  C   UNL     1     -10.777  14.324  67.224  1.00  0.00    -0.277 A  
HETATM    4  C   UNL     1     -11.543  13.802  68.307  1.00  0.00    -0.373 A  
HETATM    5  C   UNL     1     -11.890  12.450  68.309  1.00  0.00    -0.364 A  
HETATM    6  C   UNL     1      -9.980  13.430  66.481  1.00  0.00    -0.286 A  
HETATM    7  C   UNL     1     -10.101  12.072  66.757  1.00  0.00    -0.223 A  
HETATM    8  C   UNL     1     -11.206  11.599  67.468  1.00  0.00    -0.355 A  
HETATM    9  C   UNL     1     -11.084  10.126  67.695  1.00  0.00    -0.275 C  
HETATM   10  C   UNL     1      -9.595  10.166  68.075  1.00  0.00    -0.145 C  
HETATM   11  C   UNL     1      -9.018  10.979  66.827  1.00  0.00    -0.163 C  
BRANCH   4  12
HETATM   12  C   UNL     1     -11.761  14.656  69.546  1.00  0.00    -0.366 C  
HETATM   13  C   UNL     1     -12.511  14.003  70.707  1.00  0.00    -0.442 C  
ENDBRANCH   4  12
BRANCH  10  14
HETATM   14  N   UNL     1      -9.062   8.890  68.595  1.00  0.00    -0.137 NA 
HETATM   15  H   UNL     1      -8.258   9.027  69.205  1.00  0.00     0.000 HD 
BRANCH  14  16
HETATM   16  C   UNL     1     -10.172   8.123  69.276  1.00  0.00    -0.214 C  
BRANCH  16  17
HETATM   17  C   UNL     1      -9.772   7.296  70.529  1.00  0.00    -0.176 C  
HETATM   18  H   UNL     1      -8.239   7.253  71.733  1.00  0.00     0.000 HD 
HETATM   19  O   UNL     1      -8.484   7.759  70.967  1.00  0.00    -0.118 OA 
BRANCH  17  20
HETATM   20  C   UNL     1      -9.738   5.768  70.320  1.00  0.00    -0.223 A  
HETATM   21  C   UNL     1     -10.115   4.847  71.327  1.00  0.00    -0.269 A  
HETATM   22  C   UNL     1     -10.752   5.257  72.587  1.00  0.00    -0.290 C  
HETATM   23  C   UNL     1     -11.038   4.370  73.550  1.00  0.00    -0.388 C  
HETATM   24  C   UNL     1     -10.691   2.934  73.396  1.00  0.00    -0.184 C  
HETATM   25  N   UNL     1     -10.159   2.554  72.197  1.00  0.00    -0.160 N  
HETATM   26  O   UNL     1     -10.888   2.140  74.301  1.00  0.00    -0.149 OA 
HETATM   27  H   UNL     1      -9.947   1.567  72.055  1.00  0.00     0.000 HD 
HETATM   28  C   UNL     1      -9.886   3.452  71.143  1.00  0.00    -0.089 A  
HETATM   29  C   UNL     1      -9.351   2.974  69.944  1.00  0.00    -0.151 A  
HETATM   30  C   UNL     1      -9.040   3.860  68.925  1.00  0.00    -0.196 A  
HETATM   31  O   UNL     1      -9.123   1.647  69.698  1.00  0.00    -0.078 OA 
HETATM   32  C   UNL     1      -9.237   5.235  69.107  1.00  0.00    -0.153 A  
HETATM   33  H   UNL     1      -8.759   1.322  68.883  1.00  0.00     0.000 HD 
ENDBRANCH  17  20
ENDBRANCH  16  17
ENDBRANCH  14  16
ENDBRANCH  10  14
ENDBRANCH   2   3
TORSDOF 6
ENDMDL
MODEL      214
REMARK 921   NORMALIZED FREE ENERGY PREDICTED BY IDOCK:   -4.65 KCAL/MOL
REMARK 922        TOTAL FREE ENERGY PREDICTED BY IDOCK:   -7.56 KCAL/MOL
REMARK 923 INTER-LIGAND FREE ENERGY PREDICTED BY IDOCK:   -6.82 KCAL/MOL
REMARK 924 INTRA-LIGAND FREE ENERGY PREDICTED BY IDOCK:   -0.75 KCAL/MOL
REMARK 927      BINDING AFFINITY PREDICTED BY RF-SCORE:    0.00 PKD
ROOT
HETATM    1  C   UNL     1      -9.393   3.205  72.144  1.00  0.00    -0.181 C  
HETATM    2  C   UNL     1      -8.599   3.434  70.868  1.00  0.00    -0.113 C  
ENDROOT
BRANCH   2   3
HETATM    3  C   UNL     1      -9.041   4.534  69.922  1.00  0.00    -0.165 A  
HETATM    4  C   UNL     1      -9.411   4.149  68.601  1.00  0.00    -0.219 A  
HETATM    5  C   UNL     1     -10.181   5.017  67.826  1.00  0.00    -0.156 A  
HETATM    6  C   UNL     1      -9.007   5.910  70.229  1.00  0.00    -0.152 A  
HETATM    7  C   UNL     1      -9.474   6.799  69.267  1.00  0.00    -0.142 A  
HETATM    8  C   UNL     1     -10.266   6.337  68.213  1.00  0.00    -0.198 A  
HETATM    9  C   UNL     1     -10.593   7.459  67.280  1.00  0.00    -0.393 C  
HETATM   10  C   UNL     1      -9.175   8.055  67.277  1.00  0.00    -0.139 C  
HETATM   11  C   UNL     1      -8.930   8.179  68.850  1.00  0.00    -0.141 C  
BRANCH   4  12
HETATM   12  C   UNL     1      -8.768   2.921  67.976  1.00  0.00    -0.135 C  
HETATM   13  C   UNL     1      -7.417   3.126  67.291  1.00  0.00    -0.062 C  
ENDBRANCH   4  12
BRANCH  10  14
HETATM   14  N   UNL     1      -8.966   9.129  66.283  1.00  0.00    -0.149 NA 
HETATM   15  H   UNL     1      -8.550   8.781  65.421  1.00  0.00     0.000 HD 
BRANCH  14  16
HETATM   16  C   UNL     1     -10.274   9.846  66.038  1.00  0.00    -0.198 C  
BRANCH  16  17
HETATM   17  C   UNL     1     -10.185  11.376  65.781  1.00  0.00    -0.248 C  
HETATM   18  H   UNL     1      -8.742  12.648  65.461  1.00  0.00     0.000 HD 
HETATM   19  O   UNL     1      -8.796  11.713  65.618  1.00  0.00    -0.100 OA 
BRANCH  17  20
HETATM   20  C   UNL     1     -10.816  12.261  66.875  1.00  0.00    -0.290 A  
HETATM   21  C   UNL     1     -10.765  13.675  66.842  1.00  0.00    -0.275 A  
HETATM   22  C   UNL     1     -10.282  14.431  65.677  1.00  0.00    -0.371 C  
HETATM   23  C   UNL     1     -10.184  15.766  65.698  1.00  0.00    -0.407 C  
HETATM   24  C   UNL     1     -10.530  16.540  66.919  1.00  0.00    -0.282 C  
HETATM   25  N   UNL     1     -11.039  15.834  67.972  1.00  0.00    -0.332 N  
HETATM   26  O   UNL     1     -10.375  17.750  66.961  1.00  0.00    -0.332 OA 
HETATM   27  H   UNL     1     -11.318  16.349  68.807  1.00  0.00     0.000 HD 
HETATM   28  C   UNL     1     -11.199  14.433  67.969  1.00  0.00    -0.280 A  
HETATM   29  C   UNL     1     -11.739  13.793  69.087  1.00  0.00    -0.334 A  
HETATM   30  C   UNL     1     -11.854  12.412  69.105  1.00  0.00    -0.352 A  
HETATM   31  O   UNL     1     -12.189  14.463  70.193  1.00  0.00    -0.305 OA 
HETATM   32  C   UNL     1     -11.407  11.658  68.013  1.00  0.00    -0.366 A  
HETATM   33  H   UNL     1     -12.555  14.028  70.954  1.00  0.00     0.000 HD 
ENDBRANCH  17  20
ENDBRANCH  16  17
ENDBRANCH  14  16
ENDBRANCH  10  14
ENDBRANCH   2   3
TORSDOF 6
ENDMDL
MODEL      215
REMARK 921   NORMALIZED FREE ENERGY PREDICTED BY IDOCK:   -4.65 KCAL/MOL
REMARK 922        TOTAL FREE ENERGY PREDICTED BY IDOCK:   -7.55 KCAL/MOL
REMARK 923 INTER-LIGAND FREE ENERGY PREDICTED BY IDOCK:   -7.15 KCAL/MOL
REMARK 924 INTRA-LIGAND FREE ENERGY PREDICTED BY IDOCK:   -0.41 KCAL/MOL
REMARK 927      BINDING AFFINITY PREDICTED BY RF-SCORE:    0.00 PKD
ROOT
HETATM    1  C   UNL     1      -8.450   6.374  73.655  1.00  0.00    -0.127 C  
HETATM    2  C   UNL     1      -8.600   7.884  73.569  1.00  0.00    -0.302 C  
ENDROOT
BRANCH   2   3
HETATM    3  C   UNL     1      -9.206   8.486  72.315  1.00  0.00    -0.343 A  
HETATM    4  C   UNL     1      -8.314   8.814  71.253  1.00  0.00    -0.225 A  
HETATM    5  C   UNL     1      -8.821   8.993  69.965  1.00  0.00    -0.181 A  
HETATM    6  C   UNL     1     -10.564   8.839  72.177  1.00  0.00    -0.386 A  
HETATM    7  C   UNL     1     -10.977   9.355  70.953  1.00  0.00    -0.391 A  
HETATM    8  C   UNL     1     -10.177   9.191  69.820  1.00  0.00    -0.219 A  
HETATM    9  C   UNL     1     -10.796   9.879  68.645  1.00  0.00    -0.244 C  
HETATM   10  C   UNL     1     -11.184  11.151  69.417  1.00  0.00    -0.270 C  
HETATM   11  C   UNL     1     -11.967  10.494  70.645  1.00  0.00    -0.455 C  
BRANCH   4  12
HETATM   12  C   UNL     1      -6.879   9.198  71.577  1.00  0.00    -0.005 C  
HETATM   13  C   UNL     1      -6.160  10.088  70.562  1.00  0.00    -0.100 C  
ENDBRANCH   4  12
BRANCH  10  14
HETATM   14  N   UNL     1     -11.680  12.254  68.569  1.00  0.00    -0.317 NA 
HETATM   15  H   UNL     1     -12.568  12.628  68.902  1.00  0.00     0.000 HD 
BRANCH  14  16
HETATM   16  C   UNL     1     -10.615  13.321  68.460  1.00  0.00    -0.256 C  
BRANCH  16  17
HETATM   17  C   UNL     1     -10.071  13.610  67.034  1.00  0.00    -0.248 C  
HETATM   18  H   UNL     1      -8.559  12.986  65.972  1.00  0.00     0.000 HD 
HETATM   19  O   UNL     1      -8.892  12.809  66.844  1.00  0.00    -0.211 OA 
BRANCH  17  20
HETATM   20  C   UNL     1      -9.753  15.090  66.743  1.00  0.00    -0.253 A  
HETATM   21  C   UNL     1      -8.755  15.813  67.441  1.00  0.00    -0.199 A  
HETATM   22  C   UNL     1      -7.805  15.175  68.363  1.00  0.00    -0.127 C  
HETATM   23  C   UNL     1      -6.913  15.893  69.059  1.00  0.00    -0.156 C  
HETATM   24  C   UNL     1      -6.871  17.375  68.951  1.00  0.00    -0.241 C  
HETATM   25  N   UNL     1      -7.714  17.950  68.044  1.00  0.00    -0.237 N  
HETATM   26  O   UNL     1      -6.106  18.032  69.637  1.00  0.00    -0.240 OA 
HETATM   27  H   UNL     1      -7.676  18.962  67.926  1.00  0.00     0.000 HD 
HETATM   28  C   UNL     1      -8.633  17.222  67.260  1.00  0.00    -0.203 A  
HETATM   29  C   UNL     1      -9.451  17.892  66.346  1.00  0.00    -0.267 A  
HETATM   30  C   UNL     1     -10.387  17.185  65.609  1.00  0.00    -0.198 A  
HETATM   31  O   UNL     1      -9.374  19.239  66.114  1.00  0.00    -0.361 OA 
HETATM   32  C   UNL     1     -10.531  15.805  65.799  1.00  0.00    -0.384 A  
HETATM   33  H   UNL     1      -9.930  19.694  65.494  1.00  0.00     0.000 HD 
ENDBRANCH  17  20
ENDBRANCH  16  17
ENDBRANCH  14  16
ENDBRANCH  10  14
ENDBRANCH   2   3
TORSDOF 6
ENDMDL
MODEL      216
REMARK 921   NORMALIZED FREE ENERGY PREDICTED BY IDOCK:   -4.64 KCAL/MOL
REMARK 922        TOTAL FREE ENERGY PREDICTED BY IDOCK:   -7.55 KCAL/MOL
REMARK 923 INTER-LIGAND FREE ENERGY PREDICTED BY IDOCK:   -6.57 KCAL/MOL
REMARK 924 INTRA-LIGAND FREE ENERGY PREDICTED BY IDOCK:   -0.97 KCAL/MOL
REMARK 927      BINDING AFFINITY PREDICTED BY RF-SCORE:    0.00 PKD
ROOT
HETATM    1  C   UNL     1     -11.318  12.601  66.296  1.00  0.00    -0.376 C  
HETATM    2  C   UNL     1     -10.005  11.845  66.405  1.00  0.00    -0.237 C  
ENDROOT
BRANCH   2   3
HETATM    3  C   UNL     1     -10.044  10.342  66.613  1.00  0.00    -0.279 A  
HETATM    4  C   UNL     1     -10.612   9.868  67.831  1.00  0.00    -0.303 A  
HETATM    5  C   UNL     1     -11.032   8.540  67.917  1.00  0.00     0.095 A  
HETATM    6  C   UNL     1      -9.463   9.401  65.739  1.00  0.00    -0.325 A  
HETATM    7  C   UNL     1      -9.607   8.053  66.050  1.00  0.00    -0.072 A  
HETATM    8  C   UNL     1     -10.578   7.649  66.970  1.00  0.00    -0.406 A  
HETATM    9  C   UNL     1     -10.502   6.171  67.185  1.00  0.00    -0.327 C  
HETATM   10  C   UNL     1      -8.967   6.120  67.267  1.00  0.00    -0.112 C  
HETATM   11  C   UNL     1      -8.599   6.896  65.920  1.00  0.00    -0.152 C  
BRANCH   4  12
HETATM   12  C   UNL     1     -10.532  10.733  69.078  1.00  0.00    -0.239 C  
HETATM   13  C   UNL     1     -11.849  11.033  69.793  1.00  0.00    -0.421 C  
ENDBRANCH   4  12
BRANCH  10  14
HETATM   14  N   UNL     1      -8.420   4.814  67.687  1.00  0.00    -0.104 NA 
HETATM   15  H   UNL     1      -7.838   4.389  66.966  1.00  0.00     0.000 HD 
BRANCH  14  16
HETATM   16  C   UNL     1      -7.681   4.977  68.996  1.00  0.00    -0.080 C  
BRANCH  16  17
HETATM   17  C   UNL     1      -8.416   4.477  70.270  1.00  0.00    -0.074 C  
HETATM   18  H   UNL     1     -10.154   3.677  70.648  1.00  0.00     0.000 HD 
HETATM   19  O   UNL     1      -9.705   3.983  69.868  1.00  0.00    -0.203 OA 
BRANCH  17  20
HETATM   20  C   UNL     1      -8.581   5.529  71.385  1.00  0.00    -0.131 A  
HETATM   21  C   UNL     1      -9.773   6.271  71.571  1.00  0.00    -0.179 A  
HETATM   22  C   UNL     1     -11.019   5.974  70.850  1.00  0.00    -0.355 C  
HETATM   23  C   UNL     1     -12.113   6.733  70.997  1.00  0.00    -0.426 C  
HETATM   24  C   UNL     1     -12.100   7.932  71.875  1.00  0.00    -0.312 C  
HETATM   25  N   UNL     1     -10.958   8.161  72.589  1.00  0.00    -0.372 N  
HETATM   26  O   UNL     1     -13.074   8.663  71.954  1.00  0.00    -0.334 OA 
HETATM   27  H   UNL     1     -10.940   8.957  73.226  1.00  0.00     0.000 HD 
HETATM   28  C   UNL     1      -9.803   7.357  72.494  1.00  0.00    -0.169 A  
HETATM   29  C   UNL     1      -8.682   7.658  73.271  1.00  0.00    -0.190 A  
HETATM   30  C   UNL     1      -7.530   6.898  73.145  1.00  0.00    -0.077 A  
HETATM   31  O   UNL     1      -8.651   8.675  74.186  1.00  0.00    -0.314 OA 
HETATM   32  C   UNL     1      -7.482   5.845  72.222  1.00  0.00    -0.099 A  
HETATM   33  H   UNL     1      -7.889   8.880  74.714  1.00  0.00     0.000 HD 
ENDBRANCH  17  20
ENDBRANCH  16  17
ENDBRANCH  14  16
ENDBRANCH  10  14
ENDBRANCH   2   3
TORSDOF 6
ENDMDL
MODEL      217
REMARK 921   NORMALIZED FREE ENERGY PREDICTED BY IDOCK:   -4.64 KCAL/MOL
REMARK 922        TOTAL FREE ENERGY PREDICTED BY IDOCK:   -7.55 KCAL/MOL
REMARK 923 INTER-LIGAND FREE ENERGY PREDICTED BY IDOCK:   -6.45 KCAL/MOL
REMARK 924 INTRA-LIGAND FREE ENERGY PREDICTED BY IDOCK:   -1.10 KCAL/MOL
REMARK 927      BINDING AFFINITY PREDICTED BY RF-SCORE:    0.00 PKD
ROOT
HETATM    1  C   UNL     1      -8.683   3.179  72.714  1.00  0.00    -0.091 C  
HETATM    2  C   UNL     1      -7.930   3.096  71.397  1.00  0.00    -0.059 C  
ENDROOT
BRANCH   2   3
HETATM    3  C   UNL     1      -8.196   4.148  70.337  1.00  0.00    -0.068 A  
HETATM    4  C   UNL     1      -8.992   3.762  69.220  1.00  0.00    -0.172 A  
HETATM    5  C   UNL     1      -9.591   4.747  68.434  1.00  0.00    -0.210 A  
HETATM    6  C   UNL     1      -7.623   5.437  70.332  1.00  0.00    -0.076 A  
HETATM    7  C   UNL     1      -7.987   6.303  69.306  1.00  0.00    -0.109 A  
HETATM    8  C   UNL     1      -9.125   6.039  68.540  1.00  0.00    -0.112 A  
HETATM    9  C   UNL     1      -9.277   7.070  67.467  1.00  0.00    -0.128 C  
HETATM   10  C   UNL     1      -7.790   7.081  67.074  1.00  0.00    -0.108 C  
HETATM   11  C   UNL     1      -7.132   7.308  68.512  1.00  0.00    -0.085 C  
BRANCH   4  12
HETATM   12  C   UNL     1      -8.979   2.312  68.762  1.00  0.00    -0.173 C  
HETATM   13  C   UNL     1      -9.093   2.065  67.257  1.00  0.00    -0.153 C  
ENDBRANCH   4  12
BRANCH  10  14
HETATM   14  N   UNL     1      -7.486   7.857  65.854  1.00  0.00    -0.076 NA 
HETATM   15  H   UNL     1      -6.982   7.305  65.161  1.00  0.00     0.000 HD 
BRANCH  14  16
HETATM   16  C   UNL     1      -8.765   8.441  65.300  1.00  0.00    -0.113 C  
BRANCH  16  17
HETATM   17  C   UNL     1      -8.758   9.967  65.008  1.00  0.00    -0.173 C  
HETATM   18  H   UNL     1      -7.403  11.370  64.979  1.00  0.00     0.000 HD 
HETATM   19  O   UNL     1      -7.407  10.436  65.157  1.00  0.00    -0.139 OA 
BRANCH  17  20
HETATM   20  C   UNL     1      -9.705  10.806  65.890  1.00  0.00    -0.272 A  
HETATM   21  C   UNL     1     -10.545  11.819  65.367  1.00  0.00    -0.325 A  
HETATM   22  C   UNL     1     -10.736  12.034  63.926  1.00  0.00    -0.450 C  
HETATM   23  C   UNL     1     -11.485  13.042  63.460  1.00  0.00    -0.403 C  
HETATM   24  C   UNL     1     -12.130  14.009  64.386  1.00  0.00    -0.458 C  
HETATM   25  N   UNL     1     -12.000  13.761  65.723  1.00  0.00    -0.376 N  
HETATM   26  O   UNL     1     -12.754  14.966  63.959  1.00  0.00    -0.792 OA 
HETATM   27  H   UNL     1     -12.465  14.391  66.376  1.00  0.00     0.000 HD 
HETATM   28  C   UNL     1     -11.257  12.684  66.249  1.00  0.00    -0.311 A  
HETATM   29  C   UNL     1     -11.186  12.500  67.633  1.00  0.00    -0.282 A  
HETATM   30  C   UNL     1     -10.419  11.470  68.154  1.00  0.00    -0.216 A  
HETATM   31  O   UNL     1     -11.857  13.284  68.532  1.00  0.00    -0.323 OA 
HETATM   32  C   UNL     1      -9.696  10.631  67.296  1.00  0.00    -0.195 A  
HETATM   33  H   UNL     1     -11.809  13.159  69.472  1.00  0.00     0.000 HD 
ENDBRANCH  17  20
ENDBRANCH  16  17
ENDBRANCH  14  16
ENDBRANCH  10  14
ENDBRANCH   2   3
TORSDOF 6
ENDMDL
MODEL      218
REMARK 921   NORMALIZED FREE ENERGY PREDICTED BY IDOCK:   -4.64 KCAL/MOL
REMARK 922        TOTAL FREE ENERGY PREDICTED BY IDOCK:   -7.54 KCAL/MOL
REMARK 923 INTER-LIGAND FREE ENERGY PREDICTED BY IDOCK:   -7.37 KCAL/MOL
REMARK 924 INTRA-LIGAND FREE ENERGY PREDICTED BY IDOCK:   -0.17 KCAL/MOL
REMARK 927      BINDING AFFINITY PREDICTED BY RF-SCORE:    0.00 PKD
ROOT
HETATM    1  C   UNL     1      -6.917   4.602  73.408  1.00  0.00    -0.070 C  
HETATM    2  C   UNL     1      -8.092   5.174  74.183  1.00  0.00    -0.100 C  
ENDROOT
BRANCH   2   3
HETATM    3  C   UNL     1      -9.037   6.127  73.475  1.00  0.00    -0.128 A  
HETATM    4  C   UNL     1     -10.280   5.596  73.024  1.00  0.00    -0.213 A  
HETATM    5  C   UNL     1     -11.330   6.469  72.732  1.00  0.00    -0.221 A  
HETATM    6  C   UNL     1      -8.722   7.460  73.142  1.00  0.00    -0.185 A  
HETATM    7  C   UNL     1      -9.706   8.221  72.518  1.00  0.00    -0.368 A  
HETATM    8  C   UNL     1     -11.038   7.803  72.552  1.00  0.00    -0.403 A  
HETATM    9  C   UNL     1     -11.896   8.744  71.767  1.00  0.00    -0.414 C  
HETATM   10  C   UNL     1     -10.918   8.870  70.586  1.00  0.00    -0.241 C  
HETATM   11  C   UNL     1      -9.584   9.249  71.378  1.00  0.00    -0.229 C  
BRANCH   4  12
HETATM   12  C   UNL     1     -10.369   4.128  72.640  1.00  0.00    -0.233 C  
HETATM   13  C   UNL     1     -11.554   3.341  73.200  1.00  0.00     0.107 C  
ENDBRANCH   4  12
BRANCH  10  14
HETATM   14  N   UNL     1     -11.462   9.592  69.417  1.00  0.00    -0.438 NA 
HETATM   15  H   UNL     1     -12.471   9.720  69.477  1.00  0.00     0.000 HD 
BRANCH  14  16
HETATM   16  C   UNL     1     -10.728  10.903  69.251  1.00  0.00    -0.231 C  
BRANCH  16  17
HETATM   17  C   UNL     1      -9.440  10.869  68.384  1.00  0.00    -0.178 C  
HETATM   18  H   UNL     1      -7.755  11.851  68.360  1.00  0.00     0.000 HD 
HETATM   19  O   UNL     1      -8.543  11.872  68.891  1.00  0.00    -0.010 OA 
BRANCH  17  20
HETATM   20  C   UNL     1      -9.663  11.079  66.872  1.00  0.00    -0.215 A  
HETATM   21  C   UNL     1     -10.228  12.261  66.337  1.00  0.00    -0.247 A  
HETATM   22  C   UNL     1     -10.474  13.465  67.143  1.00  0.00    -0.249 C  
HETATM   23  C   UNL     1     -11.071  14.547  66.624  1.00  0.00    -0.333 C  
HETATM   24  C   UNL     1     -11.540  14.561  65.214  1.00  0.00    -0.359 C  
HETATM   25  N   UNL     1     -11.249  13.462  64.458  1.00  0.00    -0.356 N  
HETATM   26  O   UNL     1     -12.145  15.519  64.764  1.00  0.00    -0.113 OA 
HETATM   27  H   UNL     1     -11.529  13.465  63.477  1.00  0.00     0.000 HD 
HETATM   28  C   UNL     1     -10.582  12.324  64.957  1.00  0.00    -0.287 A  
HETATM   29  C   UNL     1     -10.314  11.247  64.108  1.00  0.00    -0.351 A  
HETATM   30  C   UNL     1      -9.701  10.109  64.607  1.00  0.00    -0.377 A  
HETATM   31  O   UNL     1     -10.613  11.250  62.772  1.00  0.00    -0.703 OA 
HETATM   32  C   UNL     1      -9.374  10.028  65.967  1.00  0.00    -0.224 A  
HETATM   33  H   UNL     1     -10.432  10.518  62.195  1.00  0.00     0.000 HD 
ENDBRANCH  17  20
ENDBRANCH  16  17
ENDBRANCH  14  16
ENDBRANCH  10  14
ENDBRANCH   2   3
TORSDOF 6
ENDMDL
MODEL      219
REMARK 921   NORMALIZED FREE ENERGY PREDICTED BY IDOCK:   -4.62 KCAL/MOL
REMARK 922        TOTAL FREE ENERGY PREDICTED BY IDOCK:   -7.52 KCAL/MOL
REMARK 923 INTER-LIGAND FREE ENERGY PREDICTED BY IDOCK:   -6.83 KCAL/MOL
REMARK 924 INTRA-LIGAND FREE ENERGY PREDICTED BY IDOCK:   -0.70 KCAL/MOL
REMARK 927      BINDING AFFINITY PREDICTED BY RF-SCORE:    0.00 PKD
ROOT
HETATM    1  C   UNL     1     -11.336  16.108  64.536  1.00  0.00    -0.273 C  
HETATM    2  C   UNL     1     -11.700  14.637  64.415  1.00  0.00    -0.358 C  
ENDROOT
BRANCH   2   3
HETATM    3  C   UNL     1     -11.222  13.678  65.489  1.00  0.00    -0.301 A  
HETATM    4  C   UNL     1     -10.300  12.666  65.095  1.00  0.00    -0.312 A  
HETATM    5  C   UNL     1      -9.536  12.020  66.069  1.00  0.00    -0.247 A  
HETATM    6  C   UNL     1     -11.710  13.656  66.812  1.00  0.00    -0.426 A  
HETATM    7  C   UNL     1     -11.151  12.735  67.692  1.00  0.00    -0.294 A  
HETATM    8  C   UNL     1      -9.933  12.124  67.384  1.00  0.00    -0.206 A  
HETATM    9  C   UNL     1      -9.568  11.134  68.445  1.00  0.00    -0.192 C  
HETATM   10  C   UNL     1     -10.981  10.539  68.571  1.00  0.00    -0.252 C  
HETATM   11  C   UNL     1     -11.822  11.879  68.783  1.00  0.00    -0.371 C  
BRANCH   4  12
HETATM   12  C   UNL     1     -10.334  12.140  63.669  1.00  0.00    -0.482 C  
HETATM   13  C   UNL     1      -9.898  10.690  63.460  1.00  0.00    -0.384 C  
ENDBRANCH   4  12
BRANCH  10  14
HETATM   14  N   UNL     1     -11.060   9.328  69.414  1.00  0.00    -0.425 NA 
HETATM   15  H   UNL     1     -11.767   8.672  69.082  1.00  0.00     0.000 HD 
BRANCH  14  16
HETATM   16  C   UNL     1      -9.692   8.692  69.509  1.00  0.00    -0.179 C  
BRANCH  16  17
HETATM   17  C   UNL     1      -9.064   8.615  70.928  1.00  0.00    -0.187 C  
HETATM   18  H   UNL     1      -7.640   9.557  71.870  1.00  0.00     0.000 HD 
HETATM   19  O   UNL     1      -8.024   9.605  71.002  1.00  0.00    -0.301 OA 
BRANCH  17  20
HETATM   20  C   UNL     1      -8.503   7.233  71.320  1.00  0.00    -0.115 A  
HETATM   21  C   UNL     1      -9.301   6.216  71.897  1.00  0.00    -0.157 A  
HETATM   22  C   UNL     1     -10.764   6.308  71.997  1.00  0.00    -0.268 C  
HETATM   23  C   UNL     1     -11.487   5.360  72.607  1.00  0.00    -0.305 C  
HETATM   24  C   UNL     1     -10.832   4.185  73.240  1.00  0.00    -0.228 C  
HETATM   25  N   UNL     1      -9.480   4.077  73.084  1.00  0.00    -0.112 N  
HETATM   26  O   UNL     1     -11.485   3.358  73.855  1.00  0.00    -0.089 OA 
HETATM   27  H   UNL     1      -9.014   3.260  73.478  1.00  0.00     0.000 HD 
HETATM   28  C   UNL     1      -8.692   5.032  72.409  1.00  0.00    -0.124 A  
HETATM   29  C   UNL     1      -7.314   4.835  72.287  1.00  0.00    -0.082 A  
HETATM   30  C   UNL     1      -6.531   5.795  71.665  1.00  0.00    -0.049 A  
HETATM   31  O   UNL     1      -6.671   3.716  72.742  1.00  0.00    -0.034 OA 
HETATM   32  C   UNL     1      -7.117   6.972  71.182  1.00  0.00    -0.074 A  
HETATM   33  H   UNL     1      -5.734   3.582  72.659  1.00  0.00     0.000 HD 
ENDBRANCH  17  20
ENDBRANCH  16  17
ENDBRANCH  14  16
ENDBRANCH  10  14
ENDBRANCH   2   3
TORSDOF 6
ENDMDL
MODEL      220
REMARK 921   NORMALIZED FREE ENERGY PREDICTED BY IDOCK:   -4.62 KCAL/MOL
REMARK 922        TOTAL FREE ENERGY PREDICTED BY IDOCK:   -7.52 KCAL/MOL
REMARK 923 INTER-LIGAND FREE ENERGY PREDICTED BY IDOCK:   -7.19 KCAL/MOL
REMARK 924 INTRA-LIGAND FREE ENERGY PREDICTED BY IDOCK:   -0.32 KCAL/MOL
REMARK 927      BINDING AFFINITY PREDICTED BY RF-SCORE:    0.00 PKD
ROOT
HETATM    1  C   UNL     1      -9.183   2.019  72.704  1.00  0.00    -0.113 C  
HETATM    2  C   UNL     1      -9.935   2.863  71.689  1.00  0.00    -0.151 C  
ENDROOT
BRANCH   2   3
HETATM    3  C   UNL     1      -9.359   4.208  71.289  1.00  0.00    -0.218 A  
HETATM    4  C   UNL     1      -9.669   5.323  72.120  1.00  0.00    -0.202 A  
HETATM    5  C   UNL     1      -8.879   6.471  72.046  1.00  0.00    -0.133 A  
HETATM    6  C   UNL     1      -8.634   4.443  70.102  1.00  0.00    -0.102 A  
HETATM    7  C   UNL     1      -8.142   5.727  69.889  1.00  0.00    -0.107 A  
HETATM    8  C   UNL     1      -8.057   6.629  70.952  1.00  0.00    -0.119 A  
HETATM    9  C   UNL     1      -7.560   7.954  70.468  1.00  0.00    -0.081 C  
HETATM   10  C   UNL     1      -8.438   7.979  69.205  1.00  0.00    -0.136 C  
HETATM   11  C   UNL     1      -8.068   6.552  68.590  1.00  0.00    -0.118 C  
BRANCH   4  12
HETATM   12  C   UNL     1     -10.981   5.338  72.889  1.00  0.00    -0.343 C  
HETATM   13  C   UNL     1     -12.095   6.222  72.328  1.00  0.00    -0.255 C  
ENDBRANCH   4  12
BRANCH  10  14
HETATM   14  N   UNL     1      -8.422   9.263  68.475  1.00  0.00    -0.122 NA 
HETATM   15  H   UNL     1      -8.766   9.169  67.520  1.00  0.00     0.000 HD 
BRANCH  14  16
HETATM   16  C   UNL     1      -9.194  10.297  69.262  1.00  0.00    -0.202 C  
BRANCH  16  17
HETATM   17  C   UNL     1     -10.735  10.306  69.065  1.00  0.00    -0.227 C  
HETATM   18  H   UNL     1     -11.953   9.824  67.619  1.00  0.00     0.000 HD 
HETATM   19  O   UNL     1     -11.010   9.818  67.740  1.00  0.00    -0.274 OA 
BRANCH  17  20
HETATM   20  C   UNL     1     -11.414  11.675  69.272  1.00  0.00    -0.364 A  
HETATM   21  C   UNL     1     -11.378  12.705  68.301  1.00  0.00    -0.337 A  
HETATM   22  C   UNL     1     -10.863  12.502  66.940  1.00  0.00    -0.280 C  
HETATM   23  C   UNL     1     -10.781  13.511  66.063  1.00  0.00    -0.280 C  
HETATM   24  C   UNL     1     -11.178  14.891  66.444  1.00  0.00    -0.331 C  
HETATM   25  N   UNL     1     -11.714  15.055  67.689  1.00  0.00    -0.369 N  
HETATM   26  O   UNL     1     -11.037  15.822  65.668  1.00  0.00    -0.265 OA 
HETATM   27  H   UNL     1     -12.028  15.987  67.959  1.00  0.00     0.000 HD 
HETATM   28  C   UNL     1     -11.859  14.008  68.622  1.00  0.00    -0.361 A  
HETATM   29  C   UNL     1     -12.430  14.264  69.871  1.00  0.00    -0.264 A  
HETATM   30  C   UNL     1     -12.531  13.247  70.807  1.00  0.00    -0.403 A  
HETATM   31  O   UNL     1     -12.926  15.487  70.236  1.00  0.00    -0.635 OA 
HETATM   32  C   UNL     1     -12.037  11.970  70.510  1.00  0.00    -0.402 A  
HETATM   33  H   UNL     1     -13.314  15.661  71.085  1.00  0.00     0.000 HD 
ENDBRANCH  17  20
ENDBRANCH  16  17
ENDBRANCH  14  16
ENDBRANCH  10  14
ENDBRANCH   2   3
TORSDOF 6
ENDMDL
MODEL      221
REMARK 921   NORMALIZED FREE ENERGY PREDICTED BY IDOCK:   -4.61 KCAL/MOL
REMARK 922        TOTAL FREE ENERGY PREDICTED BY IDOCK:   -7.51 KCAL/MOL
REMARK 923 INTER-LIGAND FREE ENERGY PREDICTED BY IDOCK:   -7.10 KCAL/MOL
REMARK 924 INTRA-LIGAND FREE ENERGY PREDICTED BY IDOCK:   -0.41 KCAL/MOL
REMARK 927      BINDING AFFINITY PREDICTED BY RF-SCORE:    0.00 PKD
ROOT
HETATM    1  C   UNL     1      -9.013   3.154  65.529  1.00  0.00    -0.144 C  
HETATM    2  C   UNL     1      -8.625   3.725  66.883  1.00  0.00    -0.109 C  
ENDROOT
BRANCH   2   3
HETATM    3  C   UNL     1      -8.491   5.229  67.028  1.00  0.00    -0.106 A  
HETATM    4  C   UNL     1      -8.415   5.752  68.351  1.00  0.00    -0.110 A  
HETATM    5  C   UNL     1      -7.908   7.038  68.550  1.00  0.00    -0.122 A  
HETATM    6  C   UNL     1      -8.547   6.141  65.954  1.00  0.00    -0.147 A  
HETATM    7  C   UNL     1      -8.378   7.492  66.242  1.00  0.00    -0.134 A  
HETATM    8  C   UNL     1      -7.825   7.882  67.464  1.00  0.00    -0.122 A  
HETATM    9  C   UNL     1      -7.801   9.373  67.569  1.00  0.00    -0.099 C  
HETATM   10  C   UNL     1      -9.218   9.575  67.005  1.00  0.00    -0.139 C  
HETATM   11  C   UNL     1      -9.097   8.723  65.659  1.00  0.00    -0.247 C  
BRANCH   4  12
HETATM   12  C   UNL     1      -9.101   5.010  69.487  1.00  0.00    -0.150 C  
HETATM   13  C   UNL     1     -10.600   5.255  69.661  1.00  0.00    -0.261 C  
ENDBRANCH   4  12
BRANCH  10  14
HETATM   14  N   UNL     1      -9.725  10.959  67.107  1.00  0.00    -0.172 NA 
HETATM   15  H   UNL     1     -10.371  11.076  67.887  1.00  0.00     0.000 HD 
BRANCH  14  16
HETATM   16  C   UNL     1      -8.558  11.916  67.182  1.00  0.00    -0.172 C  
BRANCH  16  17
HETATM   17  C   UNL     1      -8.900  13.397  67.505  1.00  0.00    -0.210 C  
HETATM   18  H   UNL     1      -9.857  14.323  68.931  1.00  0.00     0.000 HD 
HETATM   19  O   UNL     1      -9.648  13.417  68.733  1.00  0.00    -0.106 OA 
BRANCH  17  20
HETATM   20  C   UNL     1      -9.679  14.144  66.404  1.00  0.00    -0.313 A  
HETATM   21  C   UNL     1      -9.705  15.556  66.305  1.00  0.00    -0.328 A  
HETATM   22  C   UNL     1      -8.846  16.430  67.116  1.00  0.00    -0.214 C  
HETATM   23  C   UNL     1      -8.939  17.765  67.049  1.00  0.00    -0.258 C  
HETATM   24  C   UNL     1      -9.943  18.419  66.171  1.00  0.00    -0.319 C  
HETATM   25  N   UNL     1     -10.691  17.600  65.374  1.00  0.00    -0.150 N  
HETATM   26  O   UNL     1     -10.074  19.632  66.162  1.00  0.00    -0.419 OA 
HETATM   27  H   UNL     1     -11.361  18.029  64.736  1.00  0.00     0.000 HD 
HETATM   28  C   UNL     1     -10.589  16.193  65.385  1.00  0.00    -0.380 A  
HETATM   29  C   UNL     1     -11.386  15.432  64.527  1.00  0.00    -0.313 A  
HETATM   30  C   UNL     1     -11.321  14.048  64.568  1.00  0.00    -0.365 A  
HETATM   31  O   UNL     1     -12.242  15.981  63.610  1.00  0.00    -1.195 OA 
HETATM   32  C   UNL     1     -10.475  13.414  65.487  1.00  0.00    -0.297 A  
HETATM   33  H   UNL     1     -12.785  15.463  63.027  1.00  0.00     0.000 HD 
ENDBRANCH  17  20
ENDBRANCH  16  17
ENDBRANCH  14  16
ENDBRANCH  10  14
ENDBRANCH   2   3
TORSDOF 6
ENDMDL
MODEL      222
REMARK 921   NORMALIZED FREE ENERGY PREDICTED BY IDOCK:   -4.61 KCAL/MOL
REMARK 922        TOTAL FREE ENERGY PREDICTED BY IDOCK:   -7.51 KCAL/MOL
REMARK 923 INTER-LIGAND FREE ENERGY PREDICTED BY IDOCK:   -7.04 KCAL/MOL
REMARK 924 INTRA-LIGAND FREE ENERGY PREDICTED BY IDOCK:   -0.47 KCAL/MOL
REMARK 927      BINDING AFFINITY PREDICTED BY RF-SCORE:    0.00 PKD
ROOT
HETATM    1  C   UNL     1      -9.876   7.041  74.021  1.00  0.00    -0.345 C  
HETATM    2  C   UNL     1     -11.271   7.329  73.492  1.00  0.00     0.143 C  
ENDROOT
BRANCH   2   3
HETATM    3  C   UNL     1     -11.440   8.394  72.425  1.00  0.00    -0.451 A  
HETATM    4  C   UNL     1     -12.762   8.866  72.179  1.00  0.00    -0.470 A  
HETATM    5  C   UNL     1     -12.942  10.083  71.521  1.00  0.00    -0.535 A  
HETATM    6  C   UNL     1     -10.401   8.863  71.596  1.00  0.00    -0.416 A  
HETATM    7  C   UNL     1     -10.706   9.866  70.681  1.00  0.00    -0.372 A  
HETATM    8  C   UNL     1     -11.876  10.615  70.830  1.00  0.00    -0.459 A  
HETATM    9  C   UNL     1     -12.016  11.585  69.700  1.00  0.00    -0.407 C  
HETATM   10  C   UNL     1     -11.602  10.586  68.607  1.00  0.00    -0.171 C  
HETATM   11  C   UNL     1     -10.230  10.057  69.229  1.00  0.00    -0.229 C  
BRANCH   4  12
HETATM   12  C   UNL     1     -13.942   7.936  72.416  1.00  0.00    -0.037 C  
HETATM   13  C   UNL     1     -14.062   6.728  71.487  1.00  0.00    -0.179 C  
ENDBRANCH   4  12
BRANCH  10  14
HETATM   14  N   UNL     1     -11.790  11.078  67.226  1.00  0.00    -0.345 NA 
HETATM   15  H   UNL     1     -12.586  10.638  66.765  1.00  0.00     0.000 HD 
BRANCH  14  16
HETATM   16  C   UNL     1     -11.900  12.585  67.242  1.00  0.00    -0.311 C  
BRANCH  16  17
HETATM   17  C   UNL     1     -11.606  13.313  65.901  1.00  0.00    -0.347 C  
HETATM   18  H   UNL     1     -11.256  12.754  64.065  1.00  0.00     0.000 HD 
HETATM   19  O   UNL     1     -11.436  12.309  64.885  1.00  0.00    -0.316 OA 
BRANCH  17  20
HETATM   20  C   UNL     1     -10.384  14.253  65.921  1.00  0.00    -0.325 A  
HETATM   21  C   UNL     1      -9.144  13.887  66.498  1.00  0.00    -0.165 A  
HETATM   22  C   UNL     1      -8.846  12.522  66.953  1.00  0.00    -0.203 C  
HETATM   23  C   UNL     1      -7.688  12.219  67.554  1.00  0.00    -0.158 C  
HETATM   24  C   UNL     1      -6.665  13.265  67.816  1.00  0.00    -0.153 C  
HETATM   25  N   UNL     1      -6.924  14.515  67.332  1.00  0.00    -0.206 N  
HETATM   26  O   UNL     1      -5.641  13.003  68.426  1.00  0.00    -0.062 OA 
HETATM   27  H   UNL     1      -6.220  15.240  67.467  1.00  0.00     0.000 HD 
HETATM   28  C   UNL     1      -8.112  14.859  66.654  1.00  0.00     0.169 A  
HETATM   29  C   UNL     1      -8.290  16.162  66.180  1.00  0.00    -0.187 A  
HETATM   30  C   UNL     1      -9.475  16.514  65.555  1.00  0.00     0.202 A  
HETATM   31  O   UNL     1      -7.334  17.137  66.284  1.00  0.00    -0.273 OA 
HETATM   32  C   UNL     1     -10.504  15.573  65.421  1.00  0.00    -0.429 A  
HETATM   33  H   UNL     1      -7.455  18.022  65.963  1.00  0.00     0.000 HD 
ENDBRANCH  17  20
ENDBRANCH  16  17
ENDBRANCH  14  16
ENDBRANCH  10  14
ENDBRANCH   2   3
TORSDOF 6
ENDMDL
MODEL      223
REMARK 921   NORMALIZED FREE ENERGY PREDICTED BY IDOCK:   -4.61 KCAL/MOL
REMARK 922        TOTAL FREE ENERGY PREDICTED BY IDOCK:   -7.51 KCAL/MOL
REMARK 923 INTER-LIGAND FREE ENERGY PREDICTED BY IDOCK:   -6.71 KCAL/MOL
REMARK 924 INTRA-LIGAND FREE ENERGY PREDICTED BY IDOCK:   -0.79 KCAL/MOL
REMARK 927      BINDING AFFINITY PREDICTED BY RF-SCORE:    0.00 PKD
ROOT
HETATM    1  C   UNL     1      -7.484   3.693  68.256  1.00  0.00    -0.057 C  
HETATM    2  C   UNL     1      -7.162   5.178  68.298  1.00  0.00    -0.067 C  
ENDROOT
BRANCH   2   3
HETATM    3  C   UNL     1      -8.215   6.138  68.818  1.00  0.00    -0.108 A  
HETATM    4  C   UNL     1      -9.444   6.209  68.099  1.00  0.00    -0.113 A  
HETATM    5  C   UNL     1     -10.570   6.751  68.721  1.00  0.00    -0.258 A  
HETATM    6  C   UNL     1      -8.019   7.032  69.890  1.00  0.00    -0.123 A  
HETATM    7  C   UNL     1      -9.092   7.831  70.271  1.00  0.00    -0.152 A  
HETATM    8  C   UNL     1     -10.386   7.506  69.859  1.00  0.00    -0.224 A  
HETATM    9  C   UNL     1     -11.357   8.538  70.338  1.00  0.00    -0.193 C  
HETATM   10  C   UNL     1     -10.468   9.741  69.981  1.00  0.00    -0.270 C  
HETATM   11  C   UNL     1      -9.117   9.306  70.714  1.00  0.00    -0.306 C  
BRANCH   4  12
HETATM   12  C   UNL     1      -9.451   5.923  66.606  1.00  0.00    -0.165 C  
HETATM   13  C   UNL     1     -10.453   4.880  66.111  1.00  0.00    -0.346 C  
ENDBRANCH   4  12
BRANCH  10  14
HETATM   14  N   UNL     1     -11.135  11.053  70.110  1.00  0.00    -0.473 NA 
HETATM   15  H   UNL     1     -10.490  11.788  70.399  1.00  0.00     0.000 HD 
BRANCH  14  16
HETATM   16  C   UNL     1     -11.837  11.388  68.814  1.00  0.00    -0.323 C  
BRANCH  16  17
HETATM   17  C   UNL     1     -11.665  12.840  68.289  1.00  0.00    -0.344 C  
HETATM   18  H   UNL     1     -12.194  13.808  66.681  1.00  0.00     0.000 HD 
HETATM   19  O   UNL     1     -12.300  12.919  67.001  1.00  0.00    -0.360 OA 
BRANCH  17  20
HETATM   20  C   UNL     1     -10.206  13.329  68.187  1.00  0.00    -0.243 A  
HETATM   21  C   UNL     1      -9.830  14.676  68.407  1.00  0.00    -0.220 A  
HETATM   22  C   UNL     1     -10.755  15.686  68.939  1.00  0.00    -0.238 C  
HETATM   23  C   UNL     1     -10.392  16.968  69.077  1.00  0.00    -0.330 C  
HETATM   24  C   UNL     1      -9.041  17.430  68.663  1.00  0.00    -0.261 C  
HETATM   25  N   UNL     1      -8.169  16.472  68.230  1.00  0.00    -0.178 N  
HETATM   26  O   UNL     1      -8.735  18.609  68.723  1.00  0.00    -0.323 OA 
HETATM   27  H   UNL     1      -7.225  16.760  67.976  1.00  0.00     0.000 HD 
HETATM   28  C   UNL     1      -8.502  15.106  68.116  1.00  0.00    -0.152 A  
HETATM   29  C   UNL     1      -7.543  14.191  67.676  1.00  0.00    -0.180 A  
HETATM   30  C   UNL     1      -7.881  12.857  67.519  1.00  0.00    -0.177 A  
HETATM   31  O   UNL     1      -6.248  14.535  67.395  1.00  0.00    -0.333 OA 
HETATM   32  C   UNL     1      -9.190  12.430  67.777  1.00  0.00    -0.193 A  
HETATM   33  H   UNL     1      -5.595  13.913  67.095  1.00  0.00     0.000 HD 
ENDBRANCH  17  20
ENDBRANCH  16  17
ENDBRANCH  14  16
ENDBRANCH  10  14
ENDBRANCH   2   3
TORSDOF 6
ENDMDL
MODEL      224
REMARK 921   NORMALIZED FREE ENERGY PREDICTED BY IDOCK:   -4.59 KCAL/MOL
REMARK 922        TOTAL FREE ENERGY PREDICTED BY IDOCK:   -7.47 KCAL/MOL
REMARK 923 INTER-LIGAND FREE ENERGY PREDICTED BY IDOCK:   -6.28 KCAL/MOL
REMARK 924 INTRA-LIGAND FREE ENERGY PREDICTED BY IDOCK:   -1.19 KCAL/MOL
REMARK 927      BINDING AFFINITY PREDICTED BY RF-SCORE:    0.00 PKD
ROOT
HETATM    1  C   UNL     1      -6.438   6.550  74.489  1.00  0.00    -0.081 C  
HETATM    2  C   UNL     1      -7.948   6.395  74.408  1.00  0.00    -0.110 C  
ENDROOT
BRANCH   2   3
HETATM    3  C   UNL     1      -8.707   7.189  73.362  1.00  0.00    -0.168 A  
HETATM    4  C   UNL     1     -10.128   7.072  73.359  1.00  0.00    -0.320 A  
HETATM    5  C   UNL     1     -10.893   8.043  72.711  1.00  0.00    -0.438 A  
HETATM    6  C   UNL     1      -8.099   7.941  72.336  1.00  0.00    -0.167 A  
HETATM    7  C   UNL     1      -8.931   8.640  71.467  1.00  0.00    -0.302 A  
HETATM    8  C   UNL     1     -10.263   8.878  71.813  1.00  0.00    -0.414 A  
HETATM    9  C   UNL     1     -10.968   9.589  70.703  1.00  0.00    -0.370 C  
HETATM   10  C   UNL     1     -10.366   8.726  69.581  1.00  0.00    -0.213 C  
HETATM   11  C   UNL     1      -8.816   8.850  69.945  1.00  0.00    -0.154 C  
BRANCH   4  12
HETATM   12  C   UNL     1     -10.770   5.782  73.844  1.00  0.00    -0.197 C  
HETATM   13  C   UNL     1     -10.870   4.640  72.833  1.00  0.00    -0.295 C  
ENDBRANCH   4  12
BRANCH  10  14
HETATM   14  N   UNL     1     -10.960   8.956  68.248  1.00  0.00    -0.466 NA 
HETATM   15  H   UNL     1     -11.784   9.555  68.290  1.00  0.00     0.000 HD 
BRANCH  14  16
HETATM   16  C   UNL     1      -9.903   9.503  67.315  1.00  0.00    -0.177 C  
BRANCH  16  17
HETATM   17  C   UNL     1      -9.964  11.028  67.022  1.00  0.00    -0.190 C  
HETATM   18  H   UNL     1     -10.237  12.126  65.433  1.00  0.00     0.000 HD 
HETATM   19  O   UNL     1     -10.200  11.194  65.613  1.00  0.00    -0.239 OA 
BRANCH  17  20
HETATM   20  C   UNL     1      -8.712  11.825  67.442  1.00  0.00    -0.162 A  
HETATM   21  C   UNL     1      -8.776  13.154  67.927  1.00  0.00    -0.192 A  
HETATM   22  C   UNL     1     -10.041  13.825  68.256  1.00  0.00    -0.239 C  
HETATM   23  C   UNL     1     -10.075  15.104  68.650  1.00  0.00    -0.222 C  
HETATM   24  C   UNL     1      -8.831  15.912  68.740  1.00  0.00    -0.213 C  
HETATM   25  N   UNL     1      -7.656  15.260  68.495  1.00  0.00    -0.114 N  
HETATM   26  O   UNL     1      -8.870  17.095  69.032  1.00  0.00    -0.220 OA 
HETATM   27  H   UNL     1      -6.786  15.785  68.587  1.00  0.00     0.000 HD 
HETATM   28  C   UNL     1      -7.578  13.902  68.122  1.00  0.00    -0.134 A  
HETATM   29  C   UNL     1      -6.331  13.312  67.901  1.00  0.00    -0.144 A  
HETATM   30  C   UNL     1      -6.254  11.992  67.490  1.00  0.00    -0.113 A  
HETATM   31  O   UNL     1      -5.144  13.970  68.086  1.00  0.00    -0.101 OA 
HETATM   32  C   UNL     1      -7.426  11.256  67.270  1.00  0.00    -0.126 A  
HETATM   33  H   UNL     1      -4.296  13.569  67.935  1.00  0.00     0.000 HD 
ENDBRANCH  17  20
ENDBRANCH  16  17
ENDBRANCH  14  16
ENDBRANCH  10  14
ENDBRANCH   2   3
TORSDOF 6
ENDMDL
MODEL      225
REMARK 921   NORMALIZED FREE ENERGY PREDICTED BY IDOCK:   -4.57 KCAL/MOL
REMARK 922        TOTAL FREE ENERGY PREDICTED BY IDOCK:   -7.45 KCAL/MOL
REMARK 923 INTER-LIGAND FREE ENERGY PREDICTED BY IDOCK:   -7.63 KCAL/MOL
REMARK 924 INTRA-LIGAND FREE ENERGY PREDICTED BY IDOCK:    0.18 KCAL/MOL
REMARK 927      BINDING AFFINITY PREDICTED BY RF-SCORE:    0.00 PKD
ROOT
HETATM    1  C   UNL     1     -10.458  18.622  67.676  1.00  0.00    -0.468 C  
HETATM    2  C   UNL     1      -9.933  17.350  68.322  1.00  0.00    -0.320 C  
ENDROOT
BRANCH   2   3
HETATM    3  C   UNL     1     -10.401  16.012  67.781  1.00  0.00    -0.279 A  
HETATM    4  C   UNL     1     -11.576  15.450  68.359  1.00  0.00    -0.368 A  
HETATM    5  C   UNL     1     -12.268  14.454  67.668  1.00  0.00    -0.200 A  
HETATM    6  C   UNL     1      -9.695  15.246  66.830  1.00  0.00    -0.249 A  
HETATM    7  C   UNL     1     -10.268  14.051  66.408  1.00  0.00    -0.293 A  
HETATM    8  C   UNL     1     -11.624  13.806  66.637  1.00  0.00    -0.392 A  
HETATM    9  C   UNL     1     -11.992  12.440  66.153  1.00  0.00    -0.397 C  
HETATM   10  C   UNL     1     -10.743  11.748  66.723  1.00  0.00    -0.253 C  
HETATM   11  C   UNL     1      -9.608  12.691  66.111  1.00  0.00    -0.222 C  
BRANCH   4  12
HETATM   12  C   UNL     1     -11.918  15.764  69.807  1.00  0.00    -0.337 C  
HETATM   13  C   UNL     1     -12.119  14.570  70.740  1.00  0.00    -0.398 C  
ENDBRANCH   4  12
BRANCH  10  14
HETATM   14  N   UNL     1     -10.773  10.273  66.648  1.00  0.00    -0.162 NA 
HETATM   15  H   UNL     1     -10.495   9.928  65.730  1.00  0.00     0.000 HD 
BRANCH  14  16
HETATM   16  C   UNL     1      -9.922   9.697  67.757  1.00  0.00    -0.171 C  
BRANCH  16  17
HETATM   17  C   UNL     1     -10.303  10.111  69.205  1.00  0.00    -0.223 C  
HETATM   18  H   UNL     1      -9.527  11.271  70.567  1.00  0.00     0.000 HD 
HETATM   19  O   UNL     1      -9.294  11.018  69.682  1.00  0.00     0.189 OA 
BRANCH  17  20
HETATM   20  C   UNL     1     -10.469   8.942  70.197  1.00  0.00    -0.236 A  
HETATM   21  C   UNL     1     -10.156   7.602  69.864  1.00  0.00    -0.198 A  
HETATM   22  C   UNL     1      -9.466   7.228  68.621  1.00  0.00    -0.137 C  
HETATM   23  C   UNL     1      -9.241   5.946  68.302  1.00  0.00    -0.117 C  
HETATM   24  C   UNL     1      -9.710   4.844  69.181  1.00  0.00    -0.182 C  
HETATM   25  N   UNL     1     -10.292   5.204  70.363  1.00  0.00    -0.271 N  
HETATM   26  O   UNL     1      -9.567   3.677  68.856  1.00  0.00    -0.163 OA 
HETATM   27  H   UNL     1     -10.589   4.464  70.999  1.00  0.00     0.000 HD 
HETATM   28  C   UNL     1     -10.504   6.543  70.753  1.00  0.00    -0.220 A  
HETATM   29  C   UNL     1     -11.097   6.821  71.988  1.00  0.00    -0.250 A  
HETATM   30  C   UNL     1     -11.349   8.134  72.353  1.00  0.00    -0.456 A  
HETATM   31  O   UNL     1     -11.441   5.853  72.893  1.00  0.00    -0.422 OA 
HETATM   32  C   UNL     1     -11.034   9.179  71.475  1.00  0.00    -0.434 A  
HETATM   33  H   UNL     1     -11.844   6.042  73.732  1.00  0.00     0.000 HD 
ENDBRANCH  17  20
ENDBRANCH  16  17
ENDBRANCH  14  16
ENDBRANCH  10  14
ENDBRANCH   2   3
TORSDOF 6
ENDMDL
MODEL      226
REMARK 921   NORMALIZED FREE ENERGY PREDICTED BY IDOCK:   -4.56 KCAL/MOL
REMARK 922        TOTAL FREE ENERGY PREDICTED BY IDOCK:   -7.43 KCAL/MOL
REMARK 923 INTER-LIGAND FREE ENERGY PREDICTED BY IDOCK:   -7.12 KCAL/MOL
REMARK 924 INTRA-LIGAND FREE ENERGY PREDICTED BY IDOCK:   -0.32 KCAL/MOL
REMARK 927      BINDING AFFINITY PREDICTED BY RF-SCORE:    0.00 PKD
ROOT
HETATM    1  C   UNL     1      -8.601   2.031  66.653  1.00  0.00    -0.114 C  
HETATM    2  C   UNL     1      -9.147   2.897  67.777  1.00  0.00    -0.222 C  
ENDROOT
BRANCH   2   3
HETATM    3  C   UNL     1      -8.645   4.323  67.908  1.00  0.00    -0.109 A  
HETATM    4  C   UNL     1      -8.680   4.909  69.207  1.00  0.00    -0.107 A  
HETATM    5  C   UNL     1      -7.894   6.032  69.471  1.00  0.00    -0.099 A  
HETATM    6  C   UNL     1      -8.254   5.133  66.822  1.00  0.00    -0.108 A  
HETATM    7  C   UNL     1      -7.787   6.413  67.105  1.00  0.00    -0.108 A  
HETATM    8  C   UNL     1      -7.388   6.740  68.403  1.00  0.00    -0.087 A  
HETATM    9  C   UNL     1      -6.986   8.179  68.474  1.00  0.00    -0.072 C  
HETATM   10  C   UNL     1      -8.166   8.694  67.633  1.00  0.00    -0.110 C  
HETATM   11  C   UNL     1      -8.029   7.739  66.360  1.00  0.00    -0.099 C  
BRANCH   4  12
HETATM   12  C   UNL     1      -9.739   4.458  70.200  1.00  0.00    -0.288 C  
HETATM   13  C   UNL     1     -10.710   5.526  70.702  1.00  0.00    -0.303 C  
ENDBRANCH   4  12
BRANCH  10  14
HETATM   14  N   UNL     1      -8.295  10.165  67.597  1.00  0.00    -0.114 NA 
HETATM   15  H   UNL     1      -7.883  10.569  66.756  1.00  0.00     0.000 HD 
BRANCH  14  16
HETATM   16  C   UNL     1      -9.748  10.546  67.761  1.00  0.00    -0.160 C  
BRANCH  16  17
HETATM   17  C   UNL     1     -10.038  11.827  68.590  1.00  0.00    -0.189 C  
HETATM   18  H   UNL     1     -11.545  12.496  69.633  1.00  0.00     0.000 HD 
HETATM   19  O   UNL     1     -11.368  11.712  69.125  1.00  0.00    -0.239 OA 
BRANCH  17  20
HETATM   20  C   UNL     1      -9.895  13.153  67.817  1.00  0.00    -0.228 A  
HETATM   21  C   UNL     1     -10.624  13.435  66.636  1.00  0.00    -0.282 A  
HETATM   22  C   UNL     1     -11.715  12.581  66.147  1.00  0.00    -0.466 C  
HETATM   23  C   UNL     1     -12.343  12.837  64.992  1.00  0.00    -0.559 C  
HETATM   24  C   UNL     1     -11.937  13.982  64.136  1.00  0.00    -0.408 C  
HETATM   25  N   UNL     1     -10.966  14.805  64.630  1.00  0.00    -0.596 N  
HETATM   26  O   UNL     1     -12.462  14.173  63.052  1.00  0.00    -0.571 OA 
HETATM   27  H   UNL     1     -10.697  15.618  64.077  1.00  0.00     0.000 HD 
HETATM   28  C   UNL     1     -10.315  14.593  65.863  1.00  0.00    -0.319 A  
HETATM   29  C   UNL     1      -9.339  15.494  66.298  1.00  0.00    -0.320 A  
HETATM   30  C   UNL     1      -8.665  15.263  67.487  1.00  0.00    -0.189 A  
HETATM   31  O   UNL     1      -9.007  16.632  65.613  1.00  0.00    -0.463 OA 
HETATM   32  C   UNL     1      -8.944  14.114  68.238  1.00  0.00    -0.188 A  
HETATM   33  H   UNL     1      -8.343  17.244  65.908  1.00  0.00     0.000 HD 
ENDBRANCH  17  20
ENDBRANCH  16  17
ENDBRANCH  14  16
ENDBRANCH  10  14
ENDBRANCH   2   3
TORSDOF 6
ENDMDL
MODEL      227
REMARK 921   NORMALIZED FREE ENERGY PREDICTED BY IDOCK:   -4.55 KCAL/MOL
REMARK 922        TOTAL FREE ENERGY PREDICTED BY IDOCK:   -7.42 KCAL/MOL
REMARK 923 INTER-LIGAND FREE ENERGY PREDICTED BY IDOCK:   -6.16 KCAL/MOL
REMARK 924 INTRA-LIGAND FREE ENERGY PREDICTED BY IDOCK:   -1.26 KCAL/MOL
REMARK 927      BINDING AFFINITY PREDICTED BY RF-SCORE:    0.00 PKD
ROOT
HETATM    1  C   UNL     1     -12.401  12.637  64.262  1.00  0.00    -0.517 C  
HETATM    2  C   UNL     1     -12.252  13.253  65.643  1.00  0.00    -0.514 C  
ENDROOT
BRANCH   2   3
HETATM    3  C   UNL     1     -11.416  12.527  66.679  1.00  0.00    -0.417 A  
HETATM    4  C   UNL     1     -11.680  12.816  68.050  1.00  0.00    -0.405 A  
HETATM    5  C   UNL     1     -11.244  11.926  69.033  1.00  0.00    -0.316 A  
HETATM    6  C   UNL     1     -10.333  11.676  66.375  1.00  0.00    -0.266 A  
HETATM    7  C   UNL     1      -9.680  11.057  67.436  1.00  0.00    -0.189 A  
HETATM    8  C   UNL     1     -10.288  10.994  68.692  1.00  0.00    -0.209 A  
HETATM    9  C   UNL     1      -9.374  10.340  69.678  1.00  0.00    -0.167 C  
HETATM   10  C   UNL     1      -8.112  11.089  69.216  1.00  0.00    -0.003 C  
HETATM   11  C   UNL     1      -8.178  10.789  67.649  1.00  0.00    -0.115 C  
BRANCH   4  12
HETATM   12  C   UNL     1     -12.210  14.189  68.433  1.00  0.00    -0.200 C  
HETATM   13  C   UNL     1     -11.645  14.812  69.709  1.00  0.00    -0.338 C  
ENDBRANCH   4  12
BRANCH  10  14
HETATM   14  N   UNL     1      -6.933  10.893  70.084  1.00  0.00    -0.441 NA 
HETATM   15  H   UNL     1      -7.158  11.003  71.072  1.00  0.00     0.000 HD 
BRANCH  14  16
HETATM   16  C   UNL     1      -6.309   9.548  69.786  1.00  0.00    -0.045 C  
BRANCH  16  17
HETATM   17  C   UNL     1      -6.666   8.391  70.759  1.00  0.00    -0.040 C  
HETATM   18  H   UNL     1      -5.655   7.065  71.771  1.00  0.00     0.000 HD 
HETATM   19  O   UNL     1      -5.436   7.773  71.176  1.00  0.00    -0.030 OA 
BRANCH  17  20
HETATM   20  C   UNL     1      -7.622   7.325  70.186  1.00  0.00    -0.090 A  
HETATM   21  C   UNL     1      -8.736   6.827  70.904  1.00  0.00    -0.142 A  
HETATM   22  C   UNL     1      -9.196   7.412  72.171  1.00  0.00    -0.158 C  
HETATM   23  C   UNL     1     -10.213   6.880  72.862  1.00  0.00    -0.226 C  
HETATM   24  C   UNL     1     -10.900   5.649  72.388  1.00  0.00    -0.248 C  
HETATM   25  N   UNL     1     -10.507   5.153  71.178  1.00  0.00    -0.202 N  
HETATM   26  O   UNL     1     -11.779   5.126  73.052  1.00  0.00    -0.303 OA 
HETATM   27  H   UNL     1     -10.989   4.331  70.816  1.00  0.00     0.000 HD 
HETATM   28  C   UNL     1      -9.471   5.713  70.402  1.00  0.00    -0.166 A  
HETATM   29  C   UNL     1      -9.142   5.146  69.168  1.00  0.00    -0.102 A  
HETATM   30  C   UNL     1      -8.095   5.667  68.425  1.00  0.00    -0.103 A  
HETATM   31  O   UNL     1      -9.818   4.088  68.622  1.00  0.00    -0.111 OA 
HETATM   32  C   UNL     1      -7.351   6.744  68.922  1.00  0.00    -0.094 A  
HETATM   33  H   UNL     1      -9.594   3.702  67.784  1.00  0.00     0.000 HD 
ENDBRANCH  17  20
ENDBRANCH  16  17
ENDBRANCH  14  16
ENDBRANCH  10  14
ENDBRANCH   2   3
TORSDOF 6
ENDMDL
MODEL      228
REMARK 921   NORMALIZED FREE ENERGY PREDICTED BY IDOCK:   -4.54 KCAL/MOL
REMARK 922        TOTAL FREE ENERGY PREDICTED BY IDOCK:   -7.42 KCAL/MOL
REMARK 923 INTER-LIGAND FREE ENERGY PREDICTED BY IDOCK:   -6.78 KCAL/MOL
REMARK 924 INTRA-LIGAND FREE ENERGY PREDICTED BY IDOCK:   -0.63 KCAL/MOL
REMARK 927      BINDING AFFINITY PREDICTED BY RF-SCORE:    0.00 PKD
ROOT
HETATM    1  C   UNL     1      -5.726   3.597  63.833  1.00  0.00    -0.014 C  
HETATM    2  C   UNL     1      -5.874   3.179  65.287  1.00  0.00    -0.018 C  
ENDROOT
BRANCH   2   3
HETATM    3  C   UNL     1      -6.648   4.081  66.229  1.00  0.00    -0.038 A  
HETATM    4  C   UNL     1      -6.998   3.547  67.503  1.00  0.00    -0.054 A  
HETATM    5  C   UNL     1      -7.346   4.417  68.538  1.00  0.00    -0.060 A  
HETATM    6  C   UNL     1      -7.131   5.362  65.889  1.00  0.00    -0.068 A  
HETATM    7  C   UNL     1      -7.799   6.083  66.874  1.00  0.00    -0.101 A  
HETATM    8  C   UNL     1      -7.677   5.715  68.215  1.00  0.00    -0.089 A  
HETATM    9  C   UNL     1      -8.529   6.594  69.073  1.00  0.00    -0.130 C  
HETATM   10  C   UNL     1      -9.748   6.564  68.137  1.00  0.00    -0.126 C  
HETATM   11  C   UNL     1      -9.046   6.981  66.764  1.00  0.00    -0.162 C  
BRANCH   4  12
HETATM   12  C   UNL     1      -7.220   2.049  67.647  1.00  0.00    -0.047 C  
HETATM   13  C   UNL     1      -8.616   1.526  67.311  1.00  0.00    -0.108 C  
ENDBRANCH   4  12
BRANCH  10  14
HETATM   14  N   UNL     1     -10.969   7.175  68.702  1.00  0.00    -0.438 NA 
HETATM   15  H   UNL     1     -11.612   6.478  69.077  1.00  0.00     0.000 HD 
BRANCH  14  16
HETATM   16  C   UNL     1     -10.580   8.207  69.736  1.00  0.00    -0.231 C  
BRANCH  16  17
HETATM   17  C   UNL     1     -10.640   9.693  69.284  1.00  0.00    -0.219 C  
HETATM   18  H   UNL     1      -9.337  11.124  69.041  1.00  0.00     0.000 HD 
HETATM   19  O   UNL     1      -9.300  10.215  69.317  1.00  0.00    -0.192 OA 
BRANCH  17  20
HETATM   20  C   UNL     1     -11.575  10.592  70.117  1.00  0.00    -0.414 A  
HETATM   21  C   UNL     1     -11.669  11.991  69.922  1.00  0.00    -0.374 A  
HETATM   22  C   UNL     1     -11.037  12.685  68.791  1.00  0.00    -0.307 C  
HETATM   23  C   UNL     1     -11.088  14.017  68.667  1.00  0.00    -0.286 C  
HETATM   24  C   UNL     1     -11.761  14.857  69.692  1.00  0.00    -0.320 C  
HETATM   25  N   UNL     1     -12.400  14.198  70.703  1.00  0.00    -0.342 N  
HETATM   26  O   UNL     1     -11.747  16.074  69.615  1.00  0.00    -0.328 OA 
HETATM   27  H   UNL     1     -12.901  14.752  71.398  1.00  0.00     0.000 HD 
HETATM   28  C   UNL     1     -12.407  12.794  70.841  1.00  0.00    -0.265 A  
HETATM   29  C   UNL     1     -13.097  12.203  71.902  1.00  0.00    -0.369 A  
HETATM   30  C   UNL     1     -13.066  10.828  72.065  1.00  0.00    -0.476 A  
HETATM   31  O   UNL     1     -13.836  12.915  72.808  1.00  0.00    -0.727 OA 
HETATM   32  C   UNL     1     -12.323  10.033  71.183  1.00  0.00    -0.477 A  
HETATM   33  H   UNL     1     -14.305  12.513  73.530  1.00  0.00     0.000 HD 
ENDBRANCH  17  20
ENDBRANCH  16  17
ENDBRANCH  14  16
ENDBRANCH  10  14
ENDBRANCH   2   3
TORSDOF 6
ENDMDL
MODEL      229
REMARK 921   NORMALIZED FREE ENERGY PREDICTED BY IDOCK:   -4.53 KCAL/MOL
REMARK 922        TOTAL FREE ENERGY PREDICTED BY IDOCK:   -7.40 KCAL/MOL
REMARK 923 INTER-LIGAND FREE ENERGY PREDICTED BY IDOCK:   -5.84 KCAL/MOL
REMARK 924 INTRA-LIGAND FREE ENERGY PREDICTED BY IDOCK:   -1.56 KCAL/MOL
REMARK 927      BINDING AFFINITY PREDICTED BY RF-SCORE:    0.00 PKD
ROOT
HETATM    1  C   UNL     1      -7.523   2.020  73.506  1.00  0.00    -0.037 C  
HETATM    2  C   UNL     1      -7.705   3.252  74.378  1.00  0.00    -0.057 C  
ENDROOT
BRANCH   2   3
HETATM    3  C   UNL     1      -7.867   4.602  73.707  1.00  0.00    -0.098 A  
HETATM    4  C   UNL     1      -9.194   5.098  73.551  1.00  0.00    -0.130 A  
HETATM    5  C   UNL     1      -9.392   6.459  73.314  1.00  0.00    -0.140 A  
HETATM    6  C   UNL     1      -6.810   5.340  73.136  1.00  0.00    -0.078 A  
HETATM    7  C   UNL     1      -7.112   6.580  72.581  1.00  0.00    -0.074 A  
HETATM    8  C   UNL     1      -8.316   7.212  72.896  1.00  0.00    -0.124 A  
HETATM    9  C   UNL     1      -8.442   8.494  72.136  1.00  0.00    -0.221 C  
HETATM   10  C   UNL     1      -7.937   7.916  70.804  1.00  0.00    -0.100 C  
HETATM   11  C   UNL     1      -6.575   7.244  71.299  1.00  0.00    -0.043 C  
BRANCH   4  12
HETATM   12  C   UNL     1     -10.344   4.115  73.404  1.00  0.00    -0.232 C  
HETATM   13  C   UNL     1     -11.726   4.709  73.130  1.00  0.00    -0.182 C  
ENDBRANCH   4  12
BRANCH  10  14
HETATM   14  N   UNL     1      -8.079   8.827  69.649  1.00  0.00    -0.098 NA 
HETATM   15  H   UNL     1      -7.190   9.243  69.373  1.00  0.00     0.000 HD 
BRANCH  14  16
HETATM   16  C   UNL     1      -8.744   8.090  68.509  1.00  0.00    -0.131 C  
BRANCH  16  17
HETATM   17  C   UNL     1     -10.046   8.723  67.943  1.00  0.00    -0.207 C  
HETATM   18  H   UNL     1     -10.559   9.580  66.268  1.00  0.00     0.000 HD 
HETATM   19  O   UNL     1      -9.763   9.192  66.614  1.00  0.00    -0.184 OA 
BRANCH  17  20
HETATM   20  C   UNL     1     -10.637   9.868  68.790  1.00  0.00    -0.246 A  
HETATM   21  C   UNL     1     -11.456   9.642  69.923  1.00  0.00    -0.144 A  
HETATM   22  C   UNL     1     -11.658   8.309  70.509  1.00  0.00    -0.133 C  
HETATM   23  C   UNL     1     -12.489   8.115  71.541  1.00  0.00    -0.333 C  
HETATM   24  C   UNL     1     -13.271   9.240  72.118  1.00  0.00    -0.461 C  
HETATM   25  N   UNL     1     -13.027  10.483  71.608  1.00  0.00    -0.447 N  
HETATM   26  O   UNL     1     -14.079   9.050  73.011  1.00  0.00    -0.414 OA 
HETATM   27  H   UNL     1     -13.524  11.276  72.013  1.00  0.00     0.000 HD 
HETATM   28  C   UNL     1     -12.125  10.732  70.553  1.00  0.00    -0.366 A  
HETATM   29  C   UNL     1     -11.927  12.040  70.101  1.00  0.00    -0.321 A  
HETATM   30  C   UNL     1     -11.077  12.281  69.034  1.00  0.00    -0.289 A  
HETATM   31  O   UNL     1     -12.525  13.131  70.671  1.00  0.00    -0.338 OA 
HETATM   32  C   UNL     1     -10.436  11.213  68.393  1.00  0.00    -0.211 A  
HETATM   33  H   UNL     1     -12.392  14.020  70.364  1.00  0.00     0.000 HD 
ENDBRANCH  17  20
ENDBRANCH  16  17
ENDBRANCH  14  16
ENDBRANCH  10  14
ENDBRANCH   2   3
TORSDOF 6
ENDMDL
MODEL      230
REMARK 921   NORMALIZED FREE ENERGY PREDICTED BY IDOCK:   -4.53 KCAL/MOL
REMARK 922        TOTAL FREE ENERGY PREDICTED BY IDOCK:   -7.39 KCAL/MOL
REMARK 923 INTER-LIGAND FREE ENERGY PREDICTED BY IDOCK:   -6.97 KCAL/MOL
REMARK 924 INTRA-LIGAND FREE ENERGY PREDICTED BY IDOCK:   -0.42 KCAL/MOL
REMARK 927      BINDING AFFINITY PREDICTED BY RF-SCORE:    0.00 PKD
ROOT
HETATM    1  C   UNL     1      -9.562   3.822  67.510  1.00  0.00    -0.205 C  
HETATM    2  C   UNL     1      -9.489   4.166  68.988  1.00  0.00    -0.244 C  
ENDROOT
BRANCH   2   3
HETATM    3  C   UNL     1      -8.978   5.536  69.393  1.00  0.00    -0.120 A  
HETATM    4  C   UNL     1      -9.630   6.177  70.486  1.00  0.00    -0.192 A  
HETATM    5  C   UNL     1      -8.984   7.223  71.149  1.00  0.00    -0.147 A  
HETATM    6  C   UNL     1      -7.984   6.254  68.697  1.00  0.00    -0.105 A  
HETATM    7  C   UNL     1      -7.599   7.489  69.209  1.00  0.00    -0.100 A  
HETATM    8  C   UNL     1      -7.914   7.827  70.527  1.00  0.00    -0.098 A  
HETATM    9  C   UNL     1      -7.454   9.218  70.828  1.00  0.00    -0.144 C  
HETATM   10  C   UNL     1      -7.943   9.817  69.499  1.00  0.00    -0.137 C  
HETATM   11  C   UNL     1      -7.260   8.800  68.475  1.00  0.00    -0.074 C  
BRANCH   4  12
HETATM   12  C   UNL     1     -11.097   5.882  70.757  1.00  0.00    -0.324 C  
HETATM   13  C   UNL     1     -11.618   6.216  72.155  1.00  0.00    -0.369 C  
ENDBRANCH   4  12
BRANCH  10  14
HETATM   14  N   UNL     1      -7.869  11.291  69.429  1.00  0.00    -0.368 NA 
HETATM   15  H   UNL     1      -7.014  11.655  69.849  1.00  0.00     0.000 HD 
BRANCH  14  16
HETATM   16  C   UNL     1      -8.034  11.734  67.993  1.00  0.00    -0.141 C  
BRANCH  16  17
HETATM   17  C   UNL     1      -9.473  11.668  67.411  1.00  0.00    -0.167 C  
HETATM   18  H   UNL     1     -10.284  12.004  65.670  1.00  0.00     0.000 HD 
HETATM   19  O   UNL     1      -9.404  12.045  66.025  1.00  0.00    -0.233 OA 
BRANCH  17  20
HETATM   20  C   UNL     1     -10.515  12.540  68.141  1.00  0.00    -0.238 A  
HETATM   21  C   UNL     1     -10.572  13.948  68.000  1.00  0.00    -0.252 A  
HETATM   22  C   UNL     1      -9.778  14.684  67.006  1.00  0.00    -0.247 C  
HETATM   23  C   UNL     1      -9.803  16.022  66.939  1.00  0.00    -0.252 C  
HETATM   24  C   UNL     1     -10.613  16.822  67.894  1.00  0.00    -0.350 C  
HETATM   25  N   UNL     1     -11.396  16.125  68.771  1.00  0.00    -0.362 N  
HETATM   26  O   UNL     1     -10.581  18.041  67.878  1.00  0.00    -0.394 OA 
HETATM   27  H   UNL     1     -11.988  16.654  69.411  1.00  0.00     0.000 HD 
HETATM   28  C   UNL     1     -11.430  14.717  68.840  1.00  0.00    -0.297 A  
HETATM   29  C   UNL     1     -12.270  14.087  69.761  1.00  0.00    -0.341 A  
HETATM   30  C   UNL     1     -12.271  12.705  69.862  1.00  0.00    -0.238 A  
HETATM   31  O   UNL     1     -13.129  14.765  70.583  1.00  0.00    -0.481 OA 
HETATM   32  C   UNL     1     -11.413  11.942  69.060  1.00  0.00    -0.355 A  
HETATM   33  H   UNL     1     -13.700  14.337  71.210  1.00  0.00     0.000 HD 
ENDBRANCH  17  20
ENDBRANCH  16  17
ENDBRANCH  14  16
ENDBRANCH  10  14
ENDBRANCH   2   3
TORSDOF 6
ENDMDL
MODEL      231
REMARK 921   NORMALIZED FREE ENERGY PREDICTED BY IDOCK:   -4.52 KCAL/MOL
REMARK 922        TOTAL FREE ENERGY PREDICTED BY IDOCK:   -7.38 KCAL/MOL
REMARK 923 INTER-LIGAND FREE ENERGY PREDICTED BY IDOCK:   -6.50 KCAL/MOL
REMARK 924 INTRA-LIGAND FREE ENERGY PREDICTED BY IDOCK:   -0.88 KCAL/MOL
REMARK 927      BINDING AFFINITY PREDICTED BY RF-SCORE:    0.00 PKD
ROOT
HETATM    1  C   UNL     1      -8.779   2.846  67.234  1.00  0.00    -0.140 C  
HETATM    2  C   UNL     1      -8.423   3.732  68.416  1.00  0.00    -0.108 C  
ENDROOT
BRANCH   2   3
HETATM    3  C   UNL     1      -9.161   5.046  68.590  1.00  0.00    -0.158 A  
HETATM    4  C   UNL     1      -8.599   6.197  67.965  1.00  0.00    -0.115 A  
HETATM    5  C   UNL     1      -9.401   7.320  67.753  1.00  0.00    -0.134 A  
HETATM    6  C   UNL     1     -10.295   5.221  69.411  1.00  0.00    -0.313 A  
HETATM    7  C   UNL     1     -10.880   6.482  69.445  1.00  0.00    -0.363 A  
HETATM    8  C   UNL     1     -10.586   7.417  68.450  1.00  0.00    -0.192 A  
HETATM    9  C   UNL     1     -11.282   8.710  68.731  1.00  0.00     0.403 C  
HETATM   10  C   UNL     1     -10.959   8.717  70.235  1.00  0.00    -0.235 C  
HETATM   11  C   UNL     1     -11.480   7.261  70.631  1.00  0.00    -0.322 C  
BRANCH   4  12
HETATM   12  C   UNL     1      -7.095   6.275  67.762  1.00  0.00    -0.081 C  
HETATM   13  C   UNL     1      -6.545   7.581  67.187  1.00  0.00    -0.062 C  
ENDBRANCH   4  12
BRANCH  10  14
HETATM   14  N   UNL     1     -11.304   9.976  70.928  1.00  0.00    -0.346 NA 
HETATM   15  H   UNL     1     -10.498  10.395  71.390  1.00  0.00     0.000 HD 
BRANCH  14  16
HETATM   16  C   UNL     1     -11.960  10.923  69.950  1.00  0.00    -0.353 C  
BRANCH  16  17
HETATM   17  C   UNL     1     -11.122  12.157  69.517  1.00  0.00    -0.050 C  
HETATM   18  H   UNL     1     -11.518  14.006  69.036  1.00  0.00     0.000 HD 
HETATM   19  O   UNL     1     -12.031  13.251  69.301  1.00  0.00    -0.312 OA 
BRANCH  17  20
HETATM   20  C   UNL     1     -10.247  11.947  68.265  1.00  0.00    -0.207 A  
HETATM   21  C   UNL     1     -10.715  12.189  66.951  1.00  0.00    -0.271 A  
HETATM   22  C   UNL     1     -12.001  12.842  66.669  1.00  0.00    -0.436 C  
HETATM   23  C   UNL     1     -12.449  13.000  65.416  1.00  0.00    -0.531 C  
HETATM   24  C   UNL     1     -11.674  12.488  64.256  1.00  0.00    -0.382 C  
HETATM   25  N   UNL     1     -10.452  11.941  64.525  1.00  0.00    -0.279 N  
HETATM   26  O   UNL     1     -12.115  12.569  63.121  1.00  0.00    -0.462 OA 
HETATM   27  H   UNL     1      -9.887  11.616  63.741  1.00  0.00     0.000 HD 
HETATM   28  C   UNL     1      -9.929  11.800  65.827  1.00  0.00    -0.238 A  
HETATM   29  C   UNL     1      -8.662  11.239  66.010  1.00  0.00    -0.164 A  
HETATM   30  C   UNL     1      -8.165  11.057  67.291  1.00  0.00    -0.125 A  
HETATM   31  O   UNL     1      -7.851  10.860  64.975  1.00  0.00    -0.356 OA 
HETATM   32  C   UNL     1      -8.942  11.412  68.401  1.00  0.00    -0.172 A  
HETATM   33  H   UNL     1      -6.990  10.477  65.099  1.00  0.00     0.000 HD 
ENDBRANCH  17  20
ENDBRANCH  16  17
ENDBRANCH  14  16
ENDBRANCH  10  14
ENDBRANCH   2   3
TORSDOF 6
ENDMDL
MODEL      232
REMARK 921   NORMALIZED FREE ENERGY PREDICTED BY IDOCK:   -4.51 KCAL/MOL
REMARK 922        TOTAL FREE ENERGY PREDICTED BY IDOCK:   -7.37 KCAL/MOL
REMARK 923 INTER-LIGAND FREE ENERGY PREDICTED BY IDOCK:   -6.22 KCAL/MOL
REMARK 924 INTRA-LIGAND FREE ENERGY PREDICTED BY IDOCK:   -1.15 KCAL/MOL
REMARK 927      BINDING AFFINITY PREDICTED BY RF-SCORE:    0.00 PKD
ROOT
HETATM    1  C   UNL     1     -11.064  15.484  66.750  1.00  0.00    -0.206 C  
HETATM    2  C   UNL     1     -12.006  14.292  66.695  1.00  0.00    -0.454 C  
ENDROOT
BRANCH   2   3
HETATM    3  C   UNL     1     -11.441  12.906  66.943  1.00  0.00    -0.393 A  
HETATM    4  C   UNL     1     -11.768  12.281  68.181  1.00  0.00    -0.408 A  
HETATM    5  C   UNL     1     -11.623  10.899  68.308  1.00  0.00    -0.335 A  
HETATM    6  C   UNL     1     -10.536  12.249  66.084  1.00  0.00    -0.281 A  
HETATM    7  C   UNL     1     -10.130  10.965  66.432  1.00  0.00    -0.280 A  
HETATM    8  C   UNL     1     -10.854  10.235  67.377  1.00  0.00    -0.336 A  
HETATM    9  C   UNL     1     -10.194   8.917  67.630  1.00  0.00    -0.296 C  
HETATM   10  C   UNL     1      -8.766   9.486  67.688  1.00  0.00    -0.122 C  
HETATM   11  C   UNL     1      -8.744  10.303  66.316  1.00  0.00    -0.157 C  
BRANCH   4  12
HETATM   12  C   UNL     1     -12.034  13.144  69.404  1.00  0.00    -0.347 C  
HETATM   13  C   UNL     1     -12.317  12.410  70.715  1.00  0.00    -0.377 C  
ENDBRANCH   4  12
BRANCH  10  14
HETATM   14  N   UNL     1      -7.741   8.519  68.134  1.00  0.00    -0.101 NA 
HETATM   15  H   UNL     1      -7.179   8.169  67.359  1.00  0.00     0.000 HD 
BRANCH  14  16
HETATM   16  C   UNL     1      -6.894   9.149  69.216  1.00  0.00    -0.049 C  
BRANCH  16  17
HETATM   17  C   UNL     1      -7.453   9.070  70.663  1.00  0.00    -0.110 C  
HETATM   18  H   UNL     1      -7.020   9.914  72.367  1.00  0.00     0.000 HD 
HETATM   19  O   UNL     1      -6.678   9.963  71.482  1.00  0.00    -0.301 OA 
BRANCH  17  20
HETATM   20  C   UNL     1      -7.459   7.659  71.286  1.00  0.00    -0.079 A  
HETATM   21  C   UNL     1      -8.649   6.990  71.661  1.00  0.00    -0.116 A  
HETATM   22  C   UNL     1      -9.988   7.490  71.318  1.00  0.00    -0.196 C  
HETATM   23  C   UNL     1     -11.098   6.871  71.742  1.00  0.00    -0.275 C  
HETATM   24  C   UNL     1     -11.020   5.666  72.609  1.00  0.00    -0.270 C  
HETATM   25  N   UNL     1      -9.772   5.174  72.867  1.00  0.00    -0.147 N  
HETATM   26  O   UNL     1     -12.029   5.145  73.052  1.00  0.00    -0.231 OA 
HETATM   27  H   UNL     1      -9.696   4.326  73.429  1.00  0.00     0.000 HD 
HETATM   28  C   UNL     1      -8.584   5.772  72.400  1.00  0.00    -0.121 A  
HETATM   29  C   UNL     1      -7.348   5.193  72.702  1.00  0.00    -0.094 A  
HETATM   30  C   UNL     1      -6.178   5.805  72.284  1.00  0.00    -0.041 A  
HETATM   31  O   UNL     1      -7.217   4.019  73.393  1.00  0.00    -0.064 OA 
HETATM   32  C   UNL     1      -6.231   7.015  71.580  1.00  0.00    -0.037 A  
HETATM   33  H   UNL     1      -6.377   3.625  73.599  1.00  0.00     0.000 HD 
ENDBRANCH  17  20
ENDBRANCH  16  17
ENDBRANCH  14  16
ENDBRANCH  10  14
ENDBRANCH   2   3
TORSDOF 6
ENDMDL
MODEL      233
REMARK 921   NORMALIZED FREE ENERGY PREDICTED BY IDOCK:   -4.50 KCAL/MOL
REMARK 922        TOTAL FREE ENERGY PREDICTED BY IDOCK:   -7.36 KCAL/MOL
REMARK 923 INTER-LIGAND FREE ENERGY PREDICTED BY IDOCK:   -6.66 KCAL/MOL
REMARK 924 INTRA-LIGAND FREE ENERGY PREDICTED BY IDOCK:   -0.70 KCAL/MOL
REMARK 927      BINDING AFFINITY PREDICTED BY RF-SCORE:    0.00 PKD
ROOT
HETATM    1  C   UNL     1     -10.842  17.927  67.487  1.00  0.00    -0.239 C  
HETATM    2  C   UNL     1      -9.921  17.054  66.649  1.00  0.00    -0.307 C  
ENDROOT
BRANCH   2   3
HETATM    3  C   UNL     1     -10.304  15.606  66.414  1.00  0.00    -0.303 A  
HETATM    4  C   UNL     1     -10.219  14.720  67.528  1.00  0.00    -0.233 A  
HETATM    5  C   UNL     1     -10.910  13.508  67.491  1.00  0.00    -0.276 A  
HETATM    6  C   UNL     1     -10.631  15.062  65.155  1.00  0.00    -0.440 A  
HETATM    7  C   UNL     1     -10.991  13.719  65.104  1.00  0.00    -0.337 A  
HETATM    8  C   UNL     1     -11.360  13.049  66.272  1.00  0.00    -0.354 A  
HETATM    9  C   UNL     1     -11.643  11.611  65.977  1.00  0.00    -0.101 C  
HETATM   10  C   UNL     1     -10.426  11.416  65.056  1.00  0.00    -0.303 C  
HETATM   11  C   UNL     1     -10.643  12.643  64.058  1.00  0.00    -0.457 C  
BRANCH   4  12
HETATM   12  C   UNL     1      -9.199  14.993  68.621  1.00  0.00    -0.198 C  
HETATM   13  C   UNL     1      -8.104  13.944  68.817  1.00  0.00    -0.043 C  
ENDBRANCH   4  12
BRANCH  10  14
HETATM   14  N   UNL     1     -10.178  10.014  64.660  1.00  0.00    -0.331 NA 
HETATM   15  H   UNL     1      -9.531   9.944  63.876  1.00  0.00     0.000 HD 
BRANCH  14  16
HETATM   16  C   UNL     1      -9.706   9.229  65.862  1.00  0.00    -0.285 C  
BRANCH  16  17
HETATM   17  C   UNL     1      -8.941  10.029  66.952  1.00  0.00    -0.135 C  
HETATM   18  H   UNL     1      -7.067  10.281  67.431  1.00  0.00     0.000 HD 
HETATM   19  O   UNL     1      -7.535   9.792  66.764  1.00  0.00    -0.093 OA 
BRANCH  17  20
HETATM   20  C   UNL     1      -9.339   9.701  68.406  1.00  0.00    -0.136 A  
HETATM   21  C   UNL     1      -8.825   8.585  69.109  1.00  0.00    -0.142 A  
HETATM   22  C   UNL     1      -7.727   7.753  68.596  1.00  0.00    -0.118 C  
HETATM   23  C   UNL     1      -7.304   6.665  69.253  1.00  0.00    -0.093 C  
HETATM   24  C   UNL     1      -7.954   6.233  70.518  1.00  0.00    -0.112 C  
HETATM   25  N   UNL     1      -8.929   7.049  71.018  1.00  0.00    -0.150 N  
HETATM   26  O   UNL     1      -7.616   5.204  71.078  1.00  0.00    -0.081 OA 
HETATM   27  H   UNL     1      -9.363   6.792  71.904  1.00  0.00     0.000 HD 
HETATM   28  C   UNL     1      -9.368   8.226  70.378  1.00  0.00    -0.159 A  
HETATM   29  C   UNL     1     -10.364   9.008  70.968  1.00  0.00    -0.278 A  
HETATM   30  C   UNL     1     -10.830  10.140  70.318  1.00  0.00    -0.370 A  
HETATM   31  O   UNL     1     -10.915   8.728  72.189  1.00  0.00    -0.356 OA 
HETATM   32  C   UNL     1     -10.321  10.486  69.060  1.00  0.00    -0.232 A  
HETATM   33  H   UNL     1     -11.593   9.260  72.591  1.00  0.00     0.000 HD 
ENDBRANCH  17  20
ENDBRANCH  16  17
ENDBRANCH  14  16
ENDBRANCH  10  14
ENDBRANCH   2   3
TORSDOF 6
ENDMDL
MODEL      234
REMARK 921   NORMALIZED FREE ENERGY PREDICTED BY IDOCK:   -4.49 KCAL/MOL
REMARK 922        TOTAL FREE ENERGY PREDICTED BY IDOCK:   -7.35 KCAL/MOL
REMARK 923 INTER-LIGAND FREE ENERGY PREDICTED BY IDOCK:   -6.88 KCAL/MOL
REMARK 924 INTRA-LIGAND FREE ENERGY PREDICTED BY IDOCK:   -0.47 KCAL/MOL
REMARK 927      BINDING AFFINITY PREDICTED BY RF-SCORE:    0.00 PKD
ROOT
HETATM    1  C   UNL     1     -10.238  19.480  66.050  1.00  0.00    -0.567 C  
HETATM    2  C   UNL     1      -9.427  18.268  66.478  1.00  0.00    -0.312 C  
ENDROOT
BRANCH   2   3
HETATM    3  C   UNL     1     -10.124  16.924  66.580  1.00  0.00    -0.306 A  
HETATM    4  C   UNL     1     -10.304  16.380  67.886  1.00  0.00    -0.286 A  
HETATM    5  C   UNL     1     -11.255  15.378  68.084  1.00  0.00    -0.326 A  
HETATM    6  C   UNL     1     -10.503  16.137  65.474  1.00  0.00    -0.407 A  
HETATM    7  C   UNL     1     -11.162  14.938  65.728  1.00  0.00    -0.334 A  
HETATM    8  C   UNL     1     -11.736  14.707  66.980  1.00  0.00    -0.379 A  
HETATM    9  C   UNL     1     -12.329  13.336  67.033  1.00  0.00    -0.190 C  
HETATM   10  C   UNL     1     -11.146  12.645  66.334  1.00  0.00    -0.287 C  
HETATM   11  C   UNL     1     -11.021  13.568  65.037  1.00  0.00    -0.342 C  
BRANCH   4  12
HETATM   12  C   UNL     1      -9.305  16.722  68.980  1.00  0.00    -0.212 C  
HETATM   13  C   UNL     1      -7.842  16.372  68.708  1.00  0.00    -0.220 C  
ENDBRANCH   4  12
BRANCH  10  14
HETATM   14  N   UNL     1     -11.210  11.169  66.340  1.00  0.00    -0.211 NA 
HETATM   15  H   UNL     1     -10.782  10.761  65.510  1.00  0.00     0.000 HD 
BRANCH  14  16
HETATM   16  C   UNL     1     -10.594  10.645  67.617  1.00  0.00    -0.246 C  
BRANCH  16  17
HETATM   17  C   UNL     1     -10.476   9.101  67.744  1.00  0.00    -0.247 C  
HETATM   18  H   UNL     1      -9.887   7.863  69.131  1.00  0.00     0.000 HD 
HETATM   19  O   UNL     1      -9.959   8.807  69.053  1.00  0.00    -0.181 OA 
BRANCH  17  20
HETATM   20  C   UNL     1      -9.603   8.421  66.669  1.00  0.00    -0.294 A  
HETATM   21  C   UNL     1      -9.686   7.039  66.375  1.00  0.00    -0.133 A  
HETATM   22  C   UNL     1     -10.735   6.167  66.922  1.00  0.00    -0.413 C  
HETATM   23  C   UNL     1     -10.750   4.849  66.679  1.00  0.00    -0.072 C  
HETATM   24  C   UNL     1      -9.682   4.208  65.869  1.00  0.00    -0.204 C  
HETATM   25  N   UNL     1      -8.750   5.036  65.313  1.00  0.00    -0.145 N  
HETATM   26  O   UNL     1      -9.658   2.999  65.706  1.00  0.00    -0.070 OA 
HETATM   27  H   UNL     1      -8.029   4.622  64.723  1.00  0.00     0.000 HD 
HETATM   28  C   UNL     1      -8.729   6.433  65.509  1.00  0.00    -0.066 A  
HETATM   29  C   UNL     1      -7.743   7.207  64.891  1.00  0.00    -0.117 A  
HETATM   30  C   UNL     1      -7.693   8.572  65.120  1.00  0.00    -0.102 A  
HETATM   31  O   UNL     1      -6.806   6.690  64.038  1.00  0.00    -0.046 OA 
HETATM   32  C   UNL     1      -8.613   9.172  65.990  1.00  0.00    -0.162 A  
HETATM   33  H   UNL     1      -6.136   7.216  63.618  1.00  0.00     0.000 HD 
ENDBRANCH  17  20
ENDBRANCH  16  17
ENDBRANCH  14  16
ENDBRANCH  10  14
ENDBRANCH   2   3
TORSDOF 6
ENDMDL
MODEL      235
REMARK 921   NORMALIZED FREE ENERGY PREDICTED BY IDOCK:   -4.49 KCAL/MOL
REMARK 922        TOTAL FREE ENERGY PREDICTED BY IDOCK:   -7.34 KCAL/MOL
REMARK 923 INTER-LIGAND FREE ENERGY PREDICTED BY IDOCK:   -7.00 KCAL/MOL
REMARK 924 INTRA-LIGAND FREE ENERGY PREDICTED BY IDOCK:   -0.34 KCAL/MOL
REMARK 927      BINDING AFFINITY PREDICTED BY RF-SCORE:    0.00 PKD
ROOT
HETATM    1  C   UNL     1      -7.139   3.401  73.411  1.00  0.00    -0.046 C  
HETATM    2  C   UNL     1      -8.578   3.157  72.987  1.00  0.00    -0.081 C  
ENDROOT
BRANCH   2   3
HETATM    3  C   UNL     1      -9.214   4.106  71.989  1.00  0.00    -0.171 A  
HETATM    4  C   UNL     1      -9.335   3.652  70.643  1.00  0.00    -0.228 A  
HETATM    5  C   UNL     1     -10.237   4.285  69.786  1.00  0.00     0.188 A  
HETATM    6  C   UNL     1      -9.590   5.434  72.279  1.00  0.00    -0.179 A  
HETATM    7  C   UNL     1     -10.190   6.173  71.265  1.00  0.00    -0.252 A  
HETATM    8  C   UNL     1     -10.719   5.524  70.147  1.00  0.00    -0.348 A  
HETATM    9  C   UNL     1     -11.252   6.525  69.172  1.00  0.00    -0.367 C  
HETATM   10  C   UNL     1     -10.060   7.489  69.296  1.00  0.00    -0.188 C  
HETATM   11  C   UNL     1     -10.010   7.655  70.884  1.00  0.00    -0.183 C  
BRANCH   4  12
HETATM   12  C   UNL     1      -8.322   2.658  70.098  1.00  0.00    -0.074 C  
HETATM   13  C   UNL     1      -7.867   2.862  68.653  1.00  0.00    -0.057 C  
ENDBRANCH   4  12
BRANCH  10  14
HETATM   14  N   UNL     1     -10.061   8.593  68.314  1.00  0.00    -0.185 NA 
HETATM   15  H   UNL     1     -11.005   8.862  68.037  1.00  0.00     0.000 HD 
BRANCH  14  16
HETATM   16  C   UNL     1      -9.274   9.758  68.867  1.00  0.00    -0.155 C  
BRANCH  16  17
HETATM   17  C   UNL     1      -8.344  10.501  67.868  1.00  0.00    -0.115 C  
HETATM   18  H   UNL     1      -7.443  12.230  67.831  1.00  0.00     0.000 HD 
HETATM   19  O   UNL     1      -8.012  11.776  68.443  1.00  0.00    -0.135 OA 
BRANCH  17  20
HETATM   20  C   UNL     1      -8.929  10.698  66.454  1.00  0.00    -0.176 A  
HETATM   21  C   UNL     1     -10.029  11.549  66.191  1.00  0.00    -0.257 A  
HETATM   22  C   UNL     1     -10.590  12.464  67.194  1.00  0.00    -0.247 C  
HETATM   23  C   UNL     1     -11.673  13.210  66.937  1.00  0.00    -0.441 C  
HETATM   24  C   UNL     1     -12.374  13.117  65.630  1.00  0.00    -0.461 C  
HETATM   25  N   UNL     1     -11.807  12.312  64.683  1.00  0.00    -0.371 N  
HETATM   26  O   UNL     1     -13.400  13.744  65.421  1.00  0.00    -0.669 OA 
HETATM   27  H   UNL     1     -12.250  12.261  63.766  1.00  0.00     0.000 HD 
HETATM   28  C   UNL     1     -10.642  11.548  64.903  1.00  0.00    -0.303 A  
HETATM   29  C   UNL     1     -10.124  10.759  63.873  1.00  0.00    -0.333 A  
HETATM   30  C   UNL     1      -9.007   9.972  64.101  1.00  0.00    -0.268 A  
HETATM   31  O   UNL     1     -10.654  10.725  62.611  1.00  0.00    -0.742 OA 
HETATM   32  C   UNL     1      -8.414   9.947  65.369  1.00  0.00    -0.155 A  
HETATM   33  H   UNL     1     -10.302  10.189  61.911  1.00  0.00     0.000 HD 
ENDBRANCH  17  20
ENDBRANCH  16  17
ENDBRANCH  14  16
ENDBRANCH  10  14
ENDBRANCH   2   3
TORSDOF 6
ENDMDL
MODEL      236
REMARK 921   NORMALIZED FREE ENERGY PREDICTED BY IDOCK:   -4.49 KCAL/MOL
REMARK 922        TOTAL FREE ENERGY PREDICTED BY IDOCK:   -7.34 KCAL/MOL
REMARK 923 INTER-LIGAND FREE ENERGY PREDICTED BY IDOCK:   -7.19 KCAL/MOL
REMARK 924 INTRA-LIGAND FREE ENERGY PREDICTED BY IDOCK:   -0.15 KCAL/MOL
REMARK 927      BINDING AFFINITY PREDICTED BY RF-SCORE:    0.00 PKD
ROOT
HETATM    1  C   UNL     1     -11.450   5.498  72.916  1.00  0.00    -0.327 C  
HETATM    2  C   UNL     1     -10.941   5.103  71.539  1.00  0.00    -0.018 C  
ENDROOT
BRANCH   2   3
HETATM    3  C   UNL     1     -10.528   6.198  70.573  1.00  0.00    -0.291 A  
HETATM    4  C   UNL     1     -10.326   5.824  69.213  1.00  0.00    -0.326 A  
HETATM    5  C   UNL     1     -10.335   6.810  68.225  1.00  0.00    -0.215 A  
HETATM    6  C   UNL     1     -10.231   7.523  70.951  1.00  0.00    -0.193 A  
HETATM    7  C   UNL     1      -9.895   8.423  69.944  1.00  0.00    -0.186 A  
HETATM    8  C   UNL     1     -10.191   8.124  68.613  1.00  0.00    -0.226 A  
HETATM    9  C   UNL     1      -9.683   9.206  67.714  1.00  0.00    -0.188 C  
HETATM   10  C   UNL     1      -8.328   9.354  68.426  1.00  0.00    -0.119 C  
HETATM   11  C   UNL     1      -8.832   9.537  69.931  1.00  0.00    -0.227 C  
BRANCH   4  12
HETATM   12  C   UNL     1      -9.867   4.411  68.888  1.00  0.00    -0.163 C  
HETATM   13  C   UNL     1      -8.363   4.146  68.951  1.00  0.00    -0.089 C  
ENDBRANCH   4  12
BRANCH  10  14
HETATM   14  N   UNL     1      -7.362  10.227  67.727  1.00  0.00    -0.087 NA 
HETATM   15  H   UNL     1      -6.536   9.717  67.417  1.00  0.00     0.000 HD 
BRANCH  14  16
HETATM   16  C   UNL     1      -8.059  10.934  66.587  1.00  0.00    -0.147 C  
BRANCH  16  17
HETATM   17  C   UNL     1      -8.149  12.482  66.687  1.00  0.00     0.150 C  
HETATM   18  H   UNL     1      -7.766  13.809  68.064  1.00  0.00     0.000 HD 
HETATM   19  O   UNL     1      -7.710  12.863  68.003  1.00  0.00    -0.118 OA 
BRANCH  17  20
HETATM   20  C   UNL     1      -9.545  13.075  66.407  1.00  0.00    -0.258 A  
HETATM   21  C   UNL     1     -10.279  13.801  67.375  1.00  0.00    -0.252 A  
HETATM   22  C   UNL     1      -9.708  14.221  68.662  1.00  0.00    -0.213 C  
HETATM   23  C   UNL     1     -10.445  14.850  69.586  1.00  0.00    -0.182 C  
HETATM   24  C   UNL     1     -11.889  15.121  69.360  1.00  0.00    -0.330 C  
HETATM   25  N   UNL     1     -12.394  14.784  68.136  1.00  0.00    -0.572 N  
HETATM   26  O   UNL     1     -12.576  15.630  70.229  1.00  0.00    -0.407 OA 
HETATM   27  H   UNL     1     -13.373  14.994  67.945  1.00  0.00     0.000 HD 
HETATM   28  C   UNL     1     -11.635  14.162  67.122  1.00  0.00    -0.377 A  
HETATM   29  C   UNL     1     -12.231  13.863  65.894  1.00  0.00    -0.467 A  
HETATM   30  C   UNL     1     -11.501  13.211  64.913  1.00  0.00    -0.337 A  
HETATM   31  O   UNL     1     -13.521  14.197  65.582  1.00  0.00    -0.725 OA 
HETATM   32  C   UNL     1     -10.177  12.828  65.162  1.00  0.00    -0.297 A  
HETATM   33  H   UNL     1     -13.926  13.993  64.747  1.00  0.00     0.000 HD 
ENDBRANCH  17  20
ENDBRANCH  16  17
ENDBRANCH  14  16
ENDBRANCH  10  14
ENDBRANCH   2   3
TORSDOF 6
ENDMDL
MODEL      237
REMARK 921   NORMALIZED FREE ENERGY PREDICTED BY IDOCK:   -4.48 KCAL/MOL
REMARK 922        TOTAL FREE ENERGY PREDICTED BY IDOCK:   -7.33 KCAL/MOL
REMARK 923 INTER-LIGAND FREE ENERGY PREDICTED BY IDOCK:   -6.73 KCAL/MOL
REMARK 924 INTRA-LIGAND FREE ENERGY PREDICTED BY IDOCK:   -0.60 KCAL/MOL
REMARK 927      BINDING AFFINITY PREDICTED BY RF-SCORE:    0.00 PKD
ROOT
HETATM    1  C   UNL     1      -6.232   2.343  73.748  1.00  0.00    -0.012 C  
HETATM    2  C   UNL     1      -7.722   2.061  73.841  1.00  0.00    -0.041 C  
ENDROOT
BRANCH   2   3
HETATM    3  C   UNL     1      -8.697   3.173  73.503  1.00  0.00    -0.077 A  
HETATM    4  C   UNL     1      -9.842   2.823  72.731  1.00  0.00    -0.193 A  
HETATM    5  C   UNL     1     -10.946   3.678  72.719  1.00  0.00    -0.004 A  
HETATM    6  C   UNL     1      -8.490   4.534  73.808  1.00  0.00    -0.104 A  
HETATM    7  C   UNL     1      -9.491   5.435  73.459  1.00  0.00    -0.138 A  
HETATM    8  C   UNL     1     -10.774   4.972  73.159  1.00  0.00    -0.314 A  
HETATM    9  C   UNL     1     -11.655   6.112  72.756  1.00  0.00    -0.171 C  
HETATM   10  C   UNL     1     -10.604   6.790  71.862  1.00  0.00    -0.209 C  
HETATM   11  C   UNL     1      -9.380   6.861  72.886  1.00  0.00    -0.156 C  
BRANCH   4  12
HETATM   12  C   UNL     1      -9.755   1.664  71.751  1.00  0.00    -0.200 C  
HETATM   13  C   UNL     1      -9.325   2.001  70.324  1.00  0.00    -0.180 C  
ENDBRANCH   4  12
BRANCH  10  14
HETATM   14  N   UNL     1     -11.121   7.916  71.057  1.00  0.00    -0.246 NA 
HETATM   15  H   UNL     1     -11.853   8.433  71.542  1.00  0.00     0.000 HD 
BRANCH  14  16
HETATM   16  C   UNL     1      -9.971   8.806  70.642  1.00  0.00    -0.198 C  
BRANCH  16  17
HETATM   17  C   UNL     1      -9.817   9.069  69.119  1.00  0.00    -0.175 C  
HETATM   18  H   UNL     1      -8.318   9.351  67.903  1.00  0.00     0.000 HD 
HETATM   19  O   UNL     1      -8.412   9.190  68.835  1.00  0.00    -0.125 OA 
BRANCH  17  20
HETATM   20  C   UNL     1     -10.568  10.307  68.589  1.00  0.00    -0.232 A  
HETATM   21  C   UNL     1     -10.559  10.686  67.225  1.00  0.00    -0.313 A  
HETATM   22  C   UNL     1     -10.000   9.836  66.164  1.00  0.00    -0.338 C  
HETATM   23  C   UNL     1      -9.946  10.248  64.890  1.00  0.00    -0.393 C  
HETATM   24  C   UNL     1     -10.421  11.602  64.502  1.00  0.00    -0.308 C  
HETATM   25  N   UNL     1     -10.997  12.356  65.484  1.00  0.00    -0.284 N  
HETATM   26  O   UNL     1     -10.307  12.002  63.356  1.00  0.00    -0.430 OA 
HETATM   27  H   UNL     1     -11.365  13.274  65.233  1.00  0.00     0.000 HD 
HETATM   28  C   UNL     1     -11.113  11.937  66.826  1.00  0.00    -0.308 A  
HETATM   29  C   UNL     1     -11.729  12.770  67.763  1.00  0.00    -0.359 A  
HETATM   30  C   UNL     1     -11.802  12.381  69.091  1.00  0.00    -0.352 A  
HETATM   31  O   UNL     1     -12.294  13.975  67.443  1.00  0.00    -0.531 OA 
HETATM   32  C   UNL     1     -11.237  11.165  69.497  1.00  0.00    -0.341 A  
HETATM   33  H   UNL     1     -12.712  14.542  68.080  1.00  0.00     0.000 HD 
ENDBRANCH  17  20
ENDBRANCH  16  17
ENDBRANCH  14  16
ENDBRANCH  10  14
ENDBRANCH   2   3
TORSDOF 6
ENDMDL
MODEL      238
REMARK 921   NORMALIZED FREE ENERGY PREDICTED BY IDOCK:   -4.47 KCAL/MOL
REMARK 922        TOTAL FREE ENERGY PREDICTED BY IDOCK:   -7.31 KCAL/MOL
REMARK 923 INTER-LIGAND FREE ENERGY PREDICTED BY IDOCK:   -6.96 KCAL/MOL
REMARK 924 INTRA-LIGAND FREE ENERGY PREDICTED BY IDOCK:   -0.35 KCAL/MOL
REMARK 927      BINDING AFFINITY PREDICTED BY RF-SCORE:    0.00 PKD
ROOT
HETATM    1  C   UNL     1     -10.450  18.654  67.692  1.00  0.00    -0.468 C  
HETATM    2  C   UNL     1      -9.929  17.446  68.453  1.00  0.00    -0.329 C  
ENDROOT
BRANCH   2   3
HETATM    3  C   UNL     1     -10.309  16.060  67.968  1.00  0.00    -0.266 A  
HETATM    4  C   UNL     1     -11.537  15.516  68.445  1.00  0.00    -0.368 A  
HETATM    5  C   UNL     1     -12.127  14.454  67.758  1.00  0.00    -0.304 A  
HETATM    6  C   UNL     1      -9.484  15.240  67.170  1.00  0.00    -0.223 A  
HETATM    7  C   UNL     1      -9.985  14.003  66.779  1.00  0.00    -0.268 A  
HETATM    8  C   UNL     1     -11.355  13.744  66.865  1.00  0.00    -0.345 A  
HETATM    9  C   UNL     1     -11.643  12.337  66.449  1.00  0.00    -0.445 C  
HETATM   10  C   UNL     1     -10.461  11.721  67.217  1.00  0.00    -0.214 C  
HETATM   11  C   UNL     1      -9.275  12.640  66.671  1.00  0.00    -0.218 C  
BRANCH   4  12
HETATM   12  C   UNL     1     -12.054  15.932  69.813  1.00  0.00    -0.231 C  
HETATM   13  C   UNL     1     -11.459  15.210  71.022  1.00  0.00    -0.372 C  
ENDBRANCH   4  12
BRANCH  10  14
HETATM   14  N   UNL     1     -10.461  10.244  67.255  1.00  0.00    -0.236 NA 
HETATM   15  H   UNL     1     -10.011   9.837  66.435  1.00  0.00     0.000 HD 
BRANCH  14  16
HETATM   16  C   UNL     1      -9.829   9.775  68.546  1.00  0.00    -0.156 C  
BRANCH  16  17
HETATM   17  C   UNL     1     -10.777   9.094  69.571  1.00  0.00    -0.215 C  
HETATM   18  H   UNL     1     -11.501   9.565  71.319  1.00  0.00     0.000 HD 
HETATM   19  O   UNL     1     -10.921   9.982  70.692  1.00  0.00    -0.300 OA 
BRANCH  17  20
HETATM   20  C   UNL     1     -10.323   7.703  70.057  1.00  0.00    -0.223 A  
HETATM   21  C   UNL     1      -9.123   7.496  70.780  1.00  0.00    -0.154 A  
HETATM   22  C   UNL     1      -8.302   8.599  71.298  1.00  0.00    -0.211 C  
HETATM   23  C   UNL     1      -7.138   8.376  71.921  1.00  0.00    -0.103 C  
HETATM   24  C   UNL     1      -6.610   6.996  72.086  1.00  0.00    -0.056 C  
HETATM   25  N   UNL     1      -7.411   5.976  71.658  1.00  0.00    -0.091 N  
HETATM   26  O   UNL     1      -5.517   6.798  72.591  1.00  0.00    -0.037 OA 
HETATM   27  H   UNL     1      -7.085   5.019  71.794  1.00  0.00     0.000 HD 
HETATM   28  C   UNL     1      -8.663   6.172  71.039  1.00  0.00    -0.132 A  
HETATM   29  C   UNL     1      -9.422   5.068  70.643  1.00  0.00    -0.169 A  
HETATM   30  C   UNL     1     -10.631   5.259  69.993  1.00  0.00    -0.300 A  
HETATM   31  O   UNL     1      -9.046   3.773  70.876  1.00  0.00    -0.093 OA 
HETATM   32  C   UNL     1     -11.078   6.556  69.711  1.00  0.00    -0.430 A  
HETATM   33  H   UNL     1      -9.562   3.022  70.606  1.00  0.00     0.000 HD 
ENDBRANCH  17  20
ENDBRANCH  16  17
ENDBRANCH  14  16
ENDBRANCH  10  14
ENDBRANCH   2   3
TORSDOF 6
ENDMDL
MODEL      239
REMARK 921   NORMALIZED FREE ENERGY PREDICTED BY IDOCK:   -4.46 KCAL/MOL
REMARK 922        TOTAL FREE ENERGY PREDICTED BY IDOCK:   -7.30 KCAL/MOL
REMARK 923 INTER-LIGAND FREE ENERGY PREDICTED BY IDOCK:   -6.60 KCAL/MOL
REMARK 924 INTRA-LIGAND FREE ENERGY PREDICTED BY IDOCK:   -0.71 KCAL/MOL
REMARK 927      BINDING AFFINITY PREDICTED BY RF-SCORE:    0.00 PKD
ROOT
HETATM    1  C   UNL     1     -10.722  20.653  68.266  1.00  0.00     0.386 C  
HETATM    2  C   UNL     1      -9.929  19.753  69.200  1.00  0.00    -0.391 C  
ENDROOT
BRANCH   2   3
HETATM    3  C   UNL     1      -9.586  18.349  68.741  1.00  0.00    -0.345 A  
HETATM    4  C   UNL     1      -8.270  18.129  68.242  1.00  0.00    -0.300 A  
HETATM    5  C   UNL     1      -7.771  16.827  68.178  1.00  0.00    -0.180 A  
HETATM    6  C   UNL     1     -10.509  17.284  68.676  1.00  0.00    -0.356 A  
HETATM    7  C   UNL     1     -10.036  16.043  68.262  1.00  0.00    -0.229 A  
HETATM    8  C   UNL     1      -8.665  15.781  68.263  1.00  0.00    -0.172 A  
HETATM    9  C   UNL     1      -8.398  14.413  67.723  1.00  0.00    -0.172 C  
HETATM   10  C   UNL     1      -9.391  14.529  66.554  1.00  0.00    -0.284 C  
HETATM   11  C   UNL     1     -10.696  14.990  67.352  1.00  0.00    -0.289 C  
BRANCH   4  12
HETATM   12  C   UNL     1      -7.527  19.273  67.570  1.00  0.00    -0.263 C  
HETATM   13  C   UNL     1      -6.432  19.957  68.388  1.00  0.00    -0.313 C  
ENDBRANCH   4  12
BRANCH  10  14
HETATM   14  N   UNL     1      -9.322  13.420  65.580  1.00  0.00    -0.447 NA 
HETATM   15  H   UNL     1      -9.192  12.516  66.034  1.00  0.00     0.000 HD 
BRANCH  14  16
HETATM   16  C   UNL     1     -10.551  13.447  64.701  1.00  0.00    -0.415 C  
BRANCH  16  17
HETATM   17  C   UNL     1     -11.059  12.074  64.181  1.00  0.00    -0.368 C  
HETATM   18  H   UNL     1     -12.805  11.235  63.950  1.00  0.00     0.000 HD 
HETATM   19  O   UNL     1     -12.494  12.075  64.268  1.00  0.00    -0.361 OA 
BRANCH  17  20
HETATM   20  C   UNL     1     -10.489  10.844  64.918  1.00  0.00    -0.352 A  
HETATM   21  C   UNL     1      -9.626   9.910  64.297  1.00  0.00    -0.220 A  
HETATM   22  C   UNL     1      -9.041  10.123  62.966  1.00  0.00    -0.296 C  
HETATM   23  C   UNL     1      -8.279   9.193  62.376  1.00  0.00    -0.163 C  
HETATM   24  C   UNL     1      -8.021   7.885  63.034  1.00  0.00    -0.139 C  
HETATM   25  N   UNL     1      -8.516   7.723  64.296  1.00  0.00    -0.374 N  
HETATM   26  O   UNL     1      -7.386   7.011  62.467  1.00  0.00    -0.061 OA 
HETATM   27  H   UNL     1      -8.319   6.847  64.781  1.00  0.00     0.000 HD 
HETATM   28  C   UNL     1      -9.283   8.698  64.967  1.00  0.00     0.201 A  
HETATM   29  C   UNL     1      -9.739   8.452  66.264  1.00  0.00    -0.207 A  
HETATM   30  C   UNL     1     -10.532   9.390  66.907  1.00  0.00    -0.281 A  
HETATM   31  O   UNL     1      -9.433   7.319  66.968  1.00  0.00    -0.142 OA 
HETATM   32  C   UNL     1     -10.896  10.571  66.247  1.00  0.00    -0.063 A  
HETATM   33  H   UNL     1      -9.744   7.151  67.849  1.00  0.00     0.000 HD 
ENDBRANCH  17  20
ENDBRANCH  16  17
ENDBRANCH  14  16
ENDBRANCH  10  14
ENDBRANCH   2   3
TORSDOF 6
ENDMDL
MODEL      240
REMARK 921   NORMALIZED FREE ENERGY PREDICTED BY IDOCK:   -4.45 KCAL/MOL
REMARK 922        TOTAL FREE ENERGY PREDICTED BY IDOCK:   -7.29 KCAL/MOL
REMARK 923 INTER-LIGAND FREE ENERGY PREDICTED BY IDOCK:   -6.27 KCAL/MOL
REMARK 924 INTRA-LIGAND FREE ENERGY PREDICTED BY IDOCK:   -1.03 KCAL/MOL
REMARK 927      BINDING AFFINITY PREDICTED BY RF-SCORE:    0.00 PKD
ROOT
HETATM    1  C   UNL     1     -11.825  15.518  68.806  1.00  0.00    -0.335 C  
HETATM    2  C   UNL     1     -11.829  14.703  67.523  1.00  0.00    -0.375 C  
ENDROOT
BRANCH   2   3
HETATM    3  C   UNL     1     -10.944  13.474  67.438  1.00  0.00    -0.286 A  
HETATM    4  C   UNL     1     -10.943  12.756  66.207  1.00  0.00    -0.307 A  
HETATM    5  C   UNL     1      -9.892  11.880  65.928  1.00  0.00    -0.261 A  
HETATM    6  C   UNL     1     -10.215  12.940  68.521  1.00  0.00    -0.210 A  
HETATM    7  C   UNL     1      -9.423  11.822  68.279  1.00  0.00    -0.193 A  
HETATM    8  C   UNL     1      -9.086  11.474  66.969  1.00  0.00    -0.175 A  
HETATM    9  C   UNL     1      -8.286  10.211  66.959  1.00  0.00    -0.118 C  
HETATM   10  C   UNL     1      -9.162   9.482  67.991  1.00  0.00    -0.129 C  
HETATM   11  C   UNL     1      -9.179  10.578  69.154  1.00  0.00    -0.183 C  
BRANCH   4  12
HETATM   12  C   UNL     1     -12.188  12.769  65.335  1.00  0.00    -0.532 C  
HETATM   13  C   UNL     1     -11.974  12.959  63.834  1.00  0.00    -0.550 C  
ENDBRANCH   4  12
BRANCH  10  14
HETATM   14  N   UNL     1      -8.844   8.050  68.161  1.00  0.00    -0.132 NA 
HETATM   15  H   UNL     1      -8.321   7.869  69.017  1.00  0.00     0.000 HD 
BRANCH  14  16
HETATM   16  C   UNL     1     -10.119   7.241  68.088  1.00  0.00    -0.173 C  
BRANCH  16  17
HETATM   17  C   UNL     1     -10.444   6.352  69.320  1.00  0.00    -0.231 C  
HETATM   18  H   UNL     1     -12.072   5.778  70.228  1.00  0.00     0.000 HD 
HETATM   19  O   UNL     1     -11.874   6.322  69.474  1.00  0.00    -0.234 OA 
BRANCH  17  20
HETATM   20  C   UNL     1      -9.783   6.797  70.641  1.00  0.00    -0.180 A  
HETATM   21  C   UNL     1      -8.762   6.051  71.277  1.00  0.00    -0.136 A  
HETATM   22  C   UNL     1      -8.106   4.895  70.649  1.00  0.00    -0.086 C  
HETATM   23  C   UNL     1      -7.189   4.168  71.301  1.00  0.00    -0.040 C  
HETATM   24  C   UNL     1      -6.820   4.482  72.706  1.00  0.00    -0.057 C  
HETATM   25  N   UNL     1      -7.387   5.596  73.257  1.00  0.00    -0.094 N  
HETATM   26  O   UNL     1      -6.037   3.778  73.322  1.00  0.00    -0.010 OA 
HETATM   27  H   UNL     1      -7.120   5.852  74.207  1.00  0.00     0.000 HD 
HETATM   28  C   UNL     1      -8.322   6.411  72.585  1.00  0.00    -0.122 A  
HETATM   29  C   UNL     1      -8.843   7.540  73.222  1.00  0.00    -0.173 A  
HETATM   30  C   UNL     1      -9.796   8.316  72.581  1.00  0.00    -0.357 A  
HETATM   31  O   UNL     1      -8.452   7.950  74.468  1.00  0.00    -0.371 OA 
HETATM   32  C   UNL     1     -10.254   7.955  71.307  1.00  0.00    -0.218 A  
HETATM   33  H   UNL     1      -8.807   8.717  74.901  1.00  0.00     0.000 HD 
ENDBRANCH  17  20
ENDBRANCH  16  17
ENDBRANCH  14  16
ENDBRANCH  10  14
ENDBRANCH   2   3
TORSDOF 6
ENDMDL
MODEL      241
REMARK 921   NORMALIZED FREE ENERGY PREDICTED BY IDOCK:   -4.44 KCAL/MOL
REMARK 922        TOTAL FREE ENERGY PREDICTED BY IDOCK:   -7.28 KCAL/MOL
REMARK 923 INTER-LIGAND FREE ENERGY PREDICTED BY IDOCK:   -6.46 KCAL/MOL
REMARK 924 INTRA-LIGAND FREE ENERGY PREDICTED BY IDOCK:   -0.81 KCAL/MOL
REMARK 927      BINDING AFFINITY PREDICTED BY RF-SCORE:    0.00 PKD
ROOT
HETATM    1  C   UNL     1      -5.964   5.597  69.097  1.00  0.00    -0.024 C  
HETATM    2  C   UNL     1      -7.482   5.541  69.153  1.00  0.00    -0.078 C  
ENDROOT
BRANCH   2   3
HETATM    3  C   UNL     1      -8.262   6.841  69.092  1.00  0.00    -0.121 A  
HETATM    4  C   UNL     1      -9.356   6.988  69.993  1.00  0.00    -0.158 A  
HETATM    5  C   UNL     1      -9.854   8.264  70.263  1.00  0.00    -0.186 A  
HETATM    6  C   UNL     1      -8.044   7.857  68.138  1.00  0.00    -0.123 A  
HETATM    7  C   UNL     1      -8.822   9.007  68.229  1.00  0.00    -0.134 A  
HETATM    8  C   UNL     1      -9.516   9.290  69.407  1.00  0.00    -0.169 A  
HETATM    9  C   UNL     1     -10.325  10.538  69.245  1.00  0.00    -0.248 C  
HETATM   10  C   UNL     1     -10.843  10.185  67.840  1.00  0.00    -0.284 C  
HETATM   11  C   UNL     1      -9.459   9.859  67.114  1.00  0.00    -0.190 C  
BRANCH   4  12
HETATM   12  C   UNL     1     -10.114   5.752  70.453  1.00  0.00    -0.271 C  
HETATM   13  C   UNL     1     -10.411   5.645  71.948  1.00  0.00    -0.266 C  
ENDBRANCH   4  12
BRANCH  10  14
HETATM   14  N   UNL     1     -11.891  11.093  67.330  1.00  0.00    -0.513 NA 
HETATM   15  H   UNL     1     -12.483  11.458  68.076  1.00  0.00     0.000 HD 
BRANCH  14  16
HETATM   16  C   UNL     1     -11.249  12.196  66.519  1.00  0.00    -0.328 C  
BRANCH  16  17
HETATM   17  C   UNL     1     -11.617  13.651  66.919  1.00  0.00    -0.367 C  
HETATM   18  H   UNL     1     -13.093  14.866  66.534  1.00  0.00     0.000 HD 
HETATM   19  O   UNL     1     -12.869  13.976  66.290  1.00  0.00    -0.331 OA 
BRANCH  17  20
HETATM   20  C   UNL     1     -10.558  14.715  66.564  1.00  0.00    -0.300 A  
HETATM   21  C   UNL     1      -9.212  14.632  66.995  1.00  0.00    -0.252 A  
HETATM   22  C   UNL     1      -8.655  13.441  67.651  1.00  0.00    -0.193 C  
HETATM   23  C   UNL     1      -7.396  13.415  68.108  1.00  0.00    -0.117 C  
HETATM   24  C   UNL     1      -6.517  14.609  67.998  1.00  0.00    -0.152 C  
HETATM   25  N   UNL     1      -7.024  15.687  67.330  1.00  0.00    -0.202 N  
HETATM   26  O   UNL     1      -5.395  14.608  68.476  1.00  0.00    -0.091 OA 
HETATM   27  H   UNL     1      -6.425  16.503  67.210  1.00  0.00     0.000 HD 
HETATM   28  C   UNL     1      -8.328  15.733  66.796  1.00  0.00    -0.274 A  
HETATM   29  C   UNL     1      -8.761  16.874  66.116  1.00  0.00    -0.245 A  
HETATM   30  C   UNL     1     -10.057  16.940  65.631  1.00  0.00    -0.175 A  
HETATM   31  O   UNL     1      -7.958  17.957  65.877  1.00  0.00    -0.523 OA 
HETATM   32  C   UNL     1     -10.941  15.874  65.845  1.00  0.00    -0.151 A  
HETATM   33  H   UNL     1      -8.252  18.733  65.415  1.00  0.00     0.000 HD 
ENDBRANCH  17  20
ENDBRANCH  16  17
ENDBRANCH  14  16
ENDBRANCH  10  14
ENDBRANCH   2   3
TORSDOF 6
ENDMDL
MODEL      242
REMARK 921   NORMALIZED FREE ENERGY PREDICTED BY IDOCK:   -4.42 KCAL/MOL
REMARK 922        TOTAL FREE ENERGY PREDICTED BY IDOCK:   -7.24 KCAL/MOL
REMARK 923 INTER-LIGAND FREE ENERGY PREDICTED BY IDOCK:   -6.46 KCAL/MOL
REMARK 924 INTRA-LIGAND FREE ENERGY PREDICTED BY IDOCK:   -0.78 KCAL/MOL
REMARK 927      BINDING AFFINITY PREDICTED BY RF-SCORE:    0.00 PKD
ROOT
HETATM    1  C   UNL     1     -10.692   5.633  70.190  1.00  0.00    -0.376 C  
HETATM    2  C   UNL     1     -10.615   5.970  68.710  1.00  0.00    -0.345 C  
ENDROOT
BRANCH   2   3
HETATM    3  C   UNL     1     -10.208   7.374  68.303  1.00  0.00    -0.213 A  
HETATM    4  C   UNL     1      -8.879   7.552  67.820  1.00  0.00    -0.132 A  
HETATM    5  C   UNL     1      -8.569   8.694  67.078  1.00  0.00    -0.120 A  
HETATM    6  C   UNL     1     -11.014   8.518  68.472  1.00  0.00     0.142 A  
HETATM    7  C   UNL     1     -10.513   9.735  68.021  1.00  0.00    -0.271 A  
HETATM    8  C   UNL     1      -9.439   9.761  67.129  1.00  0.00    -0.189 A  
HETATM    9  C   UNL     1      -9.041  11.173  66.839  1.00  0.00    -0.166 C  
HETATM   10  C   UNL     1      -9.139  11.648  68.299  1.00  0.00    -0.187 C  
HETATM   11  C   UNL     1     -10.610  11.137  68.652  1.00  0.00    -0.222 C  
BRANCH   4  12
HETATM   12  C   UNL     1      -7.775   6.633  68.317  1.00  0.00    -0.105 C  
HETATM   13  C   UNL     1      -7.171   6.960  69.682  1.00  0.00    -0.080 C  
ENDBRANCH   4  12
BRANCH  10  14
HETATM   14  N   UNL     1      -8.619  13.011  68.534  1.00  0.00    -0.338 NA 
HETATM   15  H   UNL     1      -7.844  13.019  69.197  1.00  0.00     0.000 HD 
BRANCH  14  16
HETATM   16  C   UNL     1      -8.247  13.641  67.211  1.00  0.00    -0.152 C  
BRANCH  16  17
HETATM   17  C   UNL     1      -7.514  15.009  67.280  1.00  0.00    -0.181 C  
HETATM   18  H   UNL     1      -6.302  15.874  68.540  1.00  0.00     0.000 HD 
HETATM   19  O   UNL     1      -6.750  15.037  68.498  1.00  0.00    -0.092 OA 
BRANCH  17  20
HETATM   20  C   UNL     1      -8.432  16.247  67.208  1.00  0.00    -0.199 A  
HETATM   21  C   UNL     1      -7.969  17.524  66.810  1.00  0.00    -0.273 A  
HETATM   22  C   UNL     1      -6.629  17.749  66.247  1.00  0.00    -0.297 C  
HETATM   23  C   UNL     1      -6.194  18.978  65.940  1.00  0.00    -0.233 C  
HETATM   24  C   UNL     1      -7.040  20.174  66.188  1.00  0.00    -0.276 C  
HETATM   25  N   UNL     1      -8.305  19.948  66.650  1.00  0.00    -0.316 N  
HETATM   26  O   UNL     1      -6.617  21.298  65.973  1.00  0.00    -0.148 OA 
HETATM   27  H   UNL     1      -8.917  20.752  66.792  1.00  0.00     0.000 HD 
HETATM   28  C   UNL     1      -8.814  18.665  66.941  1.00  0.00    -0.287 A  
HETATM   29  C   UNL     1     -10.126  18.525  67.399  1.00  0.00    -0.352 A  
HETATM   30  C   UNL     1     -10.612  17.270  67.730  1.00  0.00    -0.367 A  
HETATM   31  O   UNL     1     -10.993  19.576  67.532  1.00  0.00    -0.452 OA 
HETATM   32  C   UNL     1      -9.781  16.147  67.629  1.00  0.00    -0.233 A  
HETATM   33  H   UNL     1     -11.885  19.481  67.844  1.00  0.00     0.000 HD 
ENDBRANCH  17  20
ENDBRANCH  16  17
ENDBRANCH  14  16
ENDBRANCH  10  14
ENDBRANCH   2   3
TORSDOF 6
ENDMDL
MODEL      243
REMARK 921   NORMALIZED FREE ENERGY PREDICTED BY IDOCK:   -4.40 KCAL/MOL
REMARK 922        TOTAL FREE ENERGY PREDICTED BY IDOCK:   -7.22 KCAL/MOL
REMARK 923 INTER-LIGAND FREE ENERGY PREDICTED BY IDOCK:   -6.68 KCAL/MOL
REMARK 924 INTRA-LIGAND FREE ENERGY PREDICTED BY IDOCK:   -0.54 KCAL/MOL
REMARK 927      BINDING AFFINITY PREDICTED BY RF-SCORE:    0.00 PKD
ROOT
HETATM    1  C   UNL     1      -5.919   3.833  67.783  1.00  0.00    -0.027 C  
HETATM    2  C   UNL     1      -6.863   4.826  67.126  1.00  0.00    -0.056 C  
ENDROOT
BRANCH   2   3
HETATM    3  C   UNL     1      -7.839   5.591  67.999  1.00  0.00    -0.096 A  
HETATM    4  C   UNL     1      -9.135   5.026  68.177  1.00  0.00    -0.131 A  
HETATM    5  C   UNL     1      -9.925   5.449  69.247  1.00  0.00    -0.277 A  
HETATM    6  C   UNL     1      -7.587   6.863  68.552  1.00  0.00    -0.111 A  
HETATM    7  C   UNL     1      -8.571   7.425  69.358  1.00  0.00    -0.134 A  
HETATM    8  C   UNL     1      -9.587   6.623  69.883  1.00  0.00    -0.161 A  
HETATM    9  C   UNL     1     -10.554   7.456  70.662  1.00  0.00    -0.234 C  
HETATM   10  C   UNL     1     -10.614   8.598  69.633  1.00  0.00    -0.218 C  
HETATM   11  C   UNL     1      -9.053   8.885  69.455  1.00  0.00    -0.146 C  
BRANCH   4  12
HETATM   12  C   UNL     1      -9.729   4.161  67.076  1.00  0.00    -0.230 C  
HETATM   13  C   UNL     1     -10.625   4.864  66.057  1.00  0.00    -0.312 C  
ENDBRANCH   4  12
BRANCH  10  14
HETATM   14  N   UNL     1     -11.653   9.613  69.906  1.00  0.00    -0.434 NA 
HETATM   15  H   UNL     1     -12.073   9.497  70.827  1.00  0.00     0.000 HD 
BRANCH  14  16
HETATM   16  C   UNL     1     -11.067  10.993  69.714  1.00  0.00    -0.235 C  
BRANCH  16  17
HETATM   17  C   UNL     1     -11.909  11.989  68.869  1.00  0.00    -0.299 C  
HETATM   18  H   UNL     1     -12.584  12.032  67.039  1.00  0.00     0.000 HD 
HETATM   19  O   UNL     1     -12.069  11.423  67.556  1.00  0.00    -0.592 OA 
BRANCH  17  20
HETATM   20  C   UNL     1     -11.324  13.411  68.760  1.00  0.00    -0.332 A  
HETATM   21  C   UNL     1      -9.994  13.665  68.344  1.00  0.00    -0.235 A  
HETATM   22  C   UNL     1      -9.116  12.622  67.796  1.00  0.00    -0.192 C  
HETATM   23  C   UNL     1      -7.841  12.877  67.471  1.00  0.00    -0.177 C  
HETATM   24  C   UNL     1      -7.251  14.224  67.684  1.00  0.00    -0.183 C  
HETATM   25  N   UNL     1      -8.094  15.201  68.133  1.00  0.00    -0.133 N  
HETATM   26  O   UNL     1      -6.073  14.437  67.454  1.00  0.00    -0.341 OA 
HETATM   27  H   UNL     1      -7.720  16.142  68.251  1.00  0.00     0.000 HD 
HETATM   28  C   UNL     1      -9.453  14.980  68.441  1.00  0.00    -0.201 A  
HETATM   29  C   UNL     1     -10.246  16.042  68.884  1.00  0.00    -0.231 A  
HETATM   30  C   UNL     1     -11.568  15.818  69.232  1.00  0.00    -0.380 A  
HETATM   31  O   UNL     1      -9.792  17.329  68.985  1.00  0.00    -0.280 OA 
HETATM   32  C   UNL     1     -12.102  14.524  69.164  1.00  0.00    -0.299 A  
HETATM   33  H   UNL     1     -10.331  18.051  69.286  1.00  0.00     0.000 HD 
ENDBRANCH  17  20
ENDBRANCH  16  17
ENDBRANCH  14  16
ENDBRANCH  10  14
ENDBRANCH   2   3
TORSDOF 6
ENDMDL
MODEL      244
REMARK 921   NORMALIZED FREE ENERGY PREDICTED BY IDOCK:   -4.37 KCAL/MOL
REMARK 922        TOTAL FREE ENERGY PREDICTED BY IDOCK:   -7.19 KCAL/MOL
REMARK 923 INTER-LIGAND FREE ENERGY PREDICTED BY IDOCK:   -5.95 KCAL/MOL
REMARK 924 INTRA-LIGAND FREE ENERGY PREDICTED BY IDOCK:   -1.23 KCAL/MOL
REMARK 927      BINDING AFFINITY PREDICTED BY RF-SCORE:    0.00 PKD
ROOT
HETATM    1  C   UNL     1      -7.847   6.022  71.467  1.00  0.00    -0.106 C  
HETATM    2  C   UNL     1      -7.923   7.528  71.655  1.00  0.00    -0.092 C  
ENDROOT
BRANCH   2   3
HETATM    3  C   UNL     1      -8.879   8.323  70.786  1.00  0.00    -0.162 A  
HETATM    4  C   UNL     1      -8.457   8.622  69.458  1.00  0.00    -0.129 A  
HETATM    5  C   UNL     1      -9.409   8.989  68.505  1.00  0.00    -0.141 A  
HETATM    6  C   UNL     1     -10.097   8.872  71.237  1.00  0.00    -0.365 A  
HETATM    7  C   UNL     1     -10.881   9.553  70.312  1.00  0.00    -0.319 A  
HETATM    8  C   UNL     1     -10.653   9.386  68.944  1.00  0.00    -0.231 A  
HETATM    9  C   UNL     1     -11.574  10.261  68.155  1.00  0.00     0.040 C  
HETATM   10  C   UNL     1     -11.397  11.496  69.054  1.00  0.00    -0.276 C  
HETATM   11  C   UNL     1     -11.708  10.842  70.477  1.00  0.00    -0.441 C  
BRANCH   4  12
HETATM   12  C   UNL     1      -6.973   8.771  69.163  1.00  0.00    -0.059 C  
HETATM   13  C   UNL     1      -6.505  10.139  68.665  1.00  0.00    -0.052 C  
ENDBRANCH   4  12
BRANCH  10  14
HETATM   14  N   UNL     1     -12.007  12.732  68.520  1.00  0.00    -0.284 NA 
HETATM   15  H   UNL     1     -11.608  13.571  68.940  1.00  0.00     0.000 HD 
BRANCH  14  16
HETATM   16  C   UNL     1     -11.893  12.738  67.013  1.00  0.00    -0.361 C  
BRANCH  16  17
HETATM   17  C   UNL     1     -10.532  13.202  66.425  1.00  0.00    -0.282 C  
HETATM   18  H   UNL     1      -9.013  12.321  65.575  1.00  0.00     0.000 HD 
HETATM   19  O   UNL     1      -9.845  12.037  65.935  1.00  0.00    -0.231 OA 
BRANCH  17  20
HETATM   20  C   UNL     1      -9.624  13.973  67.406  1.00  0.00    -0.227 A  
HETATM   21  C   UNL     1      -9.664  15.381  67.543  1.00  0.00    -0.208 A  
HETATM   22  C   UNL     1     -10.697  16.216  66.914  1.00  0.00    -0.247 C  
HETATM   23  C   UNL     1     -10.672  17.552  67.007  1.00  0.00    -0.157 C  
HETATM   24  C   UNL     1      -9.575  18.250  67.727  1.00  0.00    -0.283 C  
HETATM   25  N   UNL     1      -8.657  17.462  68.362  1.00  0.00    -0.264 N  
HETATM   26  O   UNL     1      -9.515  19.468  67.752  1.00  0.00    -0.312 OA 
HETATM   27  H   UNL     1      -7.916  17.919  68.893  1.00  0.00     0.000 HD 
HETATM   28  C   UNL     1      -8.678  16.052  68.324  1.00  0.00    -0.177 A  
HETATM   29  C   UNL     1      -7.704  15.324  69.013  1.00  0.00    -0.183 A  
HETATM   30  C   UNL     1      -7.695  13.941  68.939  1.00  0.00    -0.041 A  
HETATM   31  O   UNL     1      -6.741  15.906  69.792  1.00  0.00    -0.187 OA 
HETATM   32  C   UNL     1      -8.644  13.274  68.154  1.00  0.00    -0.177 A  
HETATM   33  H   UNL     1      -6.079  15.411  70.260  1.00  0.00     0.000 HD 
ENDBRANCH  17  20
ENDBRANCH  16  17
ENDBRANCH  14  16
ENDBRANCH  10  14
ENDBRANCH   2   3
TORSDOF 6
ENDMDL
MODEL      245
REMARK 921   NORMALIZED FREE ENERGY PREDICTED BY IDOCK:   -4.37 KCAL/MOL
REMARK 922        TOTAL FREE ENERGY PREDICTED BY IDOCK:   -7.18 KCAL/MOL
REMARK 923 INTER-LIGAND FREE ENERGY PREDICTED BY IDOCK:   -7.08 KCAL/MOL
REMARK 924 INTRA-LIGAND FREE ENERGY PREDICTED BY IDOCK:   -0.10 KCAL/MOL
REMARK 927      BINDING AFFINITY PREDICTED BY RF-SCORE:    0.00 PKD
ROOT
HETATM    1  C   UNL     1     -10.724  19.106  65.810  1.00  0.00    -0.388 C  
HETATM    2  C   UNL     1      -9.981  18.005  66.549  1.00  0.00    -0.371 C  
ENDROOT
BRANCH   2   3
HETATM    3  C   UNL     1     -10.446  16.572  66.381  1.00  0.00    -0.275 A  
HETATM    4  C   UNL     1     -10.717  15.831  67.568  1.00  0.00    -0.317 A  
HETATM    5  C   UNL     1     -11.502  14.679  67.492  1.00  0.00    -0.378 A  
HETATM    6  C   UNL     1     -10.524  15.898  65.145  1.00  0.00    -0.363 A  
HETATM    7  C   UNL     1     -10.999  14.591  65.148  1.00  0.00    -0.387 A  
HETATM    8  C   UNL     1     -11.699  14.105  66.255  1.00  0.00    -0.402 A  
HETATM    9  C   UNL     1     -12.052  12.666  66.053  1.00  0.00    -0.429 C  
HETATM   10  C   UNL     1     -10.681  12.264  65.483  1.00  0.00    -0.279 C  
HETATM   11  C   UNL     1     -10.530  13.367  64.338  1.00  0.00    -0.403 C  
BRANCH   4  12
HETATM   12  C   UNL     1      -9.957  16.163  68.843  1.00  0.00    -0.233 C  
HETATM   13  C   UNL     1      -8.438  16.282  68.727  1.00  0.00    -0.240 C  
ENDBRANCH   4  12
BRANCH  10  14
HETATM   14  N   UNL     1     -10.494  10.809  65.310  1.00  0.00    -0.248 NA 
HETATM   15  H   UNL     1      -9.747  10.592  64.651  1.00  0.00     0.000 HD 
BRANCH  14  16
HETATM   16  C   UNL     1     -10.270  10.168  66.660  1.00  0.00    -0.224 C  
BRANCH  16  17
HETATM   17  C   UNL     1      -8.980   9.316  66.813  1.00  0.00    -0.131 C  
HETATM   18  H   UNL     1      -7.322   9.111  65.806  1.00  0.00     0.000 HD 
HETATM   19  O   UNL     1      -8.111   9.632  65.712  1.00  0.00    -0.109 OA 
BRANCH  17  20
HETATM   20  C   UNL     1      -9.206   7.792  66.883  1.00  0.00    -0.187 A  
HETATM   21  C   UNL     1      -8.151   6.853  66.786  1.00  0.00    -0.109 A  
HETATM   22  C   UNL     1      -6.733   7.240  66.804  1.00  0.00    -0.061 C  
HETATM   23  C   UNL     1      -5.757   6.337  66.645  1.00  0.00    -0.016 C  
HETATM   24  C   UNL     1      -6.070   4.904  66.408  1.00  0.00    -0.031 C  
HETATM   25  N   UNL     1      -7.387   4.546  66.457  1.00  0.00    -0.080 N  
HETATM   26  O   UNL     1      -5.183   4.094  66.194  1.00  0.00    -0.008 OA 
HETATM   27  H   UNL     1      -7.623   3.561  66.334  1.00  0.00     0.000 HD 
HETATM   28  C   UNL     1      -8.439   5.462  66.668  1.00  0.00    -0.108 A  
HETATM   29  C   UNL     1      -9.759   5.005  66.715  1.00  0.00    -0.174 A  
HETATM   30  C   UNL     1     -10.797   5.909  66.876  1.00  0.00    -0.376 A  
HETATM   31  O   UNL     1     -10.101   3.683  66.625  1.00  0.00    -0.356 OA 
HETATM   32  C   UNL     1     -10.525   7.280  66.966  1.00  0.00    -0.398 A  
HETATM   33  H   UNL     1     -10.999   3.373  66.656  1.00  0.00     0.000 HD 
ENDBRANCH  17  20
ENDBRANCH  16  17
ENDBRANCH  14  16
ENDBRANCH  10  14
ENDBRANCH   2   3
TORSDOF 6
ENDMDL
MODEL      246
REMARK 921   NORMALIZED FREE ENERGY PREDICTED BY IDOCK:   -4.37 KCAL/MOL
REMARK 922        TOTAL FREE ENERGY PREDICTED BY IDOCK:   -7.17 KCAL/MOL
REMARK 923 INTER-LIGAND FREE ENERGY PREDICTED BY IDOCK:   -6.51 KCAL/MOL
REMARK 924 INTRA-LIGAND FREE ENERGY PREDICTED BY IDOCK:   -0.66 KCAL/MOL
REMARK 927      BINDING AFFINITY PREDICTED BY RF-SCORE:    0.00 PKD
ROOT
HETATM    1  C   UNL     1     -10.467   7.443  67.033  1.00  0.00    -0.404 C  
HETATM    2  C   UNL     1     -10.640   8.878  67.503  1.00  0.00    -0.307 C  
ENDROOT
BRANCH   2   3
HETATM    3  C   UNL     1      -9.417   9.646  67.967  1.00  0.00    -0.146 A  
HETATM    4  C   UNL     1      -9.275   9.860  69.369  1.00  0.00    -0.225 A  
HETATM    5  C   UNL     1      -8.023  10.196  69.886  1.00  0.00    -0.149 A  
HETATM    6  C   UNL     1      -8.479  10.247  67.104  1.00  0.00    -0.125 A  
HETATM    7  C   UNL     1      -7.390  10.894  67.681  1.00  0.00    -0.094 A  
HETATM    8  C   UNL     1      -7.056  10.646  69.014  1.00  0.00    -0.086 A  
HETATM    9  C   UNL     1      -5.896  11.496  69.424  1.00  0.00    -0.065 C  
HETATM   10  C   UNL     1      -6.415  12.775  68.746  1.00  0.00    -0.085 C  
HETATM   11  C   UNL     1      -6.697  12.209  67.279  1.00  0.00    -0.144 C  
BRANCH   4  12
HETATM   12  C   UNL     1     -10.519   9.958  70.237  1.00  0.00    -0.348 C  
HETATM   13  C   UNL     1     -10.546   9.097  71.500  1.00  0.00    -0.428 C  
ENDBRANCH   4  12
BRANCH  10  14
HETATM   14  N   UNL     1      -5.643  13.993  69.067  1.00  0.00    -0.082 NA 
HETATM   15  H   UNL     1      -4.680  13.783  69.328  1.00  0.00     0.000 HD 
BRANCH  14  16
HETATM   16  C   UNL     1      -5.723  14.958  67.906  1.00  0.00    -0.125 C  
BRANCH  16  17
HETATM   17  C   UNL     1      -5.739  16.470  68.265  1.00  0.00    -0.118 C  
HETATM   18  H   UNL     1      -5.617  17.508  69.911  1.00  0.00     0.000 HD 
HETATM   19  O   UNL     1      -5.606  16.584  69.692  1.00  0.00    -0.145 OA 
BRANCH  17  20
HETATM   20  C   UNL     1      -6.988  17.241  67.790  1.00  0.00    -0.172 A  
HETATM   21  C   UNL     1      -8.302  16.886  68.177  1.00  0.00    -0.212 A  
HETATM   22  C   UNL     1      -8.587  15.881  69.211  1.00  0.00    -0.247 C  
HETATM   23  C   UNL     1      -9.841  15.518  69.510  1.00  0.00    -0.284 C  
HETATM   24  C   UNL     1     -11.001  16.096  68.782  1.00  0.00    -0.330 C  
HETATM   25  N   UNL     1     -10.728  17.075  67.870  1.00  0.00    -0.362 N  
HETATM   26  O   UNL     1     -12.137  15.714  69.007  1.00  0.00    -0.337 OA 
HETATM   27  H   UNL     1     -11.511  17.512  67.384  1.00  0.00     0.000 HD 
HETATM   28  C   UNL     1      -9.424  17.515  67.561  1.00  0.00    -0.255 A  
HETATM   29  C   UNL     1      -9.238  18.532  66.621  1.00  0.00    -0.306 A  
HETATM   30  C   UNL     1      -7.956  18.933  66.283  1.00  0.00    -0.291 A  
HETATM   31  O   UNL     1     -10.271  19.187  66.007  1.00  0.00    -0.428 OA 
HETATM   32  C   UNL     1      -6.848  18.303  66.863  1.00  0.00    -0.212 A  
HETATM   33  H   UNL     1     -10.145  19.878  65.367  1.00  0.00     0.000 HD 
ENDBRANCH  17  20
ENDBRANCH  16  17
ENDBRANCH  14  16
ENDBRANCH  10  14
ENDBRANCH   2   3
TORSDOF 6
ENDMDL
MODEL      247
REMARK 921   NORMALIZED FREE ENERGY PREDICTED BY IDOCK:   -4.36 KCAL/MOL
REMARK 922        TOTAL FREE ENERGY PREDICTED BY IDOCK:   -7.17 KCAL/MOL
REMARK 923 INTER-LIGAND FREE ENERGY PREDICTED BY IDOCK:   -5.25 KCAL/MOL
REMARK 924 INTRA-LIGAND FREE ENERGY PREDICTED BY IDOCK:   -1.92 KCAL/MOL
REMARK 927      BINDING AFFINITY PREDICTED BY RF-SCORE:    0.00 PKD
ROOT
HETATM    1  C   UNL     1     -10.002   3.847  64.593  1.00  0.00    -0.206 C  
HETATM    2  C   UNL     1      -9.042   4.380  65.644  1.00  0.00    -0.137 C  
ENDROOT
BRANCH   2   3
HETATM    3  C   UNL     1      -9.516   5.483  66.571  1.00  0.00    -0.161 A  
HETATM    4  C   UNL     1      -8.685   6.635  66.692  1.00  0.00    -0.126 A  
HETATM    5  C   UNL     1      -9.227   7.818  67.196  1.00  0.00    -0.174 A  
HETATM    6  C   UNL     1     -10.657   5.396  67.395  1.00  0.00    -0.228 A  
HETATM    7  C   UNL     1     -10.981   6.505  68.171  1.00  0.00    -0.365 A  
HETATM    8  C   UNL     1     -10.423   7.751  67.876  1.00  0.00    -0.263 A  
HETATM    9  C   UNL     1     -10.869   8.767  68.878  1.00  0.00    -0.040 C  
HETATM   10  C   UNL     1     -10.679   7.852  70.099  1.00  0.00    -0.244 C  
HETATM   11  C   UNL     1     -11.512   6.578  69.615  1.00  0.00    -0.417 C  
BRANCH   4  12
HETATM   12  C   UNL     1      -7.183   6.494  66.501  1.00  0.00    -0.073 C  
HETATM   13  C   UNL     1      -6.301   7.513  67.222  1.00  0.00    -0.053 C  
ENDBRANCH   4  12
BRANCH  10  14
HETATM   14  N   UNL     1     -10.825   8.533  71.402  1.00  0.00    -0.244 NA 
HETATM   15  H   UNL     1     -11.567   8.126  71.970  1.00  0.00     0.000 HD 
BRANCH  14  16
HETATM   16  C   UNL     1      -9.494   8.534  72.119  1.00  0.00    -0.305 C  
BRANCH  16  17
HETATM   17  C   UNL     1      -9.400   7.667  73.404  1.00  0.00    -0.268 C  
HETATM   18  H   UNL     1      -8.055   7.369  74.784  1.00  0.00     0.000 HD 
HETATM   19  O   UNL     1      -8.112   7.900  73.998  1.00  0.00    -0.180 OA 
BRANCH  17  20
HETATM   20  C   UNL     1      -9.615   6.154  73.190  1.00  0.00    -0.147 A  
HETATM   21  C   UNL     1      -9.060   5.448  72.095  1.00  0.00    -0.147 A  
HETATM   22  C   UNL     1      -8.078   6.041  71.176  1.00  0.00    -0.121 C  
HETATM   23  C   UNL     1      -7.620   5.371  70.111  1.00  0.00    -0.073 C  
HETATM   24  C   UNL     1      -8.113   4.005  69.795  1.00  0.00    -0.054 C  
HETATM   25  N   UNL     1      -8.975   3.440  70.691  1.00  0.00    -0.087 N  
HETATM   26  O   UNL     1      -7.747   3.423  68.787  1.00  0.00    -0.052 OA 
HETATM   27  H   UNL     1      -9.298   2.489  70.513  1.00  0.00     0.000 HD 
HETATM   28  C   UNL     1      -9.444   4.098  71.847  1.00  0.00    -0.140 A  
HETATM   29  C   UNL     1     -10.317   3.438  72.716  1.00  0.00    -0.159 A  
HETATM   30  C   UNL     1     -10.815   4.099  73.827  1.00  0.00    -0.341 A  
HETATM   31  O   UNL     1     -10.712   2.139  72.543  1.00  0.00    -0.126 OA 
HETATM   32  C   UNL     1     -10.465   5.434  74.065  1.00  0.00    -0.317 A  
HETATM   33  H   UNL     1     -11.306   1.691  73.133  1.00  0.00     0.000 HD 
ENDBRANCH  17  20
ENDBRANCH  16  17
ENDBRANCH  14  16
ENDBRANCH  10  14
ENDBRANCH   2   3
TORSDOF 6
ENDMDL
MODEL      248
REMARK 921   NORMALIZED FREE ENERGY PREDICTED BY IDOCK:   -4.36 KCAL/MOL
REMARK 922        TOTAL FREE ENERGY PREDICTED BY IDOCK:   -7.17 KCAL/MOL
REMARK 923 INTER-LIGAND FREE ENERGY PREDICTED BY IDOCK:   -6.32 KCAL/MOL
REMARK 924 INTRA-LIGAND FREE ENERGY PREDICTED BY IDOCK:   -0.84 KCAL/MOL
REMARK 927      BINDING AFFINITY PREDICTED BY RF-SCORE:    0.00 PKD
ROOT
HETATM    1  C   UNL     1      -6.734   4.343  72.787  1.00  0.00    -0.051 C  
HETATM    2  C   UNL     1      -7.854   4.679  73.758  1.00  0.00    -0.098 C  
ENDROOT
BRANCH   2   3
HETATM    3  C   UNL     1      -8.937   5.644  73.316  1.00  0.00    -0.127 A  
HETATM    4  C   UNL     1     -10.199   5.088  72.957  1.00  0.00    -0.214 A  
HETATM    5  C   UNL     1     -11.325   5.913  72.925  1.00  0.00    -0.266 A  
HETATM    6  C   UNL     1      -8.744   7.030  73.136  1.00  0.00    -0.148 A  
HETATM    7  C   UNL     1      -9.844   7.791  72.754  1.00  0.00    -0.307 A  
HETATM    8  C   UNL     1     -11.134   7.277  72.898  1.00  0.00    -0.369 A  
HETATM    9  C   UNL     1     -12.141   8.248  72.367  1.00  0.00    -0.430 C  
HETATM   10  C   UNL     1     -11.341   8.598  71.101  1.00  0.00    -0.275 C  
HETATM   11  C   UNL     1      -9.934   8.966  71.762  1.00  0.00    -0.397 C  
BRANCH   4  12
HETATM   12  C   UNL     1     -10.258   3.681  72.386  1.00  0.00    -0.215 C  
HETATM   13  C   UNL     1     -10.882   2.604  73.275  1.00  0.00    -0.278 C  
ENDBRANCH   4  12
BRANCH  10  14
HETATM   14  N   UNL     1     -12.077   9.425  70.123  1.00  0.00    -0.445 NA 
HETATM   15  H   UNL     1     -13.067   9.504  70.351  1.00  0.00     0.000 HD 
BRANCH  14  16
HETATM   16  C   UNL     1     -11.409  10.776  70.004  1.00  0.00    -0.319 C  
BRANCH  16  17
HETATM   17  C   UNL     1     -10.693  11.077  68.659  1.00  0.00    -0.198 C  
HETATM   18  H   UNL     1     -11.188  10.997  66.774  1.00  0.00     0.000 HD 
HETATM   19  O   UNL     1     -11.626  10.813  67.597  1.00  0.00    -0.523 OA 
BRANCH  17  20
HETATM   20  C   UNL     1      -9.389  10.288  68.421  1.00  0.00    -0.143 A  
HETATM   21  C   UNL     1      -9.365   9.016  67.800  1.00  0.00    -0.156 A  
HETATM   22  C   UNL     1     -10.542   8.418  67.155  1.00  0.00    -0.326 C  
HETATM   23  C   UNL     1     -10.507   7.185  66.633  1.00  0.00    -0.205 C  
HETATM   24  C   UNL     1      -9.277   6.354  66.715  1.00  0.00    -0.142 C  
HETATM   25  N   UNL     1      -8.171   6.943  67.258  1.00  0.00    -0.117 N  
HETATM   26  O   UNL     1      -9.267   5.206  66.301  1.00  0.00    -0.136 OA 
HETATM   27  H   UNL     1      -7.306   6.404  67.290  1.00  0.00     0.000 HD 
HETATM   28  C   UNL     1      -8.159   8.255  67.776  1.00  0.00    -0.127 A  
HETATM   29  C   UNL     1      -6.978   8.782  68.303  1.00  0.00    -0.073 A  
HETATM   30  C   UNL     1      -6.975  10.054  68.855  1.00  0.00    -0.062 A  
HETATM   31  O   UNL     1      -5.785   8.111  68.296  1.00  0.00    -0.032 OA 
HETATM   32  C   UNL     1      -8.160  10.798  68.907  1.00  0.00    -0.145 A  
HETATM   33  H   UNL     1      -4.982   8.470  68.655  1.00  0.00     0.000 HD 
ENDBRANCH  17  20
ENDBRANCH  16  17
ENDBRANCH  14  16
ENDBRANCH  10  14
ENDBRANCH   2   3
TORSDOF 6
ENDMDL
MODEL      249
REMARK 921   NORMALIZED FREE ENERGY PREDICTED BY IDOCK:   -4.33 KCAL/MOL
REMARK 922        TOTAL FREE ENERGY PREDICTED BY IDOCK:   -7.12 KCAL/MOL
REMARK 923 INTER-LIGAND FREE ENERGY PREDICTED BY IDOCK:   -7.21 KCAL/MOL
REMARK 924 INTRA-LIGAND FREE ENERGY PREDICTED BY IDOCK:    0.08 KCAL/MOL
REMARK 927      BINDING AFFINITY PREDICTED BY RF-SCORE:    0.00 PKD
ROOT
HETATM    1  C   UNL     1      -9.690  16.531  65.791  1.00  0.00    -0.237 C  
HETATM    2  C   UNL     1     -10.882  15.825  66.418  1.00  0.00    -0.226 C  
ENDROOT
BRANCH   2   3
HETATM    3  C   UNL     1     -10.807  14.327  66.639  1.00  0.00    -0.301 A  
HETATM    4  C   UNL     1     -10.955  13.857  67.977  1.00  0.00    -0.267 A  
HETATM    5  C   UNL     1     -11.286  12.519  68.199  1.00  0.00    -0.312 A  
HETATM    6  C   UNL     1     -10.495  13.387  65.635  1.00  0.00    -0.293 A  
HETATM    7  C   UNL     1     -10.494  12.041  65.986  1.00  0.00    -0.284 A  
HETATM    8  C   UNL     1     -11.119  11.625  67.164  1.00  0.00    -0.354 A  
HETATM    9  C   UNL     1     -10.934  10.154  67.356  1.00  0.00    -0.295 C  
HETATM   10  C   UNL     1      -9.448  10.147  66.959  1.00  0.00    -0.167 C  
HETATM   11  C   UNL     1      -9.539  10.910  65.558  1.00  0.00    -0.266 C  
BRANCH   4  12
HETATM   12  C   UNL     1     -10.520  14.745  69.131  1.00  0.00    -0.243 C  
HETATM   13  C   UNL     1      -9.039  15.117  69.192  1.00  0.00    -0.215 C  
ENDBRANCH   4  12
BRANCH  10  14
HETATM   14  N   UNL     1      -8.757   8.864  67.198  1.00  0.00    -0.119 NA 
HETATM   15  H   UNL     1      -7.869   8.988  67.683  1.00  0.00     0.000 HD 
BRANCH  14  16
HETATM   16  C   UNL     1      -9.684   7.925  67.936  1.00  0.00    -0.155 C  
BRANCH  16  17
HETATM   17  C   UNL     1      -9.040   6.638  68.522  1.00  0.00    -0.128 C  
HETATM   18  H   UNL     1      -8.631   4.856  67.842  1.00  0.00     0.000 HD 
HETATM   19  O   UNL     1      -9.025   5.644  67.483  1.00  0.00    -0.110 OA 
BRANCH  17  20
HETATM   20  C   UNL     1      -9.733   6.074  69.779  1.00  0.00    -0.194 A  
HETATM   21  C   UNL     1     -10.652   6.825  70.551  1.00  0.00    -0.260 A  
HETATM   22  C   UNL     1     -11.177   8.129  70.123  1.00  0.00    -0.134 C  
HETATM   23  C   UNL     1     -11.995   8.847  70.904  1.00  0.00    -0.254 C  
HETATM   24  C   UNL     1     -12.382   8.366  72.255  1.00  0.00    -0.376 C  
HETATM   25  N   UNL     1     -11.941   7.124  72.616  1.00  0.00    -0.517 N  
HETATM   26  O   UNL     1     -13.070   9.051  72.993  1.00  0.00    -0.295 OA 
HETATM   27  H   UNL     1     -12.225   6.758  73.524  1.00  0.00     0.000 HD 
HETATM   28  C   UNL     1     -11.116   6.321  71.801  1.00  0.00    -0.273 A  
HETATM   29  C   UNL     1     -10.721   5.056  72.245  1.00  0.00    -0.180 A  
HETATM   30  C   UNL     1      -9.873   4.284  71.468  1.00  0.00    -0.260 A  
HETATM   31  O   UNL     1     -11.143   4.508  73.427  1.00  0.00    -0.273 OA 
HETATM   32  C   UNL     1      -9.392   4.782  70.250  1.00  0.00    -0.217 A  
HETATM   33  H   UNL     1     -10.874   3.648  73.729  1.00  0.00     0.000 HD 
ENDBRANCH  17  20
ENDBRANCH  16  17
ENDBRANCH  14  16
ENDBRANCH  10  14
ENDBRANCH   2   3
TORSDOF 6
ENDMDL
MODEL      250
REMARK 921   NORMALIZED FREE ENERGY PREDICTED BY IDOCK:   -4.32 KCAL/MOL
REMARK 922        TOTAL FREE ENERGY PREDICTED BY IDOCK:   -7.12 KCAL/MOL
REMARK 923 INTER-LIGAND FREE ENERGY PREDICTED BY IDOCK:   -5.68 KCAL/MOL
REMARK 924 INTRA-LIGAND FREE ENERGY PREDICTED BY IDOCK:   -1.44 KCAL/MOL
REMARK 927      BINDING AFFINITY PREDICTED BY RF-SCORE:    0.00 PKD
ROOT
HETATM    1  C   UNL     1     -12.483  12.657  63.414  1.00  0.00    -0.474 C  
HETATM    2  C   UNL     1     -11.055  12.597  63.932  1.00  0.00    -0.476 C  
ENDROOT
BRANCH   2   3
HETATM    3  C   UNL     1     -10.711  11.579  65.003  1.00  0.00    -0.350 A  
HETATM    4  C   UNL     1     -10.977  11.941  66.356  1.00  0.00    -0.337 A  
HETATM    5  C   UNL     1     -11.056  10.942  67.327  1.00  0.00    -0.350 A  
HETATM    6  C   UNL     1     -10.051  10.357  64.758  1.00  0.00    -0.387 A  
HETATM    7  C   UNL     1      -9.830   9.513  65.841  1.00  0.00    -0.360 A  
HETATM    8  C   UNL     1     -10.541   9.699  67.029  1.00  0.00    -0.267 A  
HETATM    9  C   UNL     1     -10.090   8.715  68.062  1.00  0.00    -0.241 C  
HETATM   10  C   UNL     1      -8.591   8.874  67.760  1.00  0.00    -0.125 C  
HETATM   11  C   UNL     1      -8.606   8.641  66.180  1.00  0.00    -0.158 C  
BRANCH   4  12
HETATM   12  C   UNL     1     -10.929  13.406  66.759  1.00  0.00    -0.298 C  
HETATM   13  C   UNL     1     -12.261  14.061  67.127  1.00  0.00    -0.356 C  
ENDBRANCH   4  12
BRANCH  10  14
HETATM   14  N   UNL     1      -7.699   8.196  68.723  1.00  0.00    -0.105 NA 
HETATM   15  H   UNL     1      -7.175   7.434  68.294  1.00  0.00     0.000 HD 
BRANCH  14  16
HETATM   16  C   UNL     1      -6.793   9.218  69.372  1.00  0.00    -0.049 C  
BRANCH  16  17
HETATM   17  C   UNL     1      -6.760  10.627  68.717  1.00  0.00    -0.055 C  
HETATM   18  H   UNL     1      -5.739  11.469  67.285  1.00  0.00     0.000 HD 
HETATM   19  O   UNL     1      -5.759  10.607  67.686  1.00  0.00    -0.044 OA 
BRANCH  17  20
HETATM   20  C   UNL     1      -6.492  11.794  69.689  1.00  0.00    -0.113 A  
HETATM   21  C   UNL     1      -6.873  13.128  69.410  1.00  0.00     0.032 A  
HETATM   22  C   UNL     1      -7.725  13.494  68.270  1.00  0.00    -0.137 C  
HETATM   23  C   UNL     1      -8.016  14.772  67.992  1.00  0.00    -0.138 C  
HETATM   24  C   UNL     1      -7.460  15.879  68.812  1.00  0.00    -0.170 C  
HETATM   25  N   UNL     1      -6.724  15.525  69.907  1.00  0.00    -0.149 N  
HETATM   26  O   UNL     1      -7.669  17.045  68.518  1.00  0.00    -0.215 OA 
HETATM   27  H   UNL     1      -6.363  16.268  70.505  1.00  0.00     0.000 HD 
HETATM   28  C   UNL     1      -6.435  14.189  70.255  1.00  0.00    -0.071 A  
HETATM   29  C   UNL     1      -5.682  13.917  71.401  1.00  0.00    -0.220 A  
HETATM   30  C   UNL     1      -5.358  12.609  71.720  1.00  0.00     0.083 A  
HETATM   31  O   UNL     1      -5.245  14.888  72.262  1.00  0.00    -0.134 OA 
HETATM   32  C   UNL     1      -5.762  11.562  70.882  1.00  0.00    -0.017 A  
HETATM   33  H   UNL     1      -4.733  14.703  73.040  1.00  0.00     0.000 HD 
ENDBRANCH  17  20
ENDBRANCH  16  17
ENDBRANCH  14  16
ENDBRANCH  10  14
ENDBRANCH   2   3
TORSDOF 6
ENDMDL
MODEL      251
REMARK 921   NORMALIZED FREE ENERGY PREDICTED BY IDOCK:   -4.32 KCAL/MOL
REMARK 922        TOTAL FREE ENERGY PREDICTED BY IDOCK:   -7.11 KCAL/MOL
REMARK 923 INTER-LIGAND FREE ENERGY PREDICTED BY IDOCK:   -7.53 KCAL/MOL
REMARK 924 INTRA-LIGAND FREE ENERGY PREDICTED BY IDOCK:    0.43 KCAL/MOL
REMARK 927      BINDING AFFINITY PREDICTED BY RF-SCORE:    0.00 PKD
ROOT
HETATM    1  C   UNL     1      -9.461   2.909  72.544  1.00  0.00    -0.168 C  
HETATM    2  C   UNL     1      -9.727   3.398  71.130  1.00  0.00    -0.222 C  
ENDROOT
BRANCH   2   3
HETATM    3  C   UNL     1      -9.432   4.847  70.793  1.00  0.00    -0.232 A  
HETATM    4  C   UNL     1      -9.951   5.841  71.674  1.00  0.00    -0.218 A  
HETATM    5  C   UNL     1      -9.405   7.125  71.653  1.00  0.00    -0.158 A  
HETATM    6  C   UNL     1      -8.777   5.275  69.620  1.00  0.00    -0.112 A  
HETATM    7  C   UNL     1      -8.551   6.639  69.465  1.00  0.00    -0.132 A  
HETATM    8  C   UNL     1      -8.639   7.491  70.568  1.00  0.00    -0.138 A  
HETATM    9  C   UNL     1      -8.418   8.909  70.146  1.00  0.00    -0.150 C  
HETATM   10  C   UNL     1      -9.292   8.816  68.884  1.00  0.00    -0.145 C  
HETATM   11  C   UNL     1      -8.652   7.520  68.206  1.00  0.00    -0.124 C  
BRANCH   4  12
HETATM   12  C   UNL     1     -11.234   5.560  72.440  1.00  0.00    -0.305 C  
HETATM   13  C   UNL     1     -12.465   6.372  72.038  1.00  0.00    -0.212 C  
ENDBRANCH   4  12
BRANCH  10  14
HETATM   14  N   UNL     1      -9.537  10.110  68.214  1.00  0.00    -0.139 NA 
HETATM   15  H   UNL     1     -10.184  10.023  67.431  1.00  0.00     0.000 HD 
BRANCH  14  16
HETATM   16  C   UNL     1     -10.005  11.123  69.233  1.00  0.00    -0.007 C  
BRANCH  16  17
HETATM   17  C   UNL     1     -11.289  11.920  68.874  1.00  0.00    -0.278 C  
HETATM   18  H   UNL     1     -13.076  11.464  68.239  1.00  0.00     0.000 HD 
HETATM   19  O   UNL     1     -12.290  10.976  68.459  1.00  0.00    -0.536 OA 
BRANCH  17  20
HETATM   20  C   UNL     1     -11.106  13.003  67.791  1.00  0.00    -0.291 A  
HETATM   21  C   UNL     1     -10.813  12.695  66.441  1.00  0.00    -0.295 A  
HETATM   22  C   UNL     1     -10.848  11.326  65.907  1.00  0.00    -0.264 C  
HETATM   23  C   UNL     1     -10.504  11.057  64.641  1.00  0.00    -0.398 C  
HETATM   24  C   UNL     1     -10.037  12.133  63.729  1.00  0.00    -0.379 C  
HETATM   25  N   UNL     1     -10.070  13.409  64.215  1.00  0.00    -0.654 N  
HETATM   26  O   UNL     1      -9.657  11.878  62.598  1.00  0.00    -0.194 OA 
HETATM   27  H   UNL     1      -9.790  14.168  63.595  1.00  0.00     0.000 HD 
HETATM   28  C   UNL     1     -10.471  13.735  65.528  1.00  0.00    -0.318 A  
HETATM   29  C   UNL     1     -10.485  15.071  65.938  1.00  0.00    -0.328 A  
HETATM   30  C   UNL     1     -10.833  15.389  67.241  1.00  0.00    -0.316 A  
HETATM   31  O   UNL     1     -10.183  16.117  65.108  1.00  0.00    -0.542 OA 
HETATM   32  C   UNL     1     -11.146  14.372  68.152  1.00  0.00    -0.279 A  
HETATM   33  H   UNL     1     -10.192  17.024  65.387  1.00  0.00     0.000 HD 
ENDBRANCH  17  20
ENDBRANCH  16  17
ENDBRANCH  14  16
ENDBRANCH  10  14
ENDBRANCH   2   3
TORSDOF 6
ENDMDL
MODEL      252
REMARK 921   NORMALIZED FREE ENERGY PREDICTED BY IDOCK:   -4.31 KCAL/MOL
REMARK 922        TOTAL FREE ENERGY PREDICTED BY IDOCK:   -7.10 KCAL/MOL
REMARK 923 INTER-LIGAND FREE ENERGY PREDICTED BY IDOCK:   -6.26 KCAL/MOL
REMARK 924 INTRA-LIGAND FREE ENERGY PREDICTED BY IDOCK:   -0.84 KCAL/MOL
REMARK 927      BINDING AFFINITY PREDICTED BY RF-SCORE:    0.00 PKD
ROOT
HETATM    1  C   UNL     1     -10.945   7.136  73.452  1.00  0.00    -0.277 C  
HETATM    2  C   UNL     1     -11.400   6.969  72.011  1.00  0.00    -0.300 C  
ENDROOT
BRANCH   2   3
HETATM    3  C   UNL     1     -10.519   7.510  70.901  1.00  0.00    -0.218 A  
HETATM    4  C   UNL     1     -10.500   8.923  70.715  1.00  0.00    -0.283 A  
HETATM    5  C   UNL     1      -9.449   9.505  70.004  1.00  0.00    -0.265 A  
HETATM    6  C   UNL     1      -9.810   6.708  69.984  1.00  0.00    -0.178 A  
HETATM    7  C   UNL     1      -9.019   7.352  69.038  1.00  0.00    -0.131 A  
HETATM    8  C   UNL     1      -8.662   8.690  69.219  1.00  0.00    -0.133 A  
HETATM    9  C   UNL     1      -7.867   9.177  68.050  1.00  0.00    -0.100 C  
HETATM   10  C   UNL     1      -8.763   8.518  66.988  1.00  0.00    -0.125 C  
HETATM   11  C   UNL     1      -8.794   7.023  67.550  1.00  0.00    -0.119 C  
BRANCH   4  12
HETATM   12  C   UNL     1     -11.731   9.739  71.076  1.00  0.00    -0.453 C  
HETATM   13  C   UNL     1     -11.821  11.146  70.485  1.00  0.00    -0.448 C  
ENDBRANCH   4  12
BRANCH  10  14
HETATM   14  N   UNL     1      -8.453   8.911  65.598  1.00  0.00    -0.147 NA 
HETATM   15  H   UNL     1      -9.125   8.531  64.931  1.00  0.00     0.000 HD 
BRANCH  14  16
HETATM   16  C   UNL     1      -8.352  10.416  65.513  1.00  0.00    -0.168 C  
BRANCH  16  17
HETATM   17  C   UNL     1      -9.632  11.216  65.883  1.00  0.00    -0.218 C  
HETATM   18  H   UNL     1     -11.420  11.404  65.126  1.00  0.00     0.000 HD 
HETATM   19  O   UNL     1     -10.637  10.915  64.899  1.00  0.00    -0.302 OA 
BRANCH  17  20
HETATM   20  C   UNL     1      -9.441  12.743  65.989  1.00  0.00    -0.127 A  
HETATM   21  C   UNL     1      -8.547  13.343  66.908  1.00  0.00    -0.114 A  
HETATM   22  C   UNL     1      -7.583  12.571  67.705  1.00  0.00    -0.145 C  
HETATM   23  C   UNL     1      -6.794  13.158  68.614  1.00  0.00    -0.099 C  
HETATM   24  C   UNL     1      -6.886  14.618  68.879  1.00  0.00    -0.104 C  
HETATM   25  N   UNL     1      -7.738  15.334  68.089  1.00  0.00    -0.114 N  
HETATM   26  O   UNL     1      -6.217  15.140  69.756  1.00  0.00    -0.127 OA 
HETATM   27  H   UNL     1      -7.790  16.343  68.227  1.00  0.00     0.000 HD 
HETATM   28  C   UNL     1      -8.550  14.757  67.090  1.00  0.00    -0.226 A  
HETATM   29  C   UNL     1      -9.386  15.569  66.319  1.00  0.00    -0.320 A  
HETATM   30  C   UNL     1     -10.219  14.998  65.370  1.00  0.00    -0.411 A  
HETATM   31  O   UNL     1      -9.425  16.932  66.433  1.00  0.00    -0.258 OA 
HETATM   32  C   UNL     1     -10.241  13.608  65.202  1.00  0.00    -0.349 A  
HETATM   33  H   UNL     1      -9.994  17.484  65.909  1.00  0.00     0.000 HD 
ENDBRANCH  17  20
ENDBRANCH  16  17
ENDBRANCH  14  16
ENDBRANCH  10  14
ENDBRANCH   2   3
TORSDOF 6
ENDMDL
MODEL      253
REMARK 921   NORMALIZED FREE ENERGY PREDICTED BY IDOCK:   -4.28 KCAL/MOL
REMARK 922        TOTAL FREE ENERGY PREDICTED BY IDOCK:   -7.06 KCAL/MOL
REMARK 923 INTER-LIGAND FREE ENERGY PREDICTED BY IDOCK:   -6.59 KCAL/MOL
REMARK 924 INTRA-LIGAND FREE ENERGY PREDICTED BY IDOCK:   -0.47 KCAL/MOL
REMARK 927      BINDING AFFINITY PREDICTED BY RF-SCORE:    0.00 PKD
ROOT
HETATM    1  C   UNL     1     -10.262  18.645  67.913  1.00  0.00    -0.433 C  
HETATM    2  C   UNL     1      -9.538  17.951  66.771  1.00  0.00    -0.305 C  
ENDROOT
BRANCH   2   3
HETATM    3  C   UNL     1     -10.000  16.569  66.350  1.00  0.00    -0.318 A  
HETATM    4  C   UNL     1      -9.234  15.457  66.808  1.00  0.00    -0.273 A  
HETATM    5  C   UNL     1      -9.803  14.183  66.795  1.00  0.00    -0.275 A  
HETATM    6  C   UNL     1     -11.061  16.321  65.455  1.00  0.00    -0.090 A  
HETATM    7  C   UNL     1     -11.387  14.995  65.187  1.00  0.00    -0.372 A  
HETATM    8  C   UNL     1     -10.933  13.980  66.032  1.00  0.00    -0.298 A  
HETATM    9  C   UNL     1     -11.355  12.644  65.510  1.00  0.00    -0.356 C  
HETATM   10  C   UNL     1     -11.009  12.952  64.043  1.00  0.00    -0.411 C  
HETATM   11  C   UNL     1     -11.799  14.328  63.861  1.00  0.00    -0.153 C  
BRANCH   4  12
HETATM   12  C   UNL     1      -7.748  15.635  67.073  1.00  0.00    -0.257 C  
HETATM   13  C   UNL     1      -7.284  15.481  68.522  1.00  0.00    -0.119 C  
ENDBRANCH   4  12
BRANCH  10  14
HETATM   14  N   UNL     1     -11.086  11.787  63.139  1.00  0.00    -0.691 NA 
HETATM   15  H   UNL     1     -10.708  11.989  62.214  1.00  0.00     0.000 HD 
BRANCH  14  16
HETATM   16  C   UNL     1     -10.407  10.602  63.788  1.00  0.00    -0.113 C  
BRANCH  16  17
HETATM   17  C   UNL     1      -8.857  10.657  63.874  1.00  0.00    -0.163 C  
HETATM   18  H   UNL     1      -7.390  10.537  62.594  1.00  0.00     0.000 HD 
HETATM   19  O   UNL     1      -8.338  10.504  62.541  1.00  0.00    -0.163 OA 
BRANCH  17  20
HETATM   20  C   UNL     1      -8.216   9.614  64.811  1.00  0.00    -0.142 A  
HETATM   21  C   UNL     1      -8.793   9.235  66.047  1.00  0.00    -0.191 A  
HETATM   22  C   UNL     1     -10.141   9.651  66.461  1.00  0.00    -0.314 C  
HETATM   23  C   UNL     1     -10.636   9.332  67.664  1.00  0.00    -0.324 C  
HETATM   24  C   UNL     1      -9.825   8.568  68.647  1.00  0.00    -0.170 C  
HETATM   25  N   UNL     1      -8.600   8.132  68.229  1.00  0.00    -0.130 N  
HETATM   26  O   UNL     1     -10.249   8.338  69.767  1.00  0.00    -0.194 OA 
HETATM   27  H   UNL     1      -8.042   7.574  68.874  1.00  0.00     0.000 HD 
HETATM   28  C   UNL     1      -8.066   8.409  66.953  1.00  0.00    -0.099 A  
HETATM   29  C   UNL     1      -6.807   7.912  66.604  1.00  0.00    -0.071 A  
HETATM   30  C   UNL     1      -6.260   8.222  65.370  1.00  0.00    -0.045 A  
HETATM   31  O   UNL     1      -6.065   7.102  67.421  1.00  0.00    -0.034 OA 
HETATM   32  C   UNL     1      -6.956   9.054  64.483  1.00  0.00    -0.089 A  
HETATM   33  H   UNL     1      -5.210   6.764  67.184  1.00  0.00     0.000 HD 
ENDBRANCH  17  20
ENDBRANCH  16  17
ENDBRANCH  14  16
ENDBRANCH  10  14
ENDBRANCH   2   3
TORSDOF 6
ENDMDL
MODEL      254
REMARK 921   NORMALIZED FREE ENERGY PREDICTED BY IDOCK:   -4.28 KCAL/MOL
REMARK 922        TOTAL FREE ENERGY PREDICTED BY IDOCK:   -7.06 KCAL/MOL
REMARK 923 INTER-LIGAND FREE ENERGY PREDICTED BY IDOCK:   -6.60 KCAL/MOL
REMARK 924 INTRA-LIGAND FREE ENERGY PREDICTED BY IDOCK:   -0.46 KCAL/MOL
REMARK 927      BINDING AFFINITY PREDICTED BY RF-SCORE:    0.00 PKD
ROOT
HETATM    1  C   UNL     1      -6.519   7.496  71.756  1.00  0.00    -0.042 C  
HETATM    2  C   UNL     1      -6.001   7.728  70.346  1.00  0.00    -0.030 C  
ENDROOT
BRANCH   2   3
HETATM    3  C   UNL     1      -6.962   8.244  69.292  1.00  0.00    -0.058 A  
HETATM    4  C   UNL     1      -7.233   7.389  68.184  1.00  0.00    -0.090 A  
HETATM    5  C   UNL     1      -8.370   7.618  67.407  1.00  0.00    -0.116 A  
HETATM    6  C   UNL     1      -7.512   9.542  69.282  1.00  0.00    -0.078 A  
HETATM    7  C   UNL     1      -8.404   9.859  68.262  1.00  0.00    -0.110 A  
HETATM    8  C   UNL     1      -8.995   8.842  67.510  1.00  0.00    -0.142 A  
HETATM    9  C   UNL     1      -9.862   9.426  66.440  1.00  0.00    -0.337 C  
HETATM   10  C   UNL     1      -8.859  10.517  66.029  1.00  0.00    -0.165 C  
HETATM   11  C   UNL     1      -8.562  11.164  67.459  1.00  0.00    -0.129 C  
BRANCH   4  12
HETATM   12  C   UNL     1      -6.170   6.405  67.723  1.00  0.00    -0.025 C  
HETATM   13  C   UNL     1      -5.187   6.901  66.663  1.00  0.00    -0.017 C  
ENDBRANCH   4  12
BRANCH  10  14
HETATM   14  N   UNL     1      -9.230  11.260  64.807  1.00  0.00    -0.369 NA 
HETATM   15  H   UNL     1      -8.673  10.979  64.001  1.00  0.00     0.000 HD 
BRANCH  14  16
HETATM   16  C   UNL     1     -10.713  11.106  64.558  1.00  0.00    -0.297 C  
BRANCH  16  17
HETATM   17  C   UNL     1     -11.588  12.367  64.803  1.00  0.00    -0.341 C  
HETATM   18  H   UNL     1     -11.715  14.145  64.010  1.00  0.00     0.000 HD 
HETATM   19  O   UNL     1     -11.180  13.374  63.861  1.00  0.00    -0.344 OA 
BRANCH  17  20
HETATM   20  C   UNL     1     -11.533  12.934  66.236  1.00  0.00    -0.395 A  
HETATM   21  C   UNL     1     -11.102  14.252  66.523  1.00  0.00    -0.323 A  
HETATM   22  C   UNL     1     -10.854  15.257  65.480  1.00  0.00    -0.382 C  
HETATM   23  C   UNL     1     -10.385  16.476  65.777  1.00  0.00    -0.359 C  
HETATM   24  C   UNL     1     -10.061  16.852  67.178  1.00  0.00    -0.287 C  
HETATM   25  N   UNL     1     -10.356  15.933  68.145  1.00  0.00    -0.249 N  
HETATM   26  O   UNL     1      -9.568  17.936  67.440  1.00  0.00    -0.264 OA 
HETATM   27  H   UNL     1     -10.177  16.184  69.118  1.00  0.00     0.000 HD 
HETATM   28  C   UNL     1     -10.893  14.658  67.874  1.00  0.00    -0.259 A  
HETATM   29  C   UNL     1     -11.175  13.784  68.927  1.00  0.00    -0.272 A  
HETATM   30  C   UNL     1     -11.660  12.514  68.661  1.00  0.00    -0.357 A  
HETATM   31  O   UNL     1     -11.013  14.117  70.245  1.00  0.00    -0.465 OA 
HETATM   32  C   UNL     1     -11.843  12.097  67.336  1.00  0.00    -0.297 A  
HETATM   33  H   UNL     1     -11.204  13.523  70.961  1.00  0.00     0.000 HD 
ENDBRANCH  17  20
ENDBRANCH  16  17
ENDBRANCH  14  16
ENDBRANCH  10  14
ENDBRANCH   2   3
TORSDOF 6
ENDMDL
MODEL      255
REMARK 921   NORMALIZED FREE ENERGY PREDICTED BY IDOCK:   -4.28 KCAL/MOL
REMARK 922        TOTAL FREE ENERGY PREDICTED BY IDOCK:   -7.06 KCAL/MOL
REMARK 923 INTER-LIGAND FREE ENERGY PREDICTED BY IDOCK:   -6.16 KCAL/MOL
REMARK 924 INTRA-LIGAND FREE ENERGY PREDICTED BY IDOCK:   -0.90 KCAL/MOL
REMARK 927      BINDING AFFINITY PREDICTED BY RF-SCORE:    0.00 PKD
ROOT
HETATM    1  C   UNL     1      -9.205   2.828  65.054  1.00  0.00    -0.145 C  
HETATM    2  C   UNL     1      -9.505   3.837  66.150  1.00  0.00    -0.184 C  
ENDROOT
BRANCH   2   3
HETATM    3  C   UNL     1      -8.740   5.147  66.164  1.00  0.00    -0.123 A  
HETATM    4  C   UNL     1      -8.170   5.557  67.404  1.00  0.00    -0.101 A  
HETATM    5  C   UNL     1      -7.153   6.512  67.407  1.00  0.00    -0.080 A  
HETATM    6  C   UNL     1      -8.650   6.029  65.067  1.00  0.00    -0.043 A  
HETATM    7  C   UNL     1      -7.885   7.181  65.224  1.00  0.00    -0.121 A  
HETATM    8  C   UNL     1      -6.970   7.274  66.274  1.00  0.00    -0.066 A  
HETATM    9  C   UNL     1      -6.316   8.620  66.273  1.00  0.00    -0.061 C  
HETATM   10  C   UNL     1      -7.612   9.404  66.005  1.00  0.00    -0.099 C  
HETATM   11  C   UNL     1      -8.146   8.614  64.723  1.00  0.00    -0.149 C  
BRANCH   4  12
HETATM   12  C   UNL     1      -8.835   5.135  68.705  1.00  0.00    -0.106 C  
HETATM   13  C   UNL     1     -10.236   5.687  68.972  1.00  0.00    -0.291 C  
ENDBRANCH   4  12
BRANCH  10  14
HETATM   14  N   UNL     1      -7.474  10.870  66.119  1.00  0.00    -0.223 NA 
HETATM   15  H   UNL     1      -6.854  11.256  65.407  1.00  0.00     0.000 HD 
BRANCH  14  16
HETATM   16  C   UNL     1      -8.844  11.507  66.089  1.00  0.00    -0.167 C  
BRANCH  16  17
HETATM   17  C   UNL     1      -9.918  10.878  67.019  1.00  0.00    -0.192 C  
HETATM   18  H   UNL     1     -11.537   9.823  66.757  1.00  0.00     0.000 HD 
HETATM   19  O   UNL     1     -10.880  10.207  66.188  1.00  0.00    -0.014 OA 
BRANCH  17  20
HETATM   20  C   UNL     1     -10.635  11.872  67.956  1.00  0.00    -0.234 A  
HETATM   21  C   UNL     1     -11.291  11.470  69.144  1.00  0.00    -0.351 A  
HETATM   22  C   UNL     1     -11.188  10.111  69.693  1.00  0.00    -0.310 C  
HETATM   23  C   UNL     1     -11.873   9.741  70.784  1.00  0.00    -0.400 C  
HETATM   24  C   UNL     1     -12.795  10.685  71.466  1.00  0.00    -0.462 C  
HETATM   25  N   UNL     1     -12.834  11.963  70.986  1.00  0.00    -0.258 N  
HETATM   26  O   UNL     1     -13.471  10.326  72.416  1.00  0.00    -0.310 OA 
HETATM   27  H   UNL     1     -13.432  12.638  71.461  1.00  0.00     0.000 HD 
HETATM   28  C   UNL     1     -12.093  12.400  69.869  1.00  0.00    -0.247 A  
HETATM   29  C   UNL     1     -12.184  13.731  69.452  1.00  0.00    -0.278 A  
HETATM   30  C   UNL     1     -11.493  14.152  68.327  1.00  0.00    -0.335 A  
HETATM   31  O   UNL     1     -12.922  14.677  70.112  1.00  0.00    -0.563 OA 
HETATM   32  C   UNL     1     -10.724  13.239  67.594  1.00  0.00    -0.250 A  
HETATM   33  H   UNL     1     -12.985  15.581  69.828  1.00  0.00     0.000 HD 
ENDBRANCH  17  20
ENDBRANCH  16  17
ENDBRANCH  14  16
ENDBRANCH  10  14
ENDBRANCH   2   3
TORSDOF 6
ENDMDL
MODEL      256
REMARK 921   NORMALIZED FREE ENERGY PREDICTED BY IDOCK:   -4.28 KCAL/MOL
REMARK 922        TOTAL FREE ENERGY PREDICTED BY IDOCK:   -7.06 KCAL/MOL
REMARK 923 INTER-LIGAND FREE ENERGY PREDICTED BY IDOCK:   -6.43 KCAL/MOL
REMARK 924 INTRA-LIGAND FREE ENERGY PREDICTED BY IDOCK:   -0.63 KCAL/MOL
REMARK 927      BINDING AFFINITY PREDICTED BY RF-SCORE:    0.00 PKD
ROOT
HETATM    1  C   UNL     1     -10.745  19.971  65.521  1.00  0.00    -0.259 C  
HETATM    2  C   UNL     1      -9.500  19.409  66.187  1.00  0.00    -0.361 C  
ENDROOT
BRANCH   2   3
HETATM    3  C   UNL     1      -9.553  18.009  66.769  1.00  0.00    -0.303 A  
HETATM    4  C   UNL     1      -8.752  17.750  67.918  1.00  0.00    -0.251 A  
HETATM    5  C   UNL     1      -9.042  16.644  68.718  1.00  0.00    -0.256 A  
HETATM    6  C   UNL     1     -10.251  16.931  66.187  1.00  0.00    -0.352 A  
HETATM    7  C   UNL     1     -10.230  15.711  66.856  1.00  0.00    -0.281 A  
HETATM    8  C   UNL     1      -9.850  15.656  68.198  1.00  0.00    -0.212 A  
HETATM    9  C   UNL     1      -9.846  14.239  68.678  1.00  0.00    -0.228 C  
HETATM   10  C   UNL     1      -9.164  13.669  67.422  1.00  0.00    -0.222 C  
HETATM   11  C   UNL     1     -10.117  14.280  66.296  1.00  0.00    -0.308 C  
BRANCH   4  12
HETATM   12  C   UNL     1      -7.463  18.530  68.120  1.00  0.00    -0.284 C  
HETATM   13  C   UNL     1      -7.490  19.644  69.167  1.00  0.00    -0.310 C  
ENDBRANCH   4  12
BRANCH  10  14
HETATM   14  N   UNL     1      -8.761  12.253  67.536  1.00  0.00    -0.167 NA 
HETATM   15  H   UNL     1      -7.758  12.147  67.682  1.00  0.00     0.000 HD 
BRANCH  14  16
HETATM   16  C   UNL     1      -9.570  11.587  68.625  1.00  0.00    -0.152 C  
BRANCH  16  17
HETATM   17  C   UNL     1      -9.620  10.034  68.598  1.00  0.00    -0.155 C  
HETATM   18  H   UNL     1     -10.775   8.696  67.773  1.00  0.00     0.000 HD 
HETATM   19  O   UNL     1     -10.744   9.645  67.790  1.00  0.00    -0.258 OA 
BRANCH  17  20
HETATM   20  C   UNL     1      -9.707   9.358  69.981  1.00  0.00    -0.255 A  
HETATM   21  C   UNL     1      -8.589   8.771  70.621  1.00  0.00    -0.203 A  
HETATM   22  C   UNL     1      -7.214   8.920  70.123  1.00  0.00    -0.057 C  
HETATM   23  C   UNL     1      -6.183   8.301  70.712  1.00  0.00    -0.033 C  
HETATM   24  C   UNL     1      -6.393   7.405  71.879  1.00  0.00    -0.039 C  
HETATM   25  N   UNL     1      -7.664   7.325  72.372  1.00  0.00    -0.087 N  
HETATM   26  O   UNL     1      -5.464   6.787  72.371  1.00  0.00    -0.036 OA 
HETATM   27  H   UNL     1      -7.825   6.746  73.196  1.00  0.00     0.000 HD 
HETATM   28  C   UNL     1      -8.766   7.999  71.807  1.00  0.00    -0.137 A  
HETATM   29  C   UNL     1     -10.031   7.870  72.384  1.00  0.00    -0.229 A  
HETATM   30  C   UNL     1     -11.124   8.494  71.803  1.00  0.00    -0.378 A  
HETATM   31  O   UNL     1     -10.266   7.158  73.530  1.00  0.00    -0.279 OA 
HETATM   32  C   UNL     1     -10.964   9.232  70.624  1.00  0.00    -0.336 A  
HETATM   33  H   UNL     1     -11.127   7.069  73.922  1.00  0.00     0.000 HD 
ENDBRANCH  17  20
ENDBRANCH  16  17
ENDBRANCH  14  16
ENDBRANCH  10  14
ENDBRANCH   2   3
TORSDOF 6
ENDMDL
MODEL      257
REMARK 921   NORMALIZED FREE ENERGY PREDICTED BY IDOCK:   -4.28 KCAL/MOL
REMARK 922        TOTAL FREE ENERGY PREDICTED BY IDOCK:   -7.05 KCAL/MOL
REMARK 923 INTER-LIGAND FREE ENERGY PREDICTED BY IDOCK:   -6.04 KCAL/MOL
REMARK 924 INTRA-LIGAND FREE ENERGY PREDICTED BY IDOCK:   -1.01 KCAL/MOL
REMARK 927      BINDING AFFINITY PREDICTED BY RF-SCORE:    0.00 PKD
ROOT
HETATM    1  C   UNL     1     -10.740   5.713  71.249  1.00  0.00    -0.312 C  
HETATM    2  C   UNL     1     -10.842   5.876  69.741  1.00  0.00    -0.447 C  
ENDROOT
BRANCH   2   3
HETATM    3  C   UNL     1     -10.134   7.047  69.085  1.00  0.00    -0.183 A  
HETATM    4  C   UNL     1      -9.207   6.748  68.046  1.00  0.00    -0.117 A  
HETATM    5  C   UNL     1      -8.829   7.755  67.156  1.00  0.00    -0.130 A  
HETATM    6  C   UNL     1     -10.253   8.387  69.507  1.00  0.00    -0.207 A  
HETATM    7  C   UNL     1      -9.563   9.355  68.785  1.00  0.00    -0.156 A  
HETATM    8  C   UNL     1      -9.081   9.063  67.507  1.00  0.00    -0.145 A  
HETATM    9  C   UNL     1      -8.326  10.232  66.958  1.00  0.00    -0.126 C  
HETATM   10  C   UNL     1      -7.573  10.536  68.264  1.00  0.00    -0.096 C  
HETATM   11  C   UNL     1      -8.804  10.602  69.279  1.00  0.00    -0.092 C  
BRANCH   4  12
HETATM   12  C   UNL     1      -8.466   5.420  68.066  1.00  0.00    -0.097 C  
HETATM   13  C   UNL     1      -8.511   4.588  66.785  1.00  0.00    -0.105 C  
ENDBRANCH   4  12
BRANCH  10  14
HETATM   14  N   UNL     1      -6.507  11.551  68.133  1.00  0.00    -0.052 NA 
HETATM   15  H   UNL     1      -5.631  11.151  67.801  1.00  0.00     0.000 HD 
BRANCH  14  16
HETATM   16  C   UNL     1      -6.993  12.676  67.247  1.00  0.00    -0.100 C  
BRANCH  16  17
HETATM   17  C   UNL     1      -7.155  14.066  67.922  1.00  0.00    -0.160 C  
HETATM   18  H   UNL     1      -6.588  14.865  69.609  1.00  0.00     0.000 HD 
HETATM   19  O   UNL     1      -6.489  14.015  69.196  1.00  0.00    -0.100 OA 
BRANCH  17  20
HETATM   20  C   UNL     1      -8.611  14.537  68.109  1.00  0.00    -0.169 A  
HETATM   21  C   UNL     1      -9.073  15.799  67.663  1.00  0.00    -0.193 A  
HETATM   22  C   UNL     1      -8.268  16.691  66.817  1.00  0.00    -0.274 C  
HETATM   23  C   UNL     1      -8.705  17.907  66.463  1.00  0.00    -0.278 C  
HETATM   24  C   UNL     1     -10.015  18.420  66.944  1.00  0.00    -0.353 C  
HETATM   25  N   UNL     1     -10.782  17.558  67.676  1.00  0.00    -0.345 N  
HETATM   26  O   UNL     1     -10.381  19.553  66.680  1.00  0.00    -0.393 OA 
HETATM   27  H   UNL     1     -11.700  17.876  67.985  1.00  0.00     0.000 HD 
HETATM   28  C   UNL     1     -10.374  16.255  68.028  1.00  0.00    -0.279 A  
HETATM   29  C   UNL     1     -11.229  15.436  68.771  1.00  0.00    -0.301 A  
HETATM   30  C   UNL     1     -10.812  14.173  69.157  1.00  0.00    -0.254 A  
HETATM   31  O   UNL     1     -12.494  15.807  69.139  1.00  0.00    -0.565 OA 
HETATM   32  C   UNL     1      -9.526  13.727  68.826  1.00  0.00    -0.015 A  
HETATM   33  H   UNL     1     -13.075  15.251  69.644  1.00  0.00     0.000 HD 
ENDBRANCH  17  20
ENDBRANCH  16  17
ENDBRANCH  14  16
ENDBRANCH  10  14
ENDBRANCH   2   3
TORSDOF 6
ENDMDL
MODEL      258
REMARK 921   NORMALIZED FREE ENERGY PREDICTED BY IDOCK:   -4.25 KCAL/MOL
REMARK 922        TOTAL FREE ENERGY PREDICTED BY IDOCK:   -7.02 KCAL/MOL
REMARK 923 INTER-LIGAND FREE ENERGY PREDICTED BY IDOCK:   -6.25 KCAL/MOL
REMARK 924 INTRA-LIGAND FREE ENERGY PREDICTED BY IDOCK:   -0.77 KCAL/MOL
REMARK 927      BINDING AFFINITY PREDICTED BY RF-SCORE:    0.00 PKD
ROOT
HETATM    1  C   UNL     1      -9.911  16.733  65.811  1.00  0.00    -0.209 C  
HETATM    2  C   UNL     1     -11.153  15.957  66.216  1.00  0.00    -0.014 C  
ENDROOT
BRANCH   2   3
HETATM    3  C   UNL     1     -11.039  14.460  66.431  1.00  0.00    -0.326 A  
HETATM    4  C   UNL     1     -10.722  14.012  67.747  1.00  0.00    -0.248 A  
HETATM    5  C   UNL     1     -10.984  12.687  68.100  1.00  0.00    -0.265 A  
HETATM    6  C   UNL     1     -11.117  13.499  65.402  1.00  0.00    -0.302 A  
HETATM    7  C   UNL     1     -11.023  12.158  65.761  1.00  0.00    -0.338 A  
HETATM    8  C   UNL     1     -11.208  11.775  67.091  1.00  0.00    -0.375 A  
HETATM    9  C   UNL     1     -10.999  10.302  67.240  1.00  0.00    -0.277 C  
HETATM   10  C   UNL     1      -9.745  10.249  66.351  1.00  0.00    -0.201 C  
HETATM   11  C   UNL     1     -10.302  10.995  65.053  1.00  0.00    -0.360 C  
BRANCH   4  12
HETATM   12  C   UNL     1      -9.893  14.903  68.658  1.00  0.00    -0.225 C  
HETATM   13  C   UNL     1     -10.544  15.340  69.971  1.00  0.00    -0.288 C  
ENDBRANCH   4  12
BRANCH  10  14
HETATM   14  N   UNL     1      -9.042   8.949  66.364  1.00  0.00    -0.162 NA 
HETATM   15  H   UNL     1      -8.219   8.962  66.966  1.00  0.00     0.000 HD 
BRANCH  14  16
HETATM   16  C   UNL     1     -10.014   7.857  66.746  1.00  0.00    -0.263 C  
BRANCH  16  17
HETATM   17  C   UNL     1      -9.444   6.696  67.608  1.00  0.00    -0.124 C  
HETATM   18  H   UNL     1      -9.301   4.761  67.412  1.00  0.00     0.000 HD 
HETATM   19  O   UNL     1      -9.650   5.470  66.884  1.00  0.00    -0.127 OA 
BRANCH  17  20
HETATM   20  C   UNL     1     -10.044   6.577  69.024  1.00  0.00    -0.186 A  
HETATM   21  C   UNL     1      -9.422   5.841  70.061  1.00  0.00    -0.193 A  
HETATM   22  C   UNL     1      -8.065   5.288  69.947  1.00  0.00    -0.084 C  
HETATM   23  C   UNL     1      -7.528   4.540  70.919  1.00  0.00    -0.052 C  
HETATM   24  C   UNL     1      -8.298   4.210  72.147  1.00  0.00    -0.102 C  
HETATM   25  N   UNL     1      -9.532   4.783  72.271  1.00  0.00    -0.134 N  
HETATM   26  O   UNL     1      -7.834   3.472  73.000  1.00  0.00    -0.064 OA 
HETATM   27  H   UNL     1     -10.064   4.600  73.122  1.00  0.00     0.000 HD 
HETATM   28  C   UNL     1     -10.111   5.612  71.288  1.00  0.00    -0.206 A  
HETATM   29  C   UNL     1     -11.376   6.166  71.504  1.00  0.00    -0.280 A  
HETATM   30  C   UNL     1     -11.967   6.943  70.521  1.00  0.00    -0.358 A  
HETATM   31  O   UNL     1     -12.083   5.998  72.664  1.00  0.00    -0.526 OA 
HETATM   32  C   UNL     1     -11.308   7.152  69.302  1.00  0.00     0.041 A  
HETATM   33  H   UNL     1     -12.943   6.374  72.811  1.00  0.00     0.000 HD 
ENDBRANCH  17  20
ENDBRANCH  16  17
ENDBRANCH  14  16
ENDBRANCH  10  14
ENDBRANCH   2   3
TORSDOF 6
ENDMDL
MODEL      259
REMARK 921   NORMALIZED FREE ENERGY PREDICTED BY IDOCK:   -4.25 KCAL/MOL
REMARK 922        TOTAL FREE ENERGY PREDICTED BY IDOCK:   -7.02 KCAL/MOL
REMARK 923 INTER-LIGAND FREE ENERGY PREDICTED BY IDOCK:   -7.02 KCAL/MOL
REMARK 924 INTRA-LIGAND FREE ENERGY PREDICTED BY IDOCK:   -0.00 KCAL/MOL
REMARK 927      BINDING AFFINITY PREDICTED BY RF-SCORE:    0.00 PKD
ROOT
HETATM    1  C   UNL     1      -8.577   2.805  70.827  1.00  0.00    -0.106 C  
HETATM    2  C   UNL     1      -9.864   3.588  70.622  1.00  0.00    -0.093 C  
ENDROOT
BRANCH   2   3
HETATM    3  C   UNL     1      -9.788   5.100  70.518  1.00  0.00    -0.285 A  
HETATM    4  C   UNL     1     -10.035   5.848  71.706  1.00  0.00    -0.200 A  
HETATM    5  C   UNL     1      -9.606   7.175  71.779  1.00  0.00    -0.161 A  
HETATM    6  C   UNL     1      -9.599   5.807  69.313  1.00  0.00    -0.176 A  
HETATM    7  C   UNL     1      -9.521   7.195  69.383  1.00  0.00    -0.153 A  
HETATM    8  C   UNL     1      -9.279   7.821  70.607  1.00  0.00    -0.161 A  
HETATM    9  C   UNL     1      -9.300   9.307  70.442  1.00  0.00    -0.295 C  
HETATM   10  C   UNL     1     -10.545   9.328  69.539  1.00  0.00    -0.224 C  
HETATM   11  C   UNL     1     -10.097   8.264  68.435  1.00  0.00    -0.227 C  
BRANCH   4  12
HETATM   12  C   UNL     1     -10.961   5.278  72.767  1.00  0.00    -0.331 C  
HETATM   13  C   UNL     1     -10.324   4.900  74.105  1.00  0.00    -0.307 C  
ENDBRANCH   4  12
BRANCH  10  14
HETATM   14  N   UNL     1     -11.080  10.679  69.268  1.00  0.00    -0.233 NA 
HETATM   15  H   UNL     1     -10.909  11.324  70.038  1.00  0.00     0.000 HD 
BRANCH  14  16
HETATM   16  C   UNL     1     -10.517  11.188  67.960  1.00  0.00    -0.188 C  
BRANCH  16  17
HETATM   17  C   UNL     1     -11.277  12.369  67.295  1.00  0.00    -0.303 C  
HETATM   18  H   UNL     1     -11.155  13.317  65.595  1.00  0.00     0.000 HD 
HETATM   19  O   UNL     1     -10.690  12.595  66.002  1.00  0.00    -0.262 OA 
BRANCH  17  20
HETATM   20  C   UNL     1     -11.283  13.682  68.105  1.00  0.00    -0.303 A  
HETATM   21  C   UNL     1     -10.277  14.669  67.974  1.00  0.00    -0.231 A  
HETATM   22  C   UNL     1      -9.248  14.628  66.926  1.00  0.00    -0.267 C  
HETATM   23  C   UNL     1      -8.269  15.541  66.865  1.00  0.00    -0.287 C  
HETATM   24  C   UNL     1      -8.165  16.620  67.882  1.00  0.00    -0.180 C  
HETATM   25  N   UNL     1      -9.162  16.687  68.813  1.00  0.00    -0.247 N  
HETATM   26  O   UNL     1      -7.235  17.408  67.867  1.00  0.00    -0.180 OA 
HETATM   27  H   UNL     1      -9.131  17.441  69.498  1.00  0.00     0.000 HD 
HETATM   28  C   UNL     1     -10.233  15.771  68.879  1.00  0.00    -0.219 A  
HETATM   29  C   UNL     1     -11.217  15.922  69.859  1.00  0.00    -0.348 A  
HETATM   30  C   UNL     1     -12.244  14.996  69.955  1.00  0.00    -0.351 A  
HETATM   31  O   UNL     1     -11.242  16.964  70.746  1.00  0.00    -0.392 OA 
HETATM   32  C   UNL     1     -12.281  13.897  69.087  1.00  0.00    -0.305 A  
HETATM   33  H   UNL     1     -11.911  17.066  71.413  1.00  0.00     0.000 HD 
ENDBRANCH  17  20
ENDBRANCH  16  17
ENDBRANCH  14  16
ENDBRANCH  10  14
ENDBRANCH   2   3
TORSDOF 6
ENDMDL
MODEL      260
REMARK 921   NORMALIZED FREE ENERGY PREDICTED BY IDOCK:   -4.24 KCAL/MOL
REMARK 922        TOTAL FREE ENERGY PREDICTED BY IDOCK:   -7.01 KCAL/MOL
REMARK 923 INTER-LIGAND FREE ENERGY PREDICTED BY IDOCK:   -5.89 KCAL/MOL
REMARK 924 INTRA-LIGAND FREE ENERGY PREDICTED BY IDOCK:   -1.12 KCAL/MOL
REMARK 927      BINDING AFFINITY PREDICTED BY RF-SCORE:    0.00 PKD
ROOT
HETATM    1  C   UNL     1      -8.306   5.393  67.016  1.00  0.00    -0.107 C  
HETATM    2  C   UNL     1      -7.382   6.387  67.699  1.00  0.00    -0.088 C  
ENDROOT
BRANCH   2   3
HETATM    3  C   UNL     1      -7.885   7.795  67.952  1.00  0.00    -0.127 A  
HETATM    4  C   UNL     1      -7.814   8.283  69.289  1.00  0.00    -0.108 A  
HETATM    5  C   UNL     1      -7.884   9.658  69.520  1.00  0.00    -0.117 A  
HETATM    6  C   UNL     1      -8.511   8.604  66.981  1.00  0.00    -0.110 A  
HETATM    7  C   UNL     1      -8.893   9.888  67.356  1.00  0.00    -0.137 A  
HETATM    8  C   UNL     1      -8.360  10.466  68.511  1.00  0.00    -0.124 A  
HETATM    9  C   UNL     1      -8.962  11.816  68.739  1.00  0.00     0.015 C  
HETATM   10  C   UNL     1     -10.401  11.383  68.412  1.00  0.00    -0.195 C  
HETATM   11  C   UNL     1     -10.159  10.687  66.995  1.00  0.00    -0.255 C  
BRANCH   4  12
HETATM   12  C   UNL     1      -7.908   7.301  70.446  1.00  0.00    -0.099 C  
HETATM   13  C   UNL     1      -9.278   7.148  71.108  1.00  0.00    -0.157 C  
ENDBRANCH   4  12
BRANCH  10  14
HETATM   14  N   UNL     1     -11.428  12.403  68.708  1.00  0.00    -0.279 NA 
HETATM   15  H   UNL     1     -12.032  12.130  69.483  1.00  0.00     0.000 HD 
BRANCH  14  16
HETATM   16  C   UNL     1     -10.756  13.735  68.951  1.00  0.00    -0.227 C  
BRANCH  16  17
HETATM   17  C   UNL     1     -10.929  14.808  67.840  1.00  0.00    -0.278 C  
HETATM   18  H   UNL     1     -11.521  14.800  65.982  1.00  0.00     0.000 HD 
HETATM   19  O   UNL     1     -11.415  14.144  66.661  1.00  0.00    -0.337 OA 
BRANCH  17  20
HETATM   20  C   UNL     1      -9.658  15.613  67.504  1.00  0.00    -0.224 A  
HETATM   21  C   UNL     1      -9.644  17.027  67.418  1.00  0.00    -0.246 A  
HETATM   22  C   UNL     1     -10.781  17.863  67.827  1.00  0.00    -0.339 C  
HETATM   23  C   UNL     1     -10.765  19.194  67.674  1.00  0.00    -0.514 C  
HETATM   24  C   UNL     1      -9.603  19.879  67.050  1.00  0.00    -0.388 C  
HETATM   25  N   UNL     1      -8.527  19.100  66.733  1.00  0.00    -0.290 N  
HETATM   26  O   UNL     1      -9.618  21.081  66.847  1.00  0.00    -0.211 OA 
HETATM   27  H   UNL     1      -7.704  19.554  66.338  1.00  0.00     0.000 HD 
HETATM   28  C   UNL     1      -8.491  17.702  66.923  1.00  0.00    -0.241 A  
HETATM   29  C   UNL     1      -7.342  16.985  66.582  1.00  0.00    -0.261 A  
HETATM   30  C   UNL     1      -7.320  15.606  66.723  1.00  0.00     0.010 A  
HETATM   31  O   UNL     1      -6.197  17.573  66.117  1.00  0.00    -0.211 OA 
HETATM   32  C   UNL     1      -8.458  14.931  67.184  1.00  0.00    -0.244 A  
HETATM   33  H   UNL     1      -5.416  17.086  65.884  1.00  0.00     0.000 HD 
ENDBRANCH  17  20
ENDBRANCH  16  17
ENDBRANCH  14  16
ENDBRANCH  10  14
ENDBRANCH   2   3
TORSDOF 6
ENDMDL
MODEL      261
REMARK 921   NORMALIZED FREE ENERGY PREDICTED BY IDOCK:   -4.24 KCAL/MOL
REMARK 922        TOTAL FREE ENERGY PREDICTED BY IDOCK:   -7.01 KCAL/MOL
REMARK 923 INTER-LIGAND FREE ENERGY PREDICTED BY IDOCK:   -7.07 KCAL/MOL
REMARK 924 INTRA-LIGAND FREE ENERGY PREDICTED BY IDOCK:    0.06 KCAL/MOL
REMARK 927      BINDING AFFINITY PREDICTED BY RF-SCORE:    0.00 PKD
ROOT
HETATM    1  C   UNL     1      -5.751   4.235  65.280  1.00  0.00    -0.018 C  
HETATM    2  C   UNL     1      -7.157   4.752  65.020  1.00  0.00    -0.063 C  
ENDROOT
BRANCH   2   3
HETATM    3  C   UNL     1      -7.819   5.624  66.070  1.00  0.00    -0.100 A  
HETATM    4  C   UNL     1      -8.793   5.007  66.908  1.00  0.00    -0.106 A  
HETATM    5  C   UNL     1      -9.143   5.618  68.114  1.00  0.00    -0.111 A  
HETATM    6  C   UNL     1      -7.614   7.013  66.198  1.00  0.00    -0.095 A  
HETATM    7  C   UNL     1      -8.272   7.671  67.232  1.00  0.00    -0.119 A  
HETATM    8  C   UNL     1      -8.808   6.942  68.296  1.00  0.00    -0.122 A  
HETATM    9  C   UNL     1      -9.514   7.856  69.246  1.00  0.00    -0.152 C  
HETATM   10  C   UNL     1     -10.209   8.684  68.152  1.00  0.00    -0.205 C  
HETATM   11  C   UNL     1      -8.945   9.057  67.250  1.00  0.00    -0.139 C  
BRANCH   4  12
HETATM   12  C   UNL     1      -9.605   3.839  66.373  1.00  0.00    -0.179 C  
HETATM   13  C   UNL     1     -10.610   4.150  65.264  1.00  0.00    -0.112 C  
ENDBRANCH   4  12
BRANCH  10  14
HETATM   14  N   UNL     1     -11.220   9.636  68.655  1.00  0.00    -0.482 NA 
HETATM   15  H   UNL     1     -11.187   9.734  69.670  1.00  0.00     0.000 HD 
BRANCH  14  16
HETATM   16  C   UNL     1     -11.056  10.962  67.949  1.00  0.00    -0.302 C  
BRANCH  16  17
HETATM   17  C   UNL     1     -10.881  12.212  68.856  1.00  0.00    -0.200 C  
HETATM   18  H   UNL     1     -11.869  12.998  70.342  1.00  0.00     0.000 HD 
HETATM   19  O   UNL     1     -11.976  12.234  69.788  1.00  0.00    -0.314 OA 
BRANCH  17  20
HETATM   20  C   UNL     1     -10.800  13.558  68.107  1.00  0.00    -0.271 A  
HETATM   21  C   UNL     1     -11.343  13.750  66.814  1.00  0.00    -0.345 A  
HETATM   22  C   UNL     1     -12.195  12.755  66.148  1.00  0.00    -0.340 C  
HETATM   23  C   UNL     1     -12.641  12.936  64.898  1.00  0.00    -0.525 C  
HETATM   24  C   UNL     1     -12.262  14.143  64.117  1.00  0.00    -0.390 C  
HETATM   25  N   UNL     1     -11.524  15.090  64.767  1.00  0.00    -0.480 N  
HETATM   26  O   UNL     1     -12.611  14.274  62.955  1.00  0.00    -0.415 OA 
HETATM   27  H   UNL     1     -11.284  15.943  64.263  1.00  0.00     0.000 HD 
HETATM   28  C   UNL     1     -11.076  14.954  66.098  1.00  0.00    -0.335 A  
HETATM   29  C   UNL     1     -10.334  15.980  66.689  1.00  0.00    -0.298 A  
HETATM   30  C   UNL     1      -9.853  15.829  67.980  1.00  0.00    -0.217 A  
HETATM   31  O   UNL     1     -10.057  17.165  66.063  1.00  0.00    -0.395 OA 
HETATM   32  C   UNL     1     -10.088  14.640  68.681  1.00  0.00    -0.238 A  
HETATM   33  H   UNL     1      -9.552  17.862  66.465  1.00  0.00     0.000 HD 
ENDBRANCH  17  20
ENDBRANCH  16  17
ENDBRANCH  14  16
ENDBRANCH  10  14
ENDBRANCH   2   3
TORSDOF 6
ENDMDL
MODEL      262
REMARK 921   NORMALIZED FREE ENERGY PREDICTED BY IDOCK:   -4.23 KCAL/MOL
REMARK 922        TOTAL FREE ENERGY PREDICTED BY IDOCK:   -6.99 KCAL/MOL
REMARK 923 INTER-LIGAND FREE ENERGY PREDICTED BY IDOCK:   -5.60 KCAL/MOL
REMARK 924 INTRA-LIGAND FREE ENERGY PREDICTED BY IDOCK:   -1.39 KCAL/MOL
REMARK 927      BINDING AFFINITY PREDICTED BY RF-SCORE:    0.00 PKD
ROOT
HETATM    1  C   UNL     1      -7.400   8.184  70.823  1.00  0.00    -0.058 C  
HETATM    2  C   UNL     1      -6.546   9.088  69.949  1.00  0.00    -0.042 C  
ENDROOT
BRANCH   2   3
HETATM    3  C   UNL     1      -7.045   9.444  68.562  1.00  0.00    -0.071 A  
HETATM    4  C   UNL     1      -7.002  10.818  68.186  1.00  0.00    -0.072 A  
HETATM    5  C   UNL     1      -7.067  11.160  66.834  1.00  0.00    -0.131 A  
HETATM    6  C   UNL     1      -7.642   8.529  67.670  1.00  0.00    -0.098 A  
HETATM    7  C   UNL     1      -8.024   9.000  66.418  1.00  0.00    -0.103 A  
HETATM    8  C   UNL     1      -7.514  10.210  65.942  1.00  0.00    -0.125 A  
HETATM    9  C   UNL     1      -8.111  10.535  64.610  1.00  0.00    -0.064 C  
HETATM   10  C   UNL     1      -9.545  10.141  65.002  1.00  0.00    -0.299 C  
HETATM   11  C   UNL     1      -9.276   8.678  65.581  1.00  0.00    -0.204 C  
BRANCH   4  12
HETATM   12  C   UNL     1      -7.130  11.888  69.259  1.00  0.00    -0.004 C  
HETATM   13  C   UNL     1      -6.064  12.984  69.267  1.00  0.00    -0.098 C  
ENDBRANCH   4  12
BRANCH  10  14
HETATM   14  N   UNL     1     -10.572  10.497  64.000  1.00  0.00    -0.336 NA 
HETATM   15  H   UNL     1     -11.053   9.677  63.633  1.00  0.00     0.000 HD 
BRANCH  14  16
HETATM   16  C   UNL     1     -11.530  11.502  64.599  1.00  0.00    -0.098 C  
BRANCH  16  17
HETATM   17  C   UNL     1     -11.022  12.967  64.694  1.00  0.00    -0.342 C  
HETATM   18  H   UNL     1      -9.740  14.060  63.711  1.00  0.00     0.000 HD 
HETATM   19  O   UNL     1     -10.051  13.164  63.652  1.00  0.00    -0.154 OA 
BRANCH  17  20
HETATM   20  C   UNL     1     -10.419  13.363  66.057  1.00  0.00    -0.294 A  
HETATM   21  C   UNL     1     -10.829  12.775  67.278  1.00  0.00    -0.277 A  
HETATM   22  C   UNL     1     -11.719  11.607  67.344  1.00  0.00    -0.278 C  
HETATM   23  C   UNL     1     -12.142  11.112  68.514  1.00  0.00    -0.129 C  
HETATM   24  C   UNL     1     -11.754  11.747  69.800  1.00  0.00    -0.335 C  
HETATM   25  N   UNL     1     -10.875  12.791  69.730  1.00  0.00    -0.265 N  
HETATM   26  O   UNL     1     -12.195  11.339  70.861  1.00  0.00    -0.365 OA 
HETATM   27  H   UNL     1     -10.566  13.218  70.603  1.00  0.00     0.000 HD 
HETATM   28  C   UNL     1     -10.373  13.310  68.519  1.00  0.00    -0.239 A  
HETATM   29  C   UNL     1      -9.467  14.374  68.541  1.00  0.00    -0.212 A  
HETATM   30  C   UNL     1      -9.008  14.915  67.351  1.00  0.00    -0.198 A  
HETATM   31  O   UNL     1      -8.978  14.921  69.696  1.00  0.00    -0.433 OA 
HETATM   32  C   UNL     1      -9.470  14.413  66.128  1.00  0.00    -0.271 A  
HETATM   33  H   UNL     1      -8.363  15.645  69.712  1.00  0.00     0.000 HD 
ENDBRANCH  17  20
ENDBRANCH  16  17
ENDBRANCH  14  16
ENDBRANCH  10  14
ENDBRANCH   2   3
TORSDOF 6
ENDMDL
MODEL      263
REMARK 921   NORMALIZED FREE ENERGY PREDICTED BY IDOCK:   -4.23 KCAL/MOL
REMARK 922        TOTAL FREE ENERGY PREDICTED BY IDOCK:   -6.99 KCAL/MOL
REMARK 923 INTER-LIGAND FREE ENERGY PREDICTED BY IDOCK:   -6.89 KCAL/MOL
REMARK 924 INTRA-LIGAND FREE ENERGY PREDICTED BY IDOCK:   -0.10 KCAL/MOL
REMARK 927      BINDING AFFINITY PREDICTED BY RF-SCORE:    0.00 PKD
ROOT
HETATM    1  C   UNL     1      -9.869   6.389  70.618  1.00  0.00    -0.206 C  
HETATM    2  C   UNL     1     -11.017   6.926  69.780  1.00  0.00    -0.310 C  
ENDROOT
BRANCH   2   3
HETATM    3  C   UNL     1     -11.033   8.401  69.425  1.00  0.00    -0.016 A  
HETATM    4  C   UNL     1     -11.756   9.272  70.292  1.00  0.00    -0.088 A  
HETATM    5  C   UNL     1     -11.495  10.643  70.257  1.00  0.00    -0.422 A  
HETATM    6  C   UNL     1     -10.478   8.944  68.249  1.00  0.00    -0.243 A  
HETATM    7  C   UNL     1     -10.545  10.323  68.078  1.00  0.00    -0.272 A  
HETATM    8  C   UNL     1     -10.817  11.150  69.170  1.00  0.00    -0.284 A  
HETATM    9  C   UNL     1     -10.899  12.577  68.730  1.00  0.00    -0.276 C  
HETATM   10  C   UNL     1     -11.727  12.287  67.467  1.00  0.00    -0.332 C  
HETATM   11  C   UNL     1     -10.823  11.148  66.807  1.00  0.00    -0.322 C  
BRANCH   4  12
HETATM   12  C   UNL     1     -12.955   8.735  71.057  1.00  0.00    -0.002 C  
HETATM   13  C   UNL     1     -13.380   9.513  72.303  1.00  0.00    -0.526 C  
ENDBRANCH   4  12
BRANCH  10  14
HETATM   14  N   UNL     1     -12.236  13.491  66.779  1.00  0.00    -0.374 NA 
HETATM   15  H   UNL     1     -13.243  13.452  66.627  1.00  0.00     0.000 HD 
BRANCH  14  16
HETATM   16  C   UNL     1     -11.822  14.723  67.552  1.00  0.00    -0.301 C  
BRANCH  16  17
HETATM   17  C   UNL     1     -10.683  15.577  66.931  1.00  0.00    -0.317 C  
HETATM   18  H   UNL     1     -10.153  16.083  65.124  1.00  0.00     0.000 HD 
HETATM   19  O   UNL     1     -10.851  15.561  65.503  1.00  0.00    -0.337 OA 
BRANCH  17  20
HETATM   20  C   UNL     1      -9.254  15.127  67.298  1.00  0.00    -0.208 A  
HETATM   21  C   UNL     1      -8.267  16.020  67.779  1.00  0.00    -0.159 A  
HETATM   22  C   UNL     1      -8.563  17.410  68.156  1.00  0.00    -0.248 C  
HETATM   23  C   UNL     1      -7.597  18.252  68.546  1.00  0.00    -0.313 C  
HETATM   24  C   UNL     1      -6.175  17.823  68.583  1.00  0.00    -0.196 C  
HETATM   25  N   UNL     1      -5.920  16.513  68.293  1.00  0.00    -0.117 N  
HETATM   26  O   UNL     1      -5.289  18.610  68.871  1.00  0.00    -0.192 OA 
HETATM   27  H   UNL     1      -4.955  16.187  68.347  1.00  0.00     0.000 HD 
HETATM   28  C   UNL     1      -6.917  15.586  67.922  1.00  0.00    -0.140 A  
HETATM   29  C   UNL     1      -6.567  14.260  67.654  1.00  0.00    -0.153 A  
HETATM   30  C   UNL     1      -7.537  13.359  67.245  1.00  0.00    -0.076 A  
HETATM   31  O   UNL     1      -5.294  13.775  67.788  1.00  0.00    -0.224 OA 
HETATM   32  C   UNL     1      -8.862  13.783  67.076  1.00  0.00    -0.230 A  
HETATM   33  H   UNL     1      -5.056  12.874  67.605  1.00  0.00     0.000 HD 
ENDBRANCH  17  20
ENDBRANCH  16  17
ENDBRANCH  14  16
ENDBRANCH  10  14
ENDBRANCH   2   3
TORSDOF 6
ENDMDL
MODEL      264
REMARK 921   NORMALIZED FREE ENERGY PREDICTED BY IDOCK:   -4.21 KCAL/MOL
REMARK 922        TOTAL FREE ENERGY PREDICTED BY IDOCK:   -6.97 KCAL/MOL
REMARK 923 INTER-LIGAND FREE ENERGY PREDICTED BY IDOCK:   -6.35 KCAL/MOL
REMARK 924 INTRA-LIGAND FREE ENERGY PREDICTED BY IDOCK:   -0.62 KCAL/MOL
REMARK 927      BINDING AFFINITY PREDICTED BY RF-SCORE:    0.00 PKD
ROOT
HETATM    1  C   UNL     1      -6.354   3.276  73.828  1.00  0.00    -0.024 C  
HETATM    2  C   UNL     1      -7.866   3.164  73.932  1.00  0.00    -0.065 C  
ENDROOT
BRANCH   2   3
HETATM    3  C   UNL     1      -8.720   4.293  73.388  1.00  0.00    -0.092 A  
HETATM    4  C   UNL     1      -9.291   4.114  72.095  1.00  0.00    -0.178 A  
HETATM    5  C   UNL     1     -10.373   4.907  71.709  1.00  0.00    -0.249 A  
HETATM    6  C   UNL     1      -8.895   5.539  74.026  1.00  0.00    -0.119 A  
HETATM    7  C   UNL     1      -9.734   6.466  73.417  1.00  0.00    -0.177 A  
HETATM    8  C   UNL     1     -10.632   6.053  72.429  1.00  0.00    -0.254 A  
HETATM    9  C   UNL     1     -11.378   7.229  71.883  1.00  0.00    -0.288 C  
HETATM   10  C   UNL     1     -10.146   8.145  71.793  1.00  0.00    -0.205 C  
HETATM   11  C   UNL     1      -9.585   7.993  73.281  1.00  0.00    -0.322 C  
BRANCH   4  12
HETATM   12  C   UNL     1      -8.571   3.244  71.077  1.00  0.00    -0.112 C  
HETATM   13  C   UNL     1      -9.376   2.101  70.458  1.00  0.00    -0.192 C  
ENDBRANCH   4  12
BRANCH  10  14
HETATM   14  N   UNL     1     -10.384   9.421  71.087  1.00  0.00    -0.315 NA 
HETATM   15  H   UNL     1     -10.463  10.208  71.729  1.00  0.00     0.000 HD 
BRANCH  14  16
HETATM   16  C   UNL     1      -9.300   9.632  70.055  1.00  0.00    -0.241 C  
BRANCH  16  17
HETATM   17  C   UNL     1      -9.769  10.079  68.642  1.00  0.00    -0.159 C  
HETATM   18  H   UNL     1      -9.598   9.370  66.834  1.00  0.00     0.000 HD 
HETATM   19  O   UNL     1      -9.312   9.097  67.697  1.00  0.00    -0.134 OA 
BRANCH  17  20
HETATM   20  C   UNL     1      -9.299  11.483  68.211  1.00  0.00    -0.190 A  
HETATM   21  C   UNL     1     -10.051  12.312  67.344  1.00  0.00    -0.207 A  
HETATM   22  C   UNL     1     -11.427  11.998  66.932  1.00  0.00    -0.402 C  
HETATM   23  C   UNL     1     -12.091  12.766  66.060  1.00  0.00    -0.458 C  
HETATM   24  C   UNL     1     -11.449  13.956  65.443  1.00  0.00    -0.312 C  
HETATM   25  N   UNL     1     -10.195  14.275  65.881  1.00  0.00    -0.310 N  
HETATM   26  O   UNL     1     -12.029  14.615  64.597  1.00  0.00    -0.431 OA 
HETATM   27  H   UNL     1      -9.749  15.109  65.499  1.00  0.00     0.000 HD 
HETATM   28  C   UNL     1      -9.483  13.515  66.832  1.00  0.00    -0.258 A  
HETATM   29  C   UNL     1      -8.207  13.922  67.232  1.00  0.00    -0.161 A  
HETATM   30  C   UNL     1      -7.487  13.152  68.131  1.00  0.00    -0.131 A  
HETATM   31  O   UNL     1      -7.612  15.073  66.792  1.00  0.00    -0.266 OA 
HETATM   32  C   UNL     1      -8.027  11.955  68.619  1.00  0.00    -0.101 A  
HETATM   33  H   UNL     1      -6.744  15.349  67.063  1.00  0.00     0.000 HD 
ENDBRANCH  17  20
ENDBRANCH  16  17
ENDBRANCH  14  16
ENDBRANCH  10  14
ENDBRANCH   2   3
TORSDOF 6
ENDMDL
MODEL      265
REMARK 921   NORMALIZED FREE ENERGY PREDICTED BY IDOCK:   -4.21 KCAL/MOL
REMARK 922        TOTAL FREE ENERGY PREDICTED BY IDOCK:   -6.96 KCAL/MOL
REMARK 923 INTER-LIGAND FREE ENERGY PREDICTED BY IDOCK:   -6.44 KCAL/MOL
REMARK 924 INTRA-LIGAND FREE ENERGY PREDICTED BY IDOCK:   -0.53 KCAL/MOL
REMARK 927      BINDING AFFINITY PREDICTED BY RF-SCORE:    0.00 PKD
ROOT
HETATM    1  C   UNL     1     -10.594   8.995  68.763  1.00  0.00    -0.196 C  
HETATM    2  C   UNL     1     -10.121   9.643  67.473  1.00  0.00    -0.247 C  
ENDROOT
BRANCH   2   3
HETATM    3  C   UNL     1      -9.481  11.017  67.539  1.00  0.00    -0.175 A  
HETATM    4  C   UNL     1      -8.069  11.087  67.354  1.00  0.00    -0.122 A  
HETATM    5  C   UNL     1      -7.485  12.309  67.015  1.00  0.00    -0.063 A  
HETATM    6  C   UNL     1     -10.168  12.201  67.875  1.00  0.00    -0.203 A  
HETATM    7  C   UNL     1      -9.449  13.392  67.865  1.00  0.00    -0.216 A  
HETATM    8  C   UNL     1      -8.218  13.459  67.208  1.00  0.00    -0.162 A  
HETATM    9  C   UNL     1      -7.610  14.814  67.386  1.00  0.00    -0.228 C  
HETATM   10  C   UNL     1      -7.951  14.924  68.881  1.00  0.00    -0.163 C  
HETATM   11  C   UNL     1      -9.512  14.592  68.828  1.00  0.00    -0.183 C  
BRANCH   4  12
HETATM   12  C   UNL     1      -7.204   9.905  67.760  1.00  0.00    -0.088 C  
HETATM   13  C   UNL     1      -5.700  10.041  67.525  1.00  0.00    -0.045 C  
ENDBRANCH   4  12
BRANCH  10  14
HETATM   14  N   UNL     1      -7.339  16.083  69.564  1.00  0.00    -0.201 NA 
HETATM   15  H   UNL     1      -7.126  15.887  70.541  1.00  0.00     0.000 HD 
BRANCH  14  16
HETATM   16  C   UNL     1      -6.118  16.531  68.792  1.00  0.00    -0.135 C  
BRANCH  16  17
HETATM   17  C   UNL     1      -5.709  18.022  68.954  1.00  0.00    -0.193 C  
HETATM   18  H   UNL     1      -6.027  19.413  70.283  1.00  0.00     0.000 HD 
HETATM   19  O   UNL     1      -6.278  18.502  70.184  1.00  0.00    -0.162 OA 
BRANCH  17  20
HETATM   20  C   UNL     1      -6.122  18.943  67.789  1.00  0.00    -0.204 A  
HETATM   21  C   UNL     1      -7.474  19.223  67.473  1.00  0.00    -0.263 A  
HETATM   22  C   UNL     1      -8.595  18.822  68.335  1.00  0.00    -0.373 C  
HETATM   23  C   UNL     1      -9.867  19.043  67.980  1.00  0.00    -0.414 C  
HETATM   24  C   UNL     1     -10.200  19.675  66.677  1.00  0.00    -0.465 C  
HETATM   25  N   UNL     1      -9.150  20.101  65.914  1.00  0.00    -0.538 N  
HETATM   26  O   UNL     1     -11.359  19.812  66.323  1.00  0.00     0.012 OA 
HETATM   27  H   UNL     1      -9.356  20.571  65.032  1.00  0.00     0.000 HD 
HETATM   28  C   UNL     1      -7.799  19.928  66.277  1.00  0.00    -0.321 A  
HETATM   29  C   UNL     1      -6.787  20.406  65.440  1.00  0.00    -0.252 A  
HETATM   30  C   UNL     1      -5.459  20.196  65.772  1.00  0.00    -0.187 A  
HETATM   31  O   UNL     1      -7.031  21.103  64.288  1.00  0.00    -0.493 OA 
HETATM   32  C   UNL     1      -5.130  19.482  66.932  1.00  0.00    -0.158 A  
HETATM   33  H   UNL     1      -6.344  21.428  63.719  1.00  0.00     0.000 HD 
ENDBRANCH  17  20
ENDBRANCH  16  17
ENDBRANCH  14  16
ENDBRANCH  10  14
ENDBRANCH   2   3
TORSDOF 6
ENDMDL
MODEL      266
REMARK 921   NORMALIZED FREE ENERGY PREDICTED BY IDOCK:   -4.21 KCAL/MOL
REMARK 922        TOTAL FREE ENERGY PREDICTED BY IDOCK:   -6.96 KCAL/MOL
REMARK 923 INTER-LIGAND FREE ENERGY PREDICTED BY IDOCK:   -7.51 KCAL/MOL
REMARK 924 INTRA-LIGAND FREE ENERGY PREDICTED BY IDOCK:    0.54 KCAL/MOL
REMARK 927      BINDING AFFINITY PREDICTED BY RF-SCORE:    0.00 PKD
ROOT
HETATM    1  C   UNL     1      -8.487   7.091  66.616  1.00  0.00    -0.121 C  
HETATM    2  C   UNL     1      -9.810   7.718  66.207  1.00  0.00    -0.111 C  
ENDROOT
BRANCH   2   3
HETATM    3  C   UNL     1      -9.901   9.229  66.112  1.00  0.00    -0.363 A  
HETATM    4  C   UNL     1     -10.065   9.951  67.330  1.00  0.00    -0.254 A  
HETATM    5  C   UNL     1      -9.766  11.314  67.363  1.00  0.00    -0.190 A  
HETATM    6  C   UNL     1      -9.942   9.950  64.901  1.00  0.00    -0.190 A  
HETATM    7  C   UNL     1      -9.996  11.339  64.976  1.00  0.00    -0.323 A  
HETATM    8  C   UNL     1      -9.661  11.988  66.166  1.00  0.00    -0.254 A  
HETATM    9  C   UNL     1      -9.853  13.464  66.023  1.00  0.00    -0.273 C  
HETATM   10  C   UNL     1     -11.200  13.358  65.289  1.00  0.00    -0.289 C  
HETATM   11  C   UNL     1     -10.795  12.343  64.124  1.00  0.00    -0.414 C  
BRANCH   4  12
HETATM   12  C   UNL     1     -10.783   9.290  68.496  1.00  0.00    -0.185 C  
HETATM   13  C   UNL     1     -11.168  10.194  69.668  1.00  0.00    -0.310 C  
ENDBRANCH   4  12
BRANCH  10  14
HETATM   14  N   UNL     1     -11.899  14.647  65.105  1.00  0.00    -0.365 NA 
HETATM   15  H   UNL     1     -12.493  14.880  65.900  1.00  0.00     0.000 HD 
BRANCH  14  16
HETATM   16  C   UNL     1     -10.886  15.729  64.811  1.00  0.00    -0.344 C  
BRANCH  16  17
HETATM   17  C   UNL     1     -10.916  16.974  65.740  1.00  0.00     0.086 C  
HETATM   18  H   UNL     1     -10.793  18.903  65.482  1.00  0.00     0.000 HD 
HETATM   19  O   UNL     1     -10.774  18.142  64.914  1.00  0.00    -0.466 OA 
BRANCH  17  20
HETATM   20  C   UNL     1      -9.849  16.985  66.854  1.00  0.00    -0.273 A  
HETATM   21  C   UNL     1      -9.101  18.140  67.188  1.00  0.00    -0.257 A  
HETATM   22  C   UNL     1      -9.402  19.472  66.646  1.00  0.00    -0.430 C  
HETATM   23  C   UNL     1      -8.637  20.535  66.929  1.00  0.00    -0.271 C  
HETATM   24  C   UNL     1      -7.427  20.402  67.781  1.00  0.00    -0.267 C  
HETATM   25  N   UNL     1      -7.193  19.174  68.331  1.00  0.00    -0.283 N  
HETATM   26  O   UNL     1      -6.692  21.355  67.981  1.00  0.00    -0.243 OA 
HETATM   27  H   UNL     1      -6.389  19.068  68.949  1.00  0.00     0.000 HD 
HETATM   28  C   UNL     1      -8.003  18.044  68.092  1.00  0.00    -0.267 A  
HETATM   29  C   UNL     1      -7.696  16.827  68.707  1.00  0.00    -0.242 A  
HETATM   30  C   UNL     1      -8.462  15.704  68.438  1.00  0.00    -0.164 A  
HETATM   31  O   UNL     1      -6.667  16.671  69.596  1.00  0.00    -0.223 OA 
HETATM   32  C   UNL     1      -9.527  15.783  67.531  1.00  0.00    -0.218 A  
HETATM   33  H   UNL     1      -6.458  15.844  70.014  1.00  0.00     0.000 HD 
ENDBRANCH  17  20
ENDBRANCH  16  17
ENDBRANCH  14  16
ENDBRANCH  10  14
ENDBRANCH   2   3
TORSDOF 6
ENDMDL
MODEL      267
REMARK 921   NORMALIZED FREE ENERGY PREDICTED BY IDOCK:   -4.18 KCAL/MOL
REMARK 922        TOTAL FREE ENERGY PREDICTED BY IDOCK:   -6.93 KCAL/MOL
REMARK 923 INTER-LIGAND FREE ENERGY PREDICTED BY IDOCK:   -6.17 KCAL/MOL
REMARK 924 INTRA-LIGAND FREE ENERGY PREDICTED BY IDOCK:   -0.76 KCAL/MOL
REMARK 927      BINDING AFFINITY PREDICTED BY RF-SCORE:    0.00 PKD
ROOT
HETATM    1  C   UNL     1      -9.566  16.139  65.873  1.00  0.00    -0.359 C  
HETATM    2  C   UNL     1     -10.163  15.417  67.070  1.00  0.00    -0.262 C  
ENDROOT
BRANCH   2   3
HETATM    3  C   UNL     1     -10.144  13.900  67.089  1.00  0.00    -0.252 A  
HETATM    4  C   UNL     1     -11.090  13.226  66.263  1.00  0.00    -0.306 A  
HETATM    5  C   UNL     1     -10.878  11.887  65.934  1.00  0.00    -0.342 A  
HETATM    6  C   UNL     1      -9.335  13.124  67.944  1.00  0.00    -0.215 A  
HETATM    7  C   UNL     1      -9.408  11.740  67.823  1.00  0.00    -0.181 A  
HETATM    8  C   UNL     1      -9.972  11.167  66.681  1.00  0.00    -0.244 A  
HETATM    9  C   UNL     1      -9.994   9.677  66.808  1.00  0.00    -0.289 C  
HETATM   10  C   UNL     1     -10.473   9.668  68.269  1.00  0.00    -0.219 C  
HETATM   11  C   UNL     1      -9.393  10.652  68.914  1.00  0.00    -0.191 C  
BRANCH   4  12
HETATM   12  C   UNL     1     -12.421  13.894  65.955  1.00  0.00    -0.501 C  
HETATM   13  C   UNL     1     -12.638  14.365  64.517  1.00  0.00    -0.234 C  
ENDBRANCH   4  12
BRANCH  10  14
HETATM   14  N   UNL     1     -10.839   8.333  68.784  1.00  0.00    -0.428 NA 
HETATM   15  H   UNL     1     -11.820   8.109  68.615  1.00  0.00     0.000 HD 
BRANCH  14  16
HETATM   16  C   UNL     1      -9.908   7.296  68.199  1.00  0.00    -0.149 C  
BRANCH  16  17
HETATM   17  C   UNL     1     -10.462   5.849  68.096  1.00  0.00    -0.233 C  
HETATM   18  H   UNL     1     -11.408   4.635  69.295  1.00  0.00     0.000 HD 
HETATM   19  O   UNL     1     -11.069   5.520  69.358  1.00  0.00    -0.202 OA 
BRANCH  17  20
HETATM   20  C   UNL     1      -9.422   4.775  67.717  1.00  0.00    -0.180 A  
HETATM   21  C   UNL     1      -9.472   4.055  66.499  1.00  0.00    -0.208 A  
HETATM   22  C   UNL     1     -10.395   4.393  65.407  1.00  0.00    -0.238 C  
HETATM   23  C   UNL     1     -10.465   3.654  64.292  1.00  0.00    -0.224 C  
HETATM   24  C   UNL     1      -9.630   2.435  64.128  1.00  0.00    -0.141 C  
HETATM   25  N   UNL     1      -8.731   2.167  65.120  1.00  0.00    -0.111 N  
HETATM   26  O   UNL     1      -9.745   1.724  63.143  1.00  0.00    -0.095 OA 
HETATM   27  H   UNL     1      -8.122   1.356  65.011  1.00  0.00     0.000 HD 
HETATM   28  C   UNL     1      -8.597   2.949  66.286  1.00  0.00    -0.116 A  
HETATM   29  C   UNL     1      -7.641   2.607  67.246  1.00  0.00    -0.069 A  
HETATM   30  C   UNL     1      -7.539   3.346  68.414  1.00  0.00    -0.056 A  
HETATM   31  O   UNL     1      -6.762   1.569  67.096  1.00  0.00    -0.030 OA 
HETATM   32  C   UNL     1      -8.411   4.418  68.643  1.00  0.00    -0.095 A  
HETATM   33  H   UNL     1      -6.112   1.336  67.748  1.00  0.00     0.000 HD 
ENDBRANCH  17  20
ENDBRANCH  16  17
ENDBRANCH  14  16
ENDBRANCH  10  14
ENDBRANCH   2   3
TORSDOF 6
ENDMDL
MODEL      268
REMARK 921   NORMALIZED FREE ENERGY PREDICTED BY IDOCK:   -4.18 KCAL/MOL
REMARK 922        TOTAL FREE ENERGY PREDICTED BY IDOCK:   -6.92 KCAL/MOL
REMARK 923 INTER-LIGAND FREE ENERGY PREDICTED BY IDOCK:   -6.61 KCAL/MOL
REMARK 924 INTRA-LIGAND FREE ENERGY PREDICTED BY IDOCK:   -0.31 KCAL/MOL
REMARK 927      BINDING AFFINITY PREDICTED BY RF-SCORE:    0.00 PKD
ROOT
HETATM    1  C   UNL     1     -10.780   7.244  73.285  1.00  0.00    -0.428 C  
HETATM    2  C   UNL     1     -10.628   5.856  72.685  1.00  0.00    -0.255 C  
ENDROOT
BRANCH   2   3
HETATM    3  C   UNL     1     -10.466   5.726  71.183  1.00  0.00    -0.301 A  
HETATM    4  C   UNL     1      -9.418   4.883  70.711  1.00  0.00    -0.232 A  
HETATM    5  C   UNL     1      -9.457   4.414  69.396  1.00  0.00    -0.251 A  
HETATM    6  C   UNL     1     -11.207   6.461  70.235  1.00  0.00    -0.445 A  
HETATM    7  C   UNL     1     -10.965   6.209  68.888  1.00  0.00    -0.424 A  
HETATM    8  C   UNL     1     -10.297   5.044  68.504  1.00  0.00    -0.094 A  
HETATM    9  C   UNL     1     -10.101   5.025  67.021  1.00  0.00    -0.251 C  
HETATM   10  C   UNL     1      -9.677   6.499  66.917  1.00  0.00    -0.158 C  
HETATM   11  C   UNL     1     -10.889   7.185  67.699  1.00  0.00    -0.279 C  
BRANCH   4  12
HETATM   12  C   UNL     1      -8.166   4.706  71.555  1.00  0.00    -0.103 C  
HETATM   13  C   UNL     1      -6.869   4.403  70.806  1.00  0.00    -0.036 C  
ENDBRANCH   4  12
BRANCH  10  14
HETATM   14  N   UNL     1      -9.172   6.898  65.587  1.00  0.00    -0.376 NA 
HETATM   15  H   UNL     1      -9.925   7.151  64.949  1.00  0.00     0.000 HD 
BRANCH  14  16
HETATM   16  C   UNL     1      -8.160   8.009  65.747  1.00  0.00    -0.121 C  
BRANCH  16  17
HETATM   17  C   UNL     1      -8.603   9.420  65.272  1.00  0.00    -0.162 C  
HETATM   18  H   UNL     1      -7.733  10.921  64.380  1.00  0.00     0.000 HD 
HETATM   19  O   UNL     1      -7.462  10.058  64.671  1.00  0.00    -0.136 OA 
BRANCH  17  20
HETATM   20  C   UNL     1      -9.192  10.326  66.372  1.00  0.00    -0.186 A  
HETATM   21  C   UNL     1      -8.403  11.220  67.135  1.00  0.00    -0.151 A  
HETATM   22  C   UNL     1      -6.996  11.510  66.823  1.00  0.00    -0.108 C  
HETATM   23  C   UNL     1      -6.256  12.310  67.601  1.00  0.00    -0.120 C  
HETATM   24  C   UNL     1      -6.820  12.915  68.835  1.00  0.00    -0.095 C  
HETATM   25  N   UNL     1      -8.145  12.691  69.080  1.00  0.00    -0.319 N  
HETATM   26  O   UNL     1      -6.125  13.587  69.580  1.00  0.00    -0.100 OA 
HETATM   27  H   UNL     1      -8.563  13.127  69.902  1.00  0.00     0.000 HD 
HETATM   28  C   UNL     1      -8.967  11.892  68.259  1.00  0.00    -0.178 A  
HETATM   29  C   UNL     1     -10.318  11.727  68.578  1.00  0.00    -0.217 A  
HETATM   30  C   UNL     1     -11.116  10.905  67.799  1.00  0.00    -0.371 A  
HETATM   31  O   UNL     1     -10.924  12.355  69.632  1.00  0.00    -0.461 OA 
HETATM   32  C   UNL     1     -10.564  10.220  66.709  1.00  0.00    -0.252 A  
HETATM   33  H   UNL     1     -11.841  12.242  69.850  1.00  0.00     0.000 HD 
ENDBRANCH  17  20
ENDBRANCH  16  17
ENDBRANCH  14  16
ENDBRANCH  10  14
ENDBRANCH   2   3
TORSDOF 6
ENDMDL
MODEL      269
REMARK 921   NORMALIZED FREE ENERGY PREDICTED BY IDOCK:   -4.17 KCAL/MOL
REMARK 922        TOTAL FREE ENERGY PREDICTED BY IDOCK:   -6.91 KCAL/MOL
REMARK 923 INTER-LIGAND FREE ENERGY PREDICTED BY IDOCK:   -6.83 KCAL/MOL
REMARK 924 INTRA-LIGAND FREE ENERGY PREDICTED BY IDOCK:   -0.09 KCAL/MOL
REMARK 927      BINDING AFFINITY PREDICTED BY RF-SCORE:    0.00 PKD
ROOT
HETATM    1  C   UNL     1      -5.299   1.806  64.988  1.00  0.00    -0.005 C  
HETATM    2  C   UNL     1      -6.192   2.892  64.409  1.00  0.00    -0.023 C  
ENDROOT
BRANCH   2   3
HETATM    3  C   UNL     1      -7.041   3.719  65.357  1.00  0.00    -0.066 A  
HETATM    4  C   UNL     1      -8.428   3.402  65.434  1.00  0.00    -0.104 A  
HETATM    5  C   UNL     1      -9.168   3.835  66.536  1.00  0.00    -0.178 A  
HETATM    6  C   UNL     1      -6.572   4.838  66.076  1.00  0.00    -0.045 A  
HETATM    7  C   UNL     1      -7.465   5.477  66.930  1.00  0.00    -0.088 A  
HETATM    8  C   UNL     1      -8.638   4.832  67.327  1.00  0.00    -0.104 A  
HETATM    9  C   UNL     1      -9.460   5.735  68.189  1.00  0.00    -0.120 C  
HETATM   10  C   UNL     1      -9.254   6.985  67.317  1.00  0.00    -0.129 C  
HETATM   11  C   UNL     1      -7.661   6.980  67.208  1.00  0.00    -0.108 C  
BRANCH   4  12
HETATM   12  C   UNL     1      -9.127   2.815  64.219  1.00  0.00    -0.118 C  
HETATM   13  C   UNL     1     -10.555   3.291  63.950  1.00  0.00    -0.215 C  
ENDBRANCH   4  12
BRANCH  10  14
HETATM   14  N   UNL     1     -10.089   8.142  67.701  1.00  0.00    -0.192 NA 
HETATM   15  H   UNL     1      -9.621   8.750  68.373  1.00  0.00     0.000 HD 
BRANCH  14  16
HETATM   16  C   UNL     1     -10.515   8.888  66.457  1.00  0.00    -0.105 C  
BRANCH  16  17
HETATM   17  C   UNL     1      -9.530   9.966  65.927  1.00  0.00    -0.215 C  
HETATM   18  H   UNL     1      -8.056  10.994  66.686  1.00  0.00     0.000 HD 
HETATM   19  O   UNL     1      -8.658  10.335  67.010  1.00  0.00    -0.129 OA 
BRANCH  17  20
HETATM   20  C   UNL     1     -10.195  11.226  65.336  1.00  0.00    -0.323 A  
HETATM   21  C   UNL     1     -10.550  12.348  66.123  1.00  0.00    -0.283 A  
HETATM   22  C   UNL     1     -10.147  12.498  67.528  1.00  0.00    -0.207 C  
HETATM   23  C   UNL     1     -10.552  13.539  68.267  1.00  0.00    -0.259 C  
HETATM   24  C   UNL     1     -11.458  14.573  67.702  1.00  0.00    -0.353 C  
HETATM   25  N   UNL     1     -11.773  14.458  66.378  1.00  0.00    -0.380 N  
HETATM   26  O   UNL     1     -11.883  15.482  68.395  1.00  0.00    -0.351 OA 
HETATM   27  H   UNL     1     -12.363  15.177  65.960  1.00  0.00     0.000 HD 
HETATM   28  C   UNL     1     -11.328  13.401  65.558  1.00  0.00    -0.293 A  
HETATM   29  C   UNL     1     -11.690  13.368  64.208  1.00  0.00    -0.412 A  
HETATM   30  C   UNL     1     -11.292  12.307  63.412  1.00  0.00    -0.508 A  
HETATM   31  O   UNL     1     -12.420  14.354  63.602  1.00  0.00    -1.066 OA 
HETATM   32  C   UNL     1     -10.550  11.255  63.964  1.00  0.00    -0.450 A  
HETATM   33  H   UNL     1     -12.667  14.332  62.685  1.00  0.00     0.000 HD 
ENDBRANCH  17  20
ENDBRANCH  16  17
ENDBRANCH  14  16
ENDBRANCH  10  14
ENDBRANCH   2   3
TORSDOF 6
ENDMDL
MODEL      270
REMARK 921   NORMALIZED FREE ENERGY PREDICTED BY IDOCK:   -4.17 KCAL/MOL
REMARK 922        TOTAL FREE ENERGY PREDICTED BY IDOCK:   -6.91 KCAL/MOL
REMARK 923 INTER-LIGAND FREE ENERGY PREDICTED BY IDOCK:   -6.74 KCAL/MOL
REMARK 924 INTRA-LIGAND FREE ENERGY PREDICTED BY IDOCK:   -0.17 KCAL/MOL
REMARK 927      BINDING AFFINITY PREDICTED BY RF-SCORE:    0.00 PKD
ROOT
HETATM    1  C   UNL     1      -6.296  20.613  66.118  1.00  0.00    -0.286 C  
HETATM    2  C   UNL     1      -7.569  20.609  66.948  1.00  0.00    -0.290 C  
ENDROOT
BRANCH   2   3
HETATM    3  C   UNL     1      -8.256  19.284  67.222  1.00  0.00    -0.304 A  
HETATM    4  C   UNL     1      -7.629  18.405  68.152  1.00  0.00    -0.287 A  
HETATM    5  C   UNL     1      -8.377  17.381  68.735  1.00  0.00    -0.223 A  
HETATM    6  C   UNL     1      -9.403  18.826  66.542  1.00  0.00    -0.345 A  
HETATM    7  C   UNL     1      -9.937  17.600  66.926  1.00  0.00    -0.323 A  
HETATM    8  C   UNL     1      -9.576  17.034  68.151  1.00  0.00    -0.266 A  
HETATM    9  C   UNL     1     -10.224  15.696  68.314  1.00  0.00    -0.223 C  
HETATM   10  C   UNL     1      -9.943  15.229  66.876  1.00  0.00    -0.239 C  
HETATM   11  C   UNL     1     -10.536  16.471  66.067  1.00  0.00    -0.320 C  
BRANCH   4  12
HETATM   12  C   UNL     1      -6.118  18.441  68.310  1.00  0.00    -0.191 C  
HETATM   13  C   UNL     1      -5.579  18.655  69.724  1.00  0.00    -0.234 C  
ENDBRANCH   4  12
BRANCH  10  14
HETATM   14  N   UNL     1     -10.254  13.806  66.624  1.00  0.00    -0.271 NA 
HETATM   15  H   UNL     1     -10.318  13.596  65.629  1.00  0.00     0.000 HD 
BRANCH  14  16
HETATM   16  C   UNL     1      -9.237  12.938  67.328  1.00  0.00    -0.208 C  
BRANCH  16  17
HETATM   17  C   UNL     1      -9.633  11.452  67.549  1.00  0.00    -0.167 C  
HETATM   18  H   UNL     1      -9.395  10.149  68.980  1.00  0.00     0.000 HD 
HETATM   19  O   UNL     1      -9.153  11.058  68.846  1.00  0.00    -0.175 OA 
BRANCH  17  20
HETATM   20  C   UNL     1      -9.116  10.471  66.477  1.00  0.00    -0.175 A  
HETATM   21  C   UNL     1      -9.471   9.101  66.455  1.00  0.00    -0.288 A  
HETATM   22  C   UNL     1     -10.508   8.530  67.326  1.00  0.00    -0.366 C  
HETATM   23  C   UNL     1     -10.777   7.218  67.330  1.00  0.00    -0.358 C  
HETATM   24  C   UNL     1     -10.012   6.276  66.473  1.00  0.00    -0.115 C  
HETATM   25  N   UNL     1      -9.096   6.825  65.621  1.00  0.00    -0.368 N  
HETATM   26  O   UNL     1     -10.210   5.073  66.528  1.00  0.00    -0.217 OA 
HETATM   27  H   UNL     1      -8.585   6.201  64.996  1.00  0.00     0.000 HD 
HETATM   28  C   UNL     1      -8.818   8.206  65.557  1.00  0.00    -0.089 A  
HETATM   29  C   UNL     1      -7.872   8.683  64.645  1.00  0.00    -0.129 A  
HETATM   30  C   UNL     1      -7.564  10.034  64.613  1.00  0.00    -0.143 A  
HETATM   31  O   UNL     1      -7.222   7.881  63.746  1.00  0.00    -0.083 OA 
HETATM   32  C   UNL     1      -8.181  10.916  65.509  1.00  0.00    -0.052 A  
HETATM   33  H   UNL     1      -6.579   8.205  63.127  1.00  0.00     0.000 HD 
ENDBRANCH  17  20
ENDBRANCH  16  17
ENDBRANCH  14  16
ENDBRANCH  10  14
ENDBRANCH   2   3
TORSDOF 6
ENDMDL
MODEL      271
REMARK 921   NORMALIZED FREE ENERGY PREDICTED BY IDOCK:   -4.16 KCAL/MOL
REMARK 922        TOTAL FREE ENERGY PREDICTED BY IDOCK:   -6.90 KCAL/MOL
REMARK 923 INTER-LIGAND FREE ENERGY PREDICTED BY IDOCK:   -5.61 KCAL/MOL
REMARK 924 INTRA-LIGAND FREE ENERGY PREDICTED BY IDOCK:   -1.29 KCAL/MOL
REMARK 927      BINDING AFFINITY PREDICTED BY RF-SCORE:    0.00 PKD
ROOT
HETATM    1  C   UNL     1      -6.789   3.126  74.137  1.00  0.00    -0.040 C  
HETATM    2  C   UNL     1      -8.299   3.182  74.303  1.00  0.00    -0.070 C  
ENDROOT
BRANCH   2   3
HETATM    3  C   UNL     1      -9.032   4.442  73.882  1.00  0.00    -0.102 A  
HETATM    4  C   UNL     1     -10.118   4.291  72.972  1.00  0.00    -0.207 A  
HETATM    5  C   UNL     1     -11.058   5.316  72.854  1.00  0.00    -0.365 A  
HETATM    6  C   UNL     1      -8.643   5.748  74.244  1.00  0.00    -0.111 A  
HETATM    7  C   UNL     1      -9.435   6.804  73.803  1.00  0.00    -0.215 A  
HETATM    8  C   UNL     1     -10.731   6.561  73.344  1.00  0.00    -0.295 A  
HETATM    9  C   UNL     1     -11.359   7.833  72.870  1.00  0.00    -0.406 C  
HETATM   10  C   UNL     1     -10.112   8.334  72.122  1.00  0.00    -0.274 C  
HETATM   11  C   UNL     1      -9.025   8.195  73.284  1.00  0.00    -0.332 C  
BRANCH   4  12
HETATM   12  C   UNL     1     -10.104   3.139  71.980  1.00  0.00    -0.178 C  
HETATM   13  C   UNL     1      -9.404   3.390  70.644  1.00  0.00    -0.232 C  
ENDBRANCH   4  12
BRANCH  10  14
HETATM   14  N   UNL     1     -10.339   9.535  71.291  1.00  0.00    -0.285 NA 
HETATM   15  H   UNL     1     -10.493  10.370  71.855  1.00  0.00     0.000 HD 
BRANCH  14  16
HETATM   16  C   UNL     1      -9.188   9.701  70.325  1.00  0.00    -0.236 C  
BRANCH  16  17
HETATM   17  C   UNL     1      -8.721   8.419  69.581  1.00  0.00    -0.133 C  
HETATM   18  H   UNL     1      -7.060   7.402  69.474  1.00  0.00     0.000 HD 
HETATM   19  O   UNL     1      -7.346   8.186  69.930  1.00  0.00    -0.062 OA 
BRANCH  17  20
HETATM   20  C   UNL     1      -8.874   8.462  68.047  1.00  0.00    -0.142 A  
HETATM   21  C   UNL     1      -9.045   7.297  67.260  1.00  0.00    -0.133 A  
HETATM   22  C   UNL     1      -9.286   5.968  67.841  1.00  0.00    -0.111 C  
HETATM   23  C   UNL     1      -9.379   4.874  67.075  1.00  0.00    -0.136 C  
HETATM   24  C   UNL     1      -9.209   4.954  65.600  1.00  0.00    -0.156 C  
HETATM   25  N   UNL     1      -9.050   6.201  65.066  1.00  0.00    -0.328 N  
HETATM   26  O   UNL     1      -9.224   3.948  64.911  1.00  0.00    -0.132 OA 
HETATM   27  H   UNL     1      -8.969   6.284  64.053  1.00  0.00     0.000 HD 
HETATM   28  C   UNL     1      -8.994   7.380  65.838  1.00  0.00    -0.077 A  
HETATM   29  C   UNL     1      -8.841   8.617  65.206  1.00  0.00    -0.135 A  
HETATM   30  C   UNL     1      -8.738   9.772  65.964  1.00  0.00    -0.156 A  
HETATM   31  O   UNL     1      -8.801   8.768  63.846  1.00  0.00    -0.426 OA 
HETATM   32  C   UNL     1      -8.762   9.697  67.363  1.00  0.00    -0.130 A  
HETATM   33  H   UNL     1      -8.696   9.608  63.417  1.00  0.00     0.000 HD 
ENDBRANCH  17  20
ENDBRANCH  16  17
ENDBRANCH  14  16
ENDBRANCH  10  14
ENDBRANCH   2   3
TORSDOF 6
ENDMDL
MODEL      272
REMARK 921   NORMALIZED FREE ENERGY PREDICTED BY IDOCK:   -4.16 KCAL/MOL
REMARK 922        TOTAL FREE ENERGY PREDICTED BY IDOCK:   -6.89 KCAL/MOL
REMARK 923 INTER-LIGAND FREE ENERGY PREDICTED BY IDOCK:   -5.15 KCAL/MOL
REMARK 924 INTRA-LIGAND FREE ENERGY PREDICTED BY IDOCK:   -1.74 KCAL/MOL
REMARK 927      BINDING AFFINITY PREDICTED BY RF-SCORE:    0.00 PKD
ROOT
HETATM    1  C   UNL     1      -6.652   7.135  63.435  1.00  0.00    -0.052 C  
HETATM    2  C   UNL     1      -6.602   8.476  64.148  1.00  0.00    -0.071 C  
ENDROOT
BRANCH   2   3
HETATM    3  C   UNL     1      -7.747   8.855  65.068  1.00  0.00    -0.103 A  
HETATM    4  C   UNL     1      -7.718  10.159  65.642  1.00  0.00    -0.143 A  
HETATM    5  C   UNL     1      -8.893  10.704  66.161  1.00  0.00    -0.179 A  
HETATM    6  C   UNL     1      -8.770   7.972  65.473  1.00  0.00    -0.134 A  
HETATM    7  C   UNL     1      -9.770   8.476  66.298  1.00  0.00    -0.300 A  
HETATM    8  C   UNL     1      -9.948   9.856  66.418  1.00  0.00    -0.309 A  
HETATM    9  C   UNL     1     -11.035  10.154  67.401  1.00  0.00    -0.295 C  
HETATM   10  C   UNL     1     -10.576   9.113  68.436  1.00  0.00    -0.172 C  
HETATM   11  C   UNL     1     -10.481   7.823  67.499  1.00  0.00    -0.338 C  
BRANCH   4  12
HETATM   12  C   UNL     1      -6.378  10.830  65.899  1.00  0.00    -0.109 C  
HETATM   13  C   UNL     1      -5.755  10.616  67.278  1.00  0.00    -0.045 C  
ENDBRANCH   4  12
BRANCH  10  14
HETATM   14  N   UNL     1     -11.281   9.188  69.732  1.00  0.00    -0.420 NA 
HETATM   15  H   UNL     1     -11.804   8.336  69.937  1.00  0.00     0.000 HD 
BRANCH  14  16
HETATM   16  C   UNL     1     -10.292   9.527  70.823  1.00  0.00    -0.306 C  
BRANCH  16  17
HETATM   17  C   UNL     1      -9.997   8.409  71.860  1.00  0.00    -0.261 C  
HETATM   18  H   UNL     1      -8.699   8.151  73.293  1.00  0.00     0.000 HD 
HETATM   19  O   UNL     1      -8.879   8.835  72.659  1.00  0.00    -0.394 OA 
BRANCH  17  20
HETATM   20  C   UNL     1      -9.713   7.017  71.259  1.00  0.00    -0.171 A  
HETATM   21  C   UNL     1      -8.714   6.793  70.281  1.00  0.00    -0.144 A  
HETATM   22  C   UNL     1      -7.733   7.815  69.892  1.00  0.00    -0.095 C  
HETATM   23  C   UNL     1      -6.840   7.597  68.917  1.00  0.00    -0.061 C  
HETATM   24  C   UNL     1      -6.828   6.316  68.163  1.00  0.00    -0.070 C  
HETATM   25  N   UNL     1      -7.701   5.350  68.576  1.00  0.00    -0.083 N  
HETATM   26  O   UNL     1      -6.062   6.144  67.230  1.00  0.00    -0.017 OA 
HETATM   27  H   UNL     1      -7.684   4.450  68.098  1.00  0.00     0.000 HD 
HETATM   28  C   UNL     1      -8.623   5.528  69.629  1.00  0.00    -0.108 A  
HETATM   29  C   UNL     1      -9.472   4.480  69.993  1.00  0.00    -0.177 A  
HETATM   30  C   UNL     1     -10.410   4.668  70.995  1.00  0.00    -0.143 A  
HETATM   31  O   UNL     1      -9.425   3.239  69.418  1.00  0.00    -0.167 OA 
HETATM   32  C   UNL     1     -10.525   5.915  71.624  1.00  0.00    -0.285 A  
HETATM   33  H   UNL     1     -10.003   2.527  69.666  1.00  0.00     0.000 HD 
ENDBRANCH  17  20
ENDBRANCH  16  17
ENDBRANCH  14  16
ENDBRANCH  10  14
ENDBRANCH   2   3
TORSDOF 6
ENDMDL
MODEL      273
REMARK 921   NORMALIZED FREE ENERGY PREDICTED BY IDOCK:   -4.12 KCAL/MOL
REMARK 922        TOTAL FREE ENERGY PREDICTED BY IDOCK:   -6.84 KCAL/MOL
REMARK 923 INTER-LIGAND FREE ENERGY PREDICTED BY IDOCK:   -6.05 KCAL/MOL
REMARK 924 INTRA-LIGAND FREE ENERGY PREDICTED BY IDOCK:   -0.79 KCAL/MOL
REMARK 927      BINDING AFFINITY PREDICTED BY RF-SCORE:    0.00 PKD
ROOT
HETATM    1  C   UNL     1     -10.909   8.269  68.748  1.00  0.00     0.019 C  
HETATM    2  C   UNL     1     -10.000   8.607  67.578  1.00  0.00    -0.256 C  
ENDROOT
BRANCH   2   3
HETATM    3  C   UNL     1      -9.144   9.858  67.658  1.00  0.00    -0.140 A  
HETATM    4  C   UNL     1      -7.774   9.688  68.010  1.00  0.00    -0.086 A  
HETATM    5  C   UNL     1      -6.864  10.707  67.725  1.00  0.00    -0.073 A  
HETATM    6  C   UNL     1      -9.637  11.171  67.515  1.00  0.00    -0.181 A  
HETATM    7  C   UNL     1      -8.722  12.217  67.584  1.00  0.00    -0.172 A  
HETATM    8  C   UNL     1      -7.357  11.962  67.438  1.00  0.00    -0.145 A  
HETATM    9  C   UNL     1      -6.573  13.224  67.611  1.00  0.00    -0.172 C  
HETATM   10  C   UNL     1      -7.372  13.718  68.828  1.00  0.00    -0.103 C  
HETATM   11  C   UNL     1      -8.855  13.601  68.245  1.00  0.00    -0.179 C  
BRANCH   4  12
HETATM   12  C   UNL     1      -7.371   8.521  68.898  1.00  0.00    -0.086 C  
HETATM   13  C   UNL     1      -5.926   8.037  68.783  1.00  0.00    -0.039 C  
ENDBRANCH   4  12
BRANCH  10  14
HETATM   14  N   UNL     1      -6.798  14.905  69.495  1.00  0.00    -0.160 NA 
HETATM   15  H   UNL     1      -6.200  14.655  70.281  1.00  0.00     0.000 HD 
BRANCH  14  16
HETATM   16  C   UNL     1      -6.076  15.753  68.474  1.00  0.00    -0.102 C  
BRANCH  16  17
HETATM   17  C   UNL     1      -6.020  17.280  68.758  1.00  0.00    -0.167 C  
HETATM   18  H   UNL     1      -6.100  18.399  70.354  1.00  0.00     0.000 HD 
HETATM   19  O   UNL     1      -6.134  17.465  70.180  1.00  0.00    -0.199 OA 
BRANCH  17  20
HETATM   20  C   UNL     1      -7.090  18.120  68.032  1.00  0.00    -0.222 A  
HETATM   21  C   UNL     1      -6.821  18.848  66.848  1.00  0.00    -0.205 A  
HETATM   22  C   UNL     1      -5.563  18.719  66.099  1.00  0.00    -0.186 C  
HETATM   23  C   UNL     1      -5.310  19.468  65.018  1.00  0.00    -0.194 C  
HETATM   24  C   UNL     1      -6.281  20.490  64.549  1.00  0.00    -0.300 C  
HETATM   25  N   UNL     1      -7.473  20.557  65.214  1.00  0.00    -0.470 N  
HETATM   26  O   UNL     1      -6.020  21.220  63.608  1.00  0.00    -0.287 OA 
HETATM   27  H   UNL     1      -8.170  21.225  64.887  1.00  0.00     0.000 HD 
HETATM   28  C   UNL     1      -7.793  19.752  66.327  1.00  0.00    -0.328 A  
HETATM   29  C   UNL     1      -9.042  19.879  66.940  1.00  0.00    -0.356 A  
HETATM   30  C   UNL     1      -9.341  19.122  68.062  1.00  0.00    -0.378 A  
HETATM   31  O   UNL     1     -10.024  20.715  66.481  1.00  0.00    -0.580 OA 
HETATM   32  C   UNL     1      -8.384  18.251  68.596  1.00  0.00    -0.305 A  
HETATM   33  H   UNL     1     -10.873  20.802  66.898  1.00  0.00     0.000 HD 
ENDBRANCH  17  20
ENDBRANCH  16  17
ENDBRANCH  14  16
ENDBRANCH  10  14
ENDBRANCH   2   3
TORSDOF 6
ENDMDL
MODEL      274
REMARK 921   NORMALIZED FREE ENERGY PREDICTED BY IDOCK:   -4.07 KCAL/MOL
REMARK 922        TOTAL FREE ENERGY PREDICTED BY IDOCK:   -6.77 KCAL/MOL
REMARK 923 INTER-LIGAND FREE ENERGY PREDICTED BY IDOCK:   -5.89 KCAL/MOL
REMARK 924 INTRA-LIGAND FREE ENERGY PREDICTED BY IDOCK:   -0.88 KCAL/MOL
REMARK 927      BINDING AFFINITY PREDICTED BY RF-SCORE:    0.00 PKD
ROOT
HETATM    1  C   UNL     1      -7.993  19.521  69.060  1.00  0.00    -0.281 C  
HETATM    2  C   UNL     1      -8.541  18.618  67.966  1.00  0.00    -0.321 C  
ENDROOT
BRANCH   2   3
HETATM    3  C   UNL     1      -8.307  17.123  68.071  1.00  0.00    -0.218 A  
HETATM    4  C   UNL     1      -6.964  16.684  68.257  1.00  0.00    -0.155 A  
HETATM    5  C   UNL     1      -6.726  15.398  68.744  1.00  0.00    -0.108 A  
HETATM    6  C   UNL     1      -9.308  16.146  67.890  1.00  0.00    -0.212 A  
HETATM    7  C   UNL     1      -8.945  14.812  68.047  1.00  0.00    -0.174 A  
HETATM    8  C   UNL     1      -7.756  14.483  68.701  1.00  0.00    -0.137 A  
HETATM    9  C   UNL     1      -7.552  13.001  68.693  1.00  0.00    -0.089 C  
HETATM   10  C   UNL     1      -7.970  12.812  67.225  1.00  0.00    -0.156 C  
HETATM   11  C   UNL     1      -9.375  13.570  67.243  1.00  0.00    -0.233 C  
BRANCH   4  12
HETATM   12  C   UNL     1      -5.823  17.521  67.701  1.00  0.00    -0.150 C  
HETATM   13  C   UNL     1      -5.661  17.539  66.181  1.00  0.00    -0.219 C  
ENDBRANCH   4  12
BRANCH  10  14
HETATM   14  N   UNL     1      -7.728  11.456  66.691  1.00  0.00    -0.220 NA 
HETATM   15  H   UNL     1      -7.692  11.443  65.673  1.00  0.00     0.000 HD 
BRANCH  14  16
HETATM   16  C   UNL     1      -6.473  10.888  67.315  1.00  0.00    -0.072 C  
BRANCH  16  17
HETATM   17  C   UNL     1      -6.512   9.382  67.694  1.00  0.00    -0.062 C  
HETATM   18  H   UNL     1      -5.510   7.792  67.171  1.00  0.00     0.000 HD 
HETATM   19  O   UNL     1      -5.486   8.713  66.939  1.00  0.00    -0.036 OA 
BRANCH  17  20
HETATM   20  C   UNL     1      -7.869   8.685  67.469  1.00  0.00    -0.102 A  
HETATM   21  C   UNL     1      -8.922   8.733  68.413  1.00  0.00    -0.141 A  
HETATM   22  C   UNL     1      -8.895   9.602  69.598  1.00  0.00    -0.212 C  
HETATM   23  C   UNL     1      -9.876   9.579  70.509  1.00  0.00    -0.331 C  
HETATM   24  C   UNL     1     -11.024   8.644  70.375  1.00  0.00    -0.235 C  
HETATM   25  N   UNL     1     -11.071   7.887  69.239  1.00  0.00    -0.436 N  
HETATM   26  O   UNL     1     -11.881   8.573  71.240  1.00  0.00    -0.281 OA 
HETATM   27  H   UNL     1     -11.869   7.265  69.108  1.00  0.00     0.000 HD 
HETATM   28  C   UNL     1     -10.080   7.919  68.237  1.00  0.00    -0.194 A  
HETATM   29  C   UNL     1     -10.215   7.118  67.100  1.00  0.00    -0.257 A  
HETATM   30  C   UNL     1      -9.220   7.113  66.136  1.00  0.00    -0.126 A  
HETATM   31  O   UNL     1     -11.307   6.327  66.862  1.00  0.00    -0.615 OA 
HETATM   32  C   UNL     1      -8.068   7.889  66.313  1.00  0.00    -0.110 A  
HETATM   33  H   UNL     1     -11.399   5.782  66.089  1.00  0.00     0.000 HD 
ENDBRANCH  17  20
ENDBRANCH  16  17
ENDBRANCH  14  16
ENDBRANCH  10  14
ENDBRANCH   2   3
TORSDOF 6
ENDMDL
MODEL      275
REMARK 921   NORMALIZED FREE ENERGY PREDICTED BY IDOCK:   -4.06 KCAL/MOL
REMARK 922        TOTAL FREE ENERGY PREDICTED BY IDOCK:   -6.76 KCAL/MOL
REMARK 923 INTER-LIGAND FREE ENERGY PREDICTED BY IDOCK:   -5.95 KCAL/MOL
REMARK 924 INTRA-LIGAND FREE ENERGY PREDICTED BY IDOCK:   -0.81 KCAL/MOL
REMARK 927      BINDING AFFINITY PREDICTED BY RF-SCORE:    0.00 PKD
ROOT
HETATM    1  C   UNL     1      -8.800   2.296  63.612  1.00  0.00    -0.089 C  
HETATM    2  C   UNL     1      -8.179   2.716  64.934  1.00  0.00    -0.087 C  
ENDROOT
BRANCH   2   3
HETATM    3  C   UNL     1      -8.595   4.041  65.546  1.00  0.00    -0.114 A  
HETATM    4  C   UNL     1      -7.555   4.929  65.945  1.00  0.00    -0.090 A  
HETATM    5  C   UNL     1      -7.847   6.280  66.140  1.00  0.00    -0.105 A  
HETATM    6  C   UNL     1      -9.926   4.399  65.841  1.00  0.00    -0.255 A  
HETATM    7  C   UNL     1     -10.153   5.663  66.375  1.00  0.00    -0.199 A  
HETATM    8  C   UNL     1      -9.167   6.648  66.281  1.00  0.00    -0.158 A  
HETATM    9  C   UNL     1      -9.613   7.895  66.976  1.00  0.00    -0.247 C  
HETATM   10  C   UNL     1     -10.188   7.171  68.205  1.00  0.00    -0.184 C  
HETATM   11  C   UNL     1     -11.132   6.109  67.478  1.00  0.00    -0.318 C  
BRANCH   4  12
HETATM   12  C   UNL     1      -6.215   4.360  66.384  1.00  0.00    -0.032 C  
HETATM   13  C   UNL     1      -5.594   4.957  67.647  1.00  0.00    -0.017 C  
ENDBRANCH   4  12
BRANCH  10  14
HETATM   14  N   UNL     1     -10.588   8.067  69.310  1.00  0.00    -0.297 NA 
HETATM   15  H   UNL     1      -9.805   8.303  69.919  1.00  0.00     0.000 HD 
BRANCH  14  16
HETATM   16  C   UNL     1     -11.261   9.295  68.741  1.00  0.00     0.215 C  
BRANCH  16  17
HETATM   17  C   UNL     1     -10.701  10.668  69.209  1.00  0.00    -0.238 C  
HETATM   18  H   UNL     1      -9.161  11.258  70.249  1.00  0.00     0.000 HD 
HETATM   19  O   UNL     1      -9.503  10.419  69.964  1.00  0.00    -0.038 OA 
BRANCH  17  20
HETATM   20  C   UNL     1     -11.678  11.524  70.040  1.00  0.00    -0.414 A  
HETATM   21  C   UNL     1     -11.636  12.939  70.056  1.00  0.00    -0.189 A  
HETATM   22  C   UNL     1     -10.794  13.724  69.143  1.00  0.00    -0.205 C  
HETATM   23  C   UNL     1     -10.725  15.059  69.225  1.00  0.00    -0.250 C  
HETATM   24  C   UNL     1     -11.476  15.802  70.270  1.00  0.00    -0.359 C  
HETATM   25  N   UNL     1     -12.305  15.069  71.071  1.00  0.00    -0.304 N  
HETATM   26  O   UNL     1     -11.359  17.011  70.388  1.00  0.00     0.241 OA 
HETATM   27  H   UNL     1     -12.858  15.562  71.771  1.00  0.00     0.000 HD 
HETATM   28  C   UNL     1     -12.438  13.668  70.983  1.00  0.00    -0.377 A  
HETATM   29  C   UNL     1     -13.319  12.999  71.837  1.00  0.00    -0.446 A  
HETATM   30  C   UNL     1     -13.417  11.617  71.784  1.00  0.00    -0.190 A  
HETATM   31  O   UNL     1     -14.127  13.639  72.737  1.00  0.00    -0.711 OA 
HETATM   32  C   UNL     1     -12.614  10.891  70.895  1.00  0.00    -0.494 A  
HETATM   33  H   UNL     1     -14.726  13.185  73.317  1.00  0.00     0.000 HD 
ENDBRANCH  17  20
ENDBRANCH  16  17
ENDBRANCH  14  16
ENDBRANCH  10  14
ENDBRANCH   2   3
TORSDOF 6
ENDMDL
MODEL      276
REMARK 921   NORMALIZED FREE ENERGY PREDICTED BY IDOCK:   -4.04 KCAL/MOL
REMARK 922        TOTAL FREE ENERGY PREDICTED BY IDOCK:   -6.74 KCAL/MOL
REMARK 923 INTER-LIGAND FREE ENERGY PREDICTED BY IDOCK:   -6.20 KCAL/MOL
REMARK 924 INTRA-LIGAND FREE ENERGY PREDICTED BY IDOCK:   -0.55 KCAL/MOL
REMARK 927      BINDING AFFINITY PREDICTED BY RF-SCORE:    0.00 PKD
ROOT
HETATM    1  C   UNL     1     -12.740  13.854  65.479  1.00  0.00    -0.536 C  
HETATM    2  C   UNL     1     -11.263  13.590  65.717  1.00  0.00    -0.308 C  
ENDROOT
BRANCH   2   3
HETATM    3  C   UNL     1     -10.830  12.198  66.138  1.00  0.00    -0.317 A  
HETATM    4  C   UNL     1     -10.847  11.904  67.532  1.00  0.00    -0.283 A  
HETATM    5  C   UNL     1     -10.846  10.572  67.950  1.00  0.00    -0.333 A  
HETATM    6  C   UNL     1     -10.314  11.224  65.258  1.00  0.00    -0.337 A  
HETATM    7  C   UNL     1      -9.988   9.981  65.790  1.00  0.00    -0.346 A  
HETATM    8  C   UNL     1     -10.482   9.603  67.040  1.00  0.00    -0.302 A  
HETATM    9  C   UNL     1      -9.949   8.260  67.424  1.00  0.00    -0.271 C  
HETATM   10  C   UNL     1      -8.509   8.545  66.964  1.00  0.00    -0.114 C  
HETATM   11  C   UNL     1      -8.795   9.056  65.478  1.00  0.00    -0.233 C  
BRANCH   4  12
HETATM   12  C   UNL     1     -10.624  13.026  68.533  1.00  0.00    -0.274 C  
HETATM   13  C   UNL     1     -11.867  13.593  69.219  1.00  0.00    -0.395 C  
ENDBRANCH   4  12
BRANCH  10  14
HETATM   14  N   UNL     1      -7.529   7.508  67.346  1.00  0.00    -0.101 NA 
HETATM   15  H   UNL     1      -7.978   6.641  67.639  1.00  0.00     0.000 HD 
BRANCH  14  16
HETATM   16  C   UNL     1      -6.558   7.292  66.207  1.00  0.00    -0.052 C  
BRANCH  16  17
HETATM   17  C   UNL     1      -5.956   5.866  66.074  1.00  0.00    -0.028 C  
HETATM   18  H   UNL     1      -5.082   4.855  64.654  1.00  0.00     0.000 HD 
HETATM   19  O   UNL     1      -5.450   5.727  64.735  1.00  0.00    -0.015 OA 
BRANCH  17  20
HETATM   20  C   UNL     1      -6.930   4.713  66.390  1.00  0.00    -0.066 A  
HETATM   21  C   UNL     1      -7.985   4.339  65.523  1.00  0.00    -0.094 A  
HETATM   22  C   UNL     1      -8.132   4.881  64.165  1.00  0.00    -0.115 C  
HETATM   23  C   UNL     1      -9.177   4.559  63.390  1.00  0.00    -0.086 C  
HETATM   24  C   UNL     1     -10.252   3.662  63.889  1.00  0.00    -0.228 C  
HETATM   25  N   UNL     1     -10.072   3.115  65.127  1.00  0.00    -0.374 N  
HETATM   26  O   UNL     1     -11.237   3.425  63.209  1.00  0.00    -0.174 OA 
HETATM   27  H   UNL     1     -10.779   2.467  65.474  1.00  0.00     0.000 HD 
HETATM   28  C   UNL     1      -8.963   3.395  65.952  1.00  0.00    -0.145 A  
HETATM   29  C   UNL     1      -8.854   2.780  67.202  1.00  0.00    -0.142 A  
HETATM   30  C   UNL     1      -7.789   3.088  68.033  1.00  0.00    -0.062 A  
HETATM   31  O   UNL     1      -9.748   1.853  67.665  1.00  0.00    -0.412 OA 
HETATM   32  C   UNL     1      -6.837   4.035  67.631  1.00  0.00    -0.051 A  
HETATM   33  H   UNL     1      -9.674   1.435  68.515  1.00  0.00     0.000 HD 
ENDBRANCH  17  20
ENDBRANCH  16  17
ENDBRANCH  14  16
ENDBRANCH  10  14
ENDBRANCH   2   3
TORSDOF 6
ENDMDL
MODEL      277
REMARK 921   NORMALIZED FREE ENERGY PREDICTED BY IDOCK:   -4.04 KCAL/MOL
REMARK 922        TOTAL FREE ENERGY PREDICTED BY IDOCK:   -6.74 KCAL/MOL
REMARK 923 INTER-LIGAND FREE ENERGY PREDICTED BY IDOCK:   -6.30 KCAL/MOL
REMARK 924 INTRA-LIGAND FREE ENERGY PREDICTED BY IDOCK:   -0.44 KCAL/MOL
REMARK 927      BINDING AFFINITY PREDICTED BY RF-SCORE:    0.00 PKD
ROOT
HETATM    1  C   UNL     1      -9.502   3.114  66.913  1.00  0.00    -0.110 C  
HETATM    2  C   UNL     1      -9.267   3.424  68.382  1.00  0.00    -0.230 C  
ENDROOT
BRANCH   2   3
HETATM    3  C   UNL     1      -8.806   4.817  68.767  1.00  0.00    -0.122 A  
HETATM    4  C   UNL     1      -8.955   5.199  70.132  1.00  0.00    -0.151 A  
HETATM    5  C   UNL     1      -8.215   6.274  70.627  1.00  0.00    -0.125 A  
HETATM    6  C   UNL     1      -8.344   5.785  67.852  1.00  0.00    -0.104 A  
HETATM    7  C   UNL     1      -7.926   7.010  68.363  1.00  0.00    -0.123 A  
HETATM    8  C   UNL     1      -7.638   7.139  69.723  1.00  0.00    -0.103 A  
HETATM    9  C   UNL     1      -7.271   8.554  70.043  1.00  0.00    -0.051 C  
HETATM   10  C   UNL     1      -8.390   9.182  69.195  1.00  0.00    -0.123 C  
HETATM   11  C   UNL     1      -8.133   8.433  67.808  1.00  0.00    -0.122 C  
BRANCH   4  12
HETATM   12  C   UNL     1     -10.082   4.595  70.956  1.00  0.00    -0.246 C  
HETATM   13  C   UNL     1      -9.697   3.987  72.305  1.00  0.00    -0.217 C  
ENDBRANCH   4  12
BRANCH  10  14
HETATM   14  N   UNL     1      -8.543  10.641  69.371  1.00  0.00    -0.354 NA 
HETATM   15  H   UNL     1      -8.745  10.894  70.338  1.00  0.00     0.000 HD 
BRANCH  14  16
HETATM   16  C   UNL     1      -7.313  11.343  68.842  1.00  0.00    -0.114 C  
BRANCH  16  17
HETATM   17  C   UNL     1      -7.304  11.668  67.323  1.00  0.00    -0.136 C  
HETATM   18  H   UNL     1      -6.397  12.968  66.187  1.00  0.00     0.000 HD 
HETATM   19  O   UNL     1      -6.402  12.769  67.116  1.00  0.00    -0.227 OA 
BRANCH  17  20
HETATM   20  C   UNL     1      -8.683  11.997  66.716  1.00  0.00    -0.192 A  
HETATM   21  C   UNL     1      -9.480  13.078  67.163  1.00  0.00    -0.230 A  
HETATM   22  C   UNL     1      -8.992  14.096  68.104  1.00  0.00    -0.188 C  
HETATM   23  C   UNL     1      -9.790  15.070  68.561  1.00  0.00    -0.217 C  
HETATM   24  C   UNL     1     -11.218  15.143  68.157  1.00  0.00    -0.320 C  
HETATM   25  N   UNL     1     -11.643  14.232  67.233  1.00  0.00    -0.358 N  
HETATM   26  O   UNL     1     -11.961  15.989  68.627  1.00  0.00    -0.306 OA 
HETATM   27  H   UNL     1     -12.610  14.286  66.913  1.00  0.00     0.000 HD 
HETATM   28  C   UNL     1     -10.820  13.220  66.696  1.00  0.00    -0.281 A  
HETATM   29  C   UNL     1     -11.336  12.336  65.745  1.00  0.00    -0.355 A  
HETATM   30  C   UNL     1     -10.543  11.313  65.251  1.00  0.00    -0.323 A  
HETATM   31  O   UNL     1     -12.606  12.427  65.244  1.00  0.00    -0.636 OA 
HETATM   32  C   UNL     1      -9.234  11.150  65.723  1.00  0.00    -0.234 A  
HETATM   33  H   UNL     1     -12.957  11.826  64.598  1.00  0.00     0.000 HD 
ENDBRANCH  17  20
ENDBRANCH  16  17
ENDBRANCH  14  16
ENDBRANCH  10  14
ENDBRANCH   2   3
TORSDOF 6
ENDMDL
MODEL      278
REMARK 921   NORMALIZED FREE ENERGY PREDICTED BY IDOCK:   -4.04 KCAL/MOL
REMARK 922        TOTAL FREE ENERGY PREDICTED BY IDOCK:   -6.73 KCAL/MOL
REMARK 923 INTER-LIGAND FREE ENERGY PREDICTED BY IDOCK:   -5.98 KCAL/MOL
REMARK 924 INTRA-LIGAND FREE ENERGY PREDICTED BY IDOCK:   -0.76 KCAL/MOL
REMARK 927      BINDING AFFINITY PREDICTED BY RF-SCORE:    0.00 PKD
ROOT
HETATM    1  C   UNL     1      -6.728   5.167  74.184  1.00  0.00    -0.075 C  
HETATM    2  C   UNL     1      -7.804   4.320  73.524  1.00  0.00    -0.086 C  
ENDROOT
BRANCH   2   3
HETATM    3  C   UNL     1      -8.764   4.985  72.557  1.00  0.00    -0.120 A  
HETATM    4  C   UNL     1      -9.581   4.132  71.759  1.00  0.00    -0.223 A  
HETATM    5  C   UNL     1     -10.728   4.652  71.157  1.00  0.00     0.198 A  
HETATM    6  C   UNL     1      -8.822   6.374  72.320  1.00  0.00    -0.135 A  
HETATM    7  C   UNL     1      -9.778   6.838  71.422  1.00  0.00    -0.177 A  
HETATM    8  C   UNL     1     -10.851   6.021  71.060  1.00  0.00    -0.345 A  
HETATM    9  C   UNL     1     -11.706   6.709  70.044  1.00  0.00    -0.378 C  
HETATM   10  C   UNL     1     -10.530   7.241  69.209  1.00  0.00    -0.216 C  
HETATM   11  C   UNL     1      -9.679   7.949  70.361  1.00  0.00    -0.179 C  
BRANCH   4  12
HETATM   12  C   UNL     1      -9.070   2.751  71.381  1.00  0.00    -0.175 C  
HETATM   13  C   UNL     1      -9.399   2.258  69.972  1.00  0.00    -0.175 C  
ENDBRANCH   4  12
BRANCH  10  14
HETATM   14  N   UNL     1     -10.921   7.856  67.924  1.00  0.00    -0.478 NA 
HETATM   15  H   UNL     1     -11.819   8.335  67.983  1.00  0.00     0.000 HD 
BRANCH  14  16
HETATM   16  C   UNL     1      -9.815   8.769  67.447  1.00  0.00    -0.194 C  
BRANCH  16  17
HETATM   17  C   UNL     1     -10.258  10.076  66.734  1.00  0.00    -0.232 C  
HETATM   18  H   UNL     1     -10.430  10.657  64.880  1.00  0.00     0.000 HD 
HETATM   19  O   UNL     1     -10.159   9.857  65.316  1.00  0.00    -0.313 OA 
BRANCH  17  20
HETATM   20  C   UNL     1      -9.464  11.338  67.128  1.00  0.00    -0.183 A  
HETATM   21  C   UNL     1     -10.087  12.532  67.565  1.00  0.00    -0.207 A  
HETATM   22  C   UNL     1     -11.522  12.620  67.869  1.00  0.00    -0.360 C  
HETATM   23  C   UNL     1     -12.096  13.778  68.219  1.00  0.00    -0.314 C  
HETATM   24  C   UNL     1     -11.307  15.036  68.282  1.00  0.00    -0.318 C  
HETATM   25  N   UNL     1      -9.963  14.931  68.060  1.00  0.00    -0.218 N  
HETATM   26  O   UNL     1     -11.843  16.102  68.532  1.00  0.00    -0.300 OA 
HETATM   27  H   UNL     1      -9.395  15.775  68.135  1.00  0.00     0.000 HD 
HETATM   28  C   UNL     1      -9.317  13.720  67.735  1.00  0.00    -0.213 A  
HETATM   29  C   UNL     1      -7.934  13.702  67.537  1.00  0.00    -0.182 A  
HETATM   30  C   UNL     1      -7.303  12.523  67.172  1.00  0.00    -0.066 A  
HETATM   31  O   UNL     1      -7.136  14.802  67.699  1.00  0.00    -0.156 OA 
HETATM   32  C   UNL     1      -8.055  11.357  66.977  1.00  0.00    -0.157 A  
HETATM   33  H   UNL     1      -6.196  14.790  67.564  1.00  0.00     0.000 HD 
ENDBRANCH  17  20
ENDBRANCH  16  17
ENDBRANCH  14  16
ENDBRANCH  10  14
ENDBRANCH   2   3
TORSDOF 6
ENDMDL
MODEL      279
REMARK 921   NORMALIZED FREE ENERGY PREDICTED BY IDOCK:   -4.04 KCAL/MOL
REMARK 922        TOTAL FREE ENERGY PREDICTED BY IDOCK:   -6.73 KCAL/MOL
REMARK 923 INTER-LIGAND FREE ENERGY PREDICTED BY IDOCK:   -6.26 KCAL/MOL
REMARK 924 INTRA-LIGAND FREE ENERGY PREDICTED BY IDOCK:   -0.47 KCAL/MOL
REMARK 927      BINDING AFFINITY PREDICTED BY RF-SCORE:    0.00 PKD
ROOT
HETATM    1  C   UNL     1      -7.489  19.575  68.943  1.00  0.00    -0.392 C  
HETATM    2  C   UNL     1      -7.656  18.945  67.570  1.00  0.00    -0.246 C  
ENDROOT
BRANCH   2   3
HETATM    3  C   UNL     1      -8.118  17.503  67.482  1.00  0.00    -0.213 A  
HETATM    4  C   UNL     1      -9.465  17.273  67.075  1.00  0.00    -0.264 A  
HETATM    5  C   UNL     1      -9.831  16.012  66.603  1.00  0.00    -0.273 A  
HETATM    6  C   UNL     1      -7.344  16.392  67.876  1.00  0.00    -0.146 A  
HETATM    7  C   UNL     1      -7.895  15.126  67.707  1.00  0.00    -0.161 A  
HETATM    8  C   UNL     1      -8.994  14.949  66.864  1.00  0.00    -0.277 A  
HETATM    9  C   UNL     1      -9.443  13.523  66.891  1.00  0.00    -0.258 C  
HETATM   10  C   UNL     1      -9.321  13.368  68.416  1.00  0.00    -0.165 C  
HETATM   11  C   UNL     1      -7.825  13.889  68.622  1.00  0.00    -0.120 C  
BRANCH   4  12
HETATM   12  C   UNL     1     -10.525  18.318  67.386  1.00  0.00    -0.430 C  
HETATM   13  C   UNL     1     -10.645  19.487  66.409  1.00  0.00    -0.571 C  
ENDBRANCH   4  12
BRANCH  10  14
HETATM   14  N   UNL     1      -9.876  12.107  68.949  1.00  0.00    -0.417 NA 
HETATM   15  H   UNL     1     -10.847  12.207  69.245  1.00  0.00     0.000 HD 
BRANCH  14  16
HETATM   16  C   UNL     1      -9.700  11.009  67.925  1.00  0.00    -0.172 C  
BRANCH  16  17
HETATM   17  C   UNL     1     -10.596   9.752  68.101  1.00  0.00    -0.231 C  
HETATM   18  H   UNL     1     -12.318   9.378  68.935  1.00  0.00     0.000 HD 
HETATM   19  O   UNL     1     -11.771  10.148  68.828  1.00  0.00    -0.060 OA 
BRANCH  17  20
HETATM   20  C   UNL     1      -9.918   8.560  68.806  1.00  0.00    -0.197 A  
HETATM   21  C   UNL     1      -9.880   7.258  68.250  1.00  0.00    -0.165 A  
HETATM   22  C   UNL     1     -10.307   6.965  66.875  1.00  0.00    -0.332 C  
HETATM   23  C   UNL     1     -10.322   5.714  66.396  1.00  0.00    -0.241 C  
HETATM   24  C   UNL     1      -9.936   4.562  67.252  1.00  0.00    -0.139 C  
HETATM   25  N   UNL     1      -9.480   4.852  68.506  1.00  0.00    -0.135 N  
HETATM   26  O   UNL     1     -10.017   3.417  66.838  1.00  0.00     0.073 OA 
HETATM   27  H   UNL     1      -9.174   4.080  69.098  1.00  0.00     0.000 HD 
HETATM   28  C   UNL     1      -9.407   6.161  69.027  1.00  0.00    -0.128 A  
HETATM   29  C   UNL     1      -8.915   6.368  70.319  1.00  0.00    -0.154 A  
HETATM   30  C   UNL     1      -8.886   7.647  70.850  1.00  0.00    -0.146 A  
HETATM   31  O   UNL     1      -8.432   5.361  71.110  1.00  0.00    -0.121 OA 
HETATM   32  C   UNL     1      -9.373   8.728  70.103  1.00  0.00    -0.181 A  
HETATM   33  H   UNL     1      -8.098   5.502  71.988  1.00  0.00     0.000 HD 
ENDBRANCH  17  20
ENDBRANCH  16  17
ENDBRANCH  14  16
ENDBRANCH  10  14
ENDBRANCH   2   3
TORSDOF 6
ENDMDL
MODEL      280
REMARK 921   NORMALIZED FREE ENERGY PREDICTED BY IDOCK:   -4.03 KCAL/MOL
REMARK 922        TOTAL FREE ENERGY PREDICTED BY IDOCK:   -6.72 KCAL/MOL
REMARK 923 INTER-LIGAND FREE ENERGY PREDICTED BY IDOCK:   -6.32 KCAL/MOL
REMARK 924 INTRA-LIGAND FREE ENERGY PREDICTED BY IDOCK:   -0.40 KCAL/MOL
REMARK 927      BINDING AFFINITY PREDICTED BY RF-SCORE:    0.00 PKD
ROOT
HETATM    1  C   UNL     1     -10.478  19.726  65.819  1.00  0.00    -0.545 C  
HETATM    2  C   UNL     1      -9.631  19.128  66.930  1.00  0.00    -0.379 C  
ENDROOT
BRANCH   2   3
HETATM    3  C   UNL     1      -9.868  17.684  67.330  1.00  0.00    -0.303 A  
HETATM    4  C   UNL     1      -9.104  17.177  68.421  1.00  0.00    -0.263 A  
HETATM    5  C   UNL     1      -9.536  16.024  69.080  1.00  0.00    -0.247 A  
HETATM    6  C   UNL     1     -10.705  16.791  66.631  1.00  0.00    -0.107 A  
HETATM    7  C   UNL     1     -10.844  15.503  67.138  1.00  0.00    -0.316 A  
HETATM    8  C   UNL     1     -10.470  15.227  68.455  1.00  0.00    -0.235 A  
HETATM    9  C   UNL     1     -10.653  13.772  68.751  1.00  0.00    -0.253 C  
HETATM   10  C   UNL     1     -10.058  13.283  67.420  1.00  0.00    -0.233 C  
HETATM   11  C   UNL     1     -10.924  14.154  66.399  1.00  0.00    -0.311 C  
BRANCH   4  12
HETATM   12  C   UNL     1      -7.722  17.748  68.693  1.00  0.00    -0.283 C  
HETATM   13  C   UNL     1      -6.783  17.878  67.494  1.00  0.00    -0.188 C  
ENDBRANCH   4  12
BRANCH  10  14
HETATM   14  N   UNL     1      -9.846  11.823  67.345  1.00  0.00    -0.178 NA 
HETATM   15  H   UNL     1      -8.989  11.582  66.849  1.00  0.00     0.000 HD 
BRANCH  14  16
HETATM   16  C   UNL     1      -9.884  11.238  68.738  1.00  0.00    -0.184 C  
BRANCH  16  17
HETATM   17  C   UNL     1     -10.494   9.816  68.873  1.00  0.00    -0.214 C  
HETATM   18  H   UNL     1     -12.027   9.044  69.801  1.00  0.00     0.000 HD 
HETATM   19  O   UNL     1     -11.654   9.915  69.718  1.00  0.00    -0.191 OA 
BRANCH  17  20
HETATM   20  C   UNL     1      -9.534   8.742  69.424  1.00  0.00    -0.161 A  
HETATM   21  C   UNL     1      -9.522   7.408  68.950  1.00  0.00    -0.144 A  
HETATM   22  C   UNL     1     -10.280   6.972  67.769  1.00  0.00    -0.227 C  
HETATM   23  C   UNL     1     -10.302   5.690  67.382  1.00  0.00    -0.284 C  
HETATM   24  C   UNL     1      -9.583   4.644  68.156  1.00  0.00    -0.148 C  
HETATM   25  N   UNL     1      -8.831   5.069  69.213  1.00  0.00    -0.091 N  
HETATM   26  O   UNL     1      -9.661   3.467  67.844  1.00  0.00    -0.190 OA 
HETATM   27  H   UNL     1      -8.299   4.374  69.737  1.00  0.00     0.000 HD 
HETATM   28  C   UNL     1      -8.747   6.417  69.622  1.00  0.00    -0.138 A  
HETATM   29  C   UNL     1      -7.942   6.765  70.709  1.00  0.00    -0.110 A  
HETATM   30  C   UNL     1      -7.895   8.081  71.141  1.00  0.00    -0.089 A  
HETATM   31  O   UNL     1      -7.162   5.866  71.386  1.00  0.00    -0.075 OA 
HETATM   32  C   UNL     1      -8.673   9.056  70.504  1.00  0.00    -0.238 A  
HETATM   33  H   UNL     1      -6.615   6.102  72.126  1.00  0.00     0.000 HD 
ENDBRANCH  17  20
ENDBRANCH  16  17
ENDBRANCH  14  16
ENDBRANCH  10  14
ENDBRANCH   2   3
TORSDOF 6
ENDMDL
MODEL      281
REMARK 921   NORMALIZED FREE ENERGY PREDICTED BY IDOCK:   -4.03 KCAL/MOL
REMARK 922        TOTAL FREE ENERGY PREDICTED BY IDOCK:   -6.72 KCAL/MOL
REMARK 923 INTER-LIGAND FREE ENERGY PREDICTED BY IDOCK:   -4.69 KCAL/MOL
REMARK 924 INTRA-LIGAND FREE ENERGY PREDICTED BY IDOCK:   -2.03 KCAL/MOL
REMARK 927      BINDING AFFINITY PREDICTED BY RF-SCORE:    0.00 PKD
ROOT
HETATM    1  C   UNL     1      -7.245   8.340  73.110  1.00  0.00    -0.147 C  
HETATM    2  C   UNL     1      -8.540   7.659  72.701  1.00  0.00    -0.171 C  
ENDROOT
BRANCH   2   3
HETATM    3  C   UNL     1      -9.079   7.898  71.303  1.00  0.00    -0.161 A  
HETATM    4  C   UNL     1      -8.646   7.008  70.278  1.00  0.00    -0.140 A  
HETATM    5  C   UNL     1      -9.380   6.921  69.094  1.00  0.00    -0.140 A  
HETATM    6  C   UNL     1      -9.884   8.995  70.936  1.00  0.00    -0.330 A  
HETATM    7  C   UNL     1     -10.326   9.061  69.618  1.00  0.00    -0.217 A  
HETATM    8  C   UNL     1     -10.279   7.925  68.807  1.00  0.00    -0.218 A  
HETATM    9  C   UNL     1     -10.746   8.255  67.426  1.00  0.00    -0.236 C  
HETATM   10  C   UNL     1      -9.973   9.582  67.331  1.00  0.00    -0.189 C  
HETATM   11  C   UNL     1     -10.463  10.277  68.683  1.00  0.00    -0.215 C  
BRANCH   4  12
HETATM   12  C   UNL     1      -7.277   6.355  70.386  1.00  0.00    -0.083 C  
HETATM   13  C   UNL     1      -6.643   5.868  69.083  1.00  0.00    -0.051 C  
ENDBRANCH   4  12
BRANCH  10  14
HETATM   14  N   UNL     1      -9.983  10.201  65.990  1.00  0.00    -0.244 NA 
HETATM   15  H   UNL     1     -10.034  11.218  66.034  1.00  0.00     0.000 HD 
BRANCH  14  16
HETATM   16  C   UNL     1      -8.782   9.722  65.207  1.00  0.00    -0.159 C  
BRANCH  16  17
HETATM   17  C   UNL     1      -7.421  10.385  65.557  1.00  0.00    -0.142 C  
HETATM   18  H   UNL     1      -5.548   9.993  65.181  1.00  0.00     0.000 HD 
HETATM   19  O   UNL     1      -6.380   9.587  64.967  1.00  0.00    -0.076 OA 
BRANCH  17  20
HETATM   20  C   UNL     1      -7.152  10.570  67.064  1.00  0.00    -0.094 A  
HETATM   21  C   UNL     1      -7.297  11.815  67.722  1.00  0.00    -0.106 A  
HETATM   22  C   UNL     1      -7.899  12.993  67.081  1.00  0.00    -0.073 C  
HETATM   23  C   UNL     1      -7.965  14.176  67.706  1.00  0.00    -0.175 C  
HETATM   24  C   UNL     1      -7.398  14.355  69.068  1.00  0.00    -0.127 C  
HETATM   25  N   UNL     1      -6.900  13.240  69.679  1.00  0.00    -0.332 N  
HETATM   26  O   UNL     1      -7.396  15.449  69.609  1.00  0.00    -0.204 OA 
HETATM   27  H   UNL     1      -6.540  13.331  70.629  1.00  0.00     0.000 HD 
HETATM   28  C   UNL     1      -6.856  11.968  69.070  1.00  0.00    -0.105 A  
HETATM   29  C   UNL     1      -6.339  10.878  69.774  1.00  0.00    -0.114 A  
HETATM   30  C   UNL     1      -6.252   9.638  69.161  1.00  0.00    -0.041 A  
HETATM   31  O   UNL     1      -5.914  10.954  71.072  1.00  0.00    -0.342 OA 
HETATM   32  C   UNL     1      -6.659   9.484  67.829  1.00  0.00    -0.062 A  
HETATM   33  H   UNL     1      -5.562  10.212  71.551  1.00  0.00     0.000 HD 
ENDBRANCH  17  20
ENDBRANCH  16  17
ENDBRANCH  14  16
ENDBRANCH  10  14
ENDBRANCH   2   3
TORSDOF 6
ENDMDL
MODEL      282
REMARK 921   NORMALIZED FREE ENERGY PREDICTED BY IDOCK:   -4.02 KCAL/MOL
REMARK 922        TOTAL FREE ENERGY PREDICTED BY IDOCK:   -6.71 KCAL/MOL
REMARK 923 INTER-LIGAND FREE ENERGY PREDICTED BY IDOCK:   -6.19 KCAL/MOL
REMARK 924 INTRA-LIGAND FREE ENERGY PREDICTED BY IDOCK:   -0.51 KCAL/MOL
REMARK 927      BINDING AFFINITY PREDICTED BY RF-SCORE:    0.00 PKD
ROOT
HETATM    1  C   UNL     1      -7.323   4.444  73.951  1.00  0.00    -0.069 C  
HETATM    2  C   UNL     1      -7.799   3.766  72.676  1.00  0.00    -0.076 C  
ENDROOT
BRANCH   2   3
HETATM    3  C   UNL     1      -8.640   4.563  71.697  1.00  0.00    -0.125 A  
HETATM    4  C   UNL     1      -8.117   4.742  70.384  1.00  0.00    -0.083 A  
HETATM    5  C   UNL     1      -8.979   5.107  69.348  1.00  0.00    -0.127 A  
HETATM    6  C   UNL     1      -9.841   5.223  72.031  1.00  0.00    -0.222 A  
HETATM    7  C   UNL     1     -10.516   5.891  71.014  1.00  0.00    -0.296 A  
HETATM    8  C   UNL     1     -10.216   5.617  69.678  1.00  0.00    -0.321 A  
HETATM    9  C   UNL     1     -11.021   6.496  68.775  1.00  0.00    -0.371 C  
HETATM   10  C   UNL     1     -10.812   7.775  69.604  1.00  0.00    -0.184 C  
HETATM   11  C   UNL     1     -11.256   7.241  71.042  1.00  0.00    -0.291 C  
BRANCH   4  12
HETATM   12  C   UNL     1      -6.610   4.770  70.179  1.00  0.00    -0.036 C  
HETATM   13  C   UNL     1      -6.083   5.694  69.081  1.00  0.00    -0.025 C  
ENDBRANCH   4  12
BRANCH  10  14
HETATM   14  N   UNL     1     -11.297   9.010  68.954  1.00  0.00    -0.274 NA 
HETATM   15  H   UNL     1     -12.237   8.903  68.575  1.00  0.00     0.000 HD 
BRANCH  14  16
HETATM   16  C   UNL     1     -11.202  10.160  69.930  1.00  0.00    -0.287 C  
BRANCH  16  17
HETATM   17  C   UNL     1     -11.153  11.586  69.315  1.00  0.00    -0.246 C  
HETATM   18  H   UNL     1     -12.192  12.559  67.982  1.00  0.00     0.000 HD 
HETATM   19  O   UNL     1     -12.222  11.687  68.358  1.00  0.00    -0.498 OA 
BRANCH  17  20
HETATM   20  C   UNL     1      -9.815  11.966  68.649  1.00  0.00    -0.139 A  
HETATM   21  C   UNL     1      -9.570  13.245  68.093  1.00  0.00    -0.227 A  
HETATM   22  C   UNL     1     -10.486  14.381  68.268  1.00  0.00    -0.245 C  
HETATM   23  C   UNL     1     -10.261  15.561  67.676  1.00  0.00    -0.255 C  
HETATM   24  C   UNL     1      -9.087  15.761  66.787  1.00  0.00    -0.249 C  
HETATM   25  N   UNL     1      -8.209  14.720  66.684  1.00  0.00    -0.370 N  
HETATM   26  O   UNL     1      -8.920  16.813  66.193  1.00  0.00    -0.355 OA 
HETATM   27  H   UNL     1      -7.376  14.847  66.109  1.00  0.00     0.000 HD 
HETATM   28  C   UNL     1      -8.389  13.478  67.329  1.00  0.00    -0.179 A  
HETATM   29  C   UNL     1      -7.433  12.471  67.177  1.00  0.00    -0.075 A  
HETATM   30  C   UNL     1      -7.631  11.235  67.771  1.00  0.00    -0.104 A  
HETATM   31  O   UNL     1      -6.272  12.635  66.470  1.00  0.00    -0.303 OA 
HETATM   32  C   UNL     1      -8.800  10.988  68.502  1.00  0.00    -0.159 A  
HETATM   33  H   UNL     1      -5.622  11.950  66.366  1.00  0.00     0.000 HD 
ENDBRANCH  17  20
ENDBRANCH  16  17
ENDBRANCH  14  16
ENDBRANCH  10  14
ENDBRANCH   2   3
TORSDOF 6
ENDMDL
MODEL      283
REMARK 921   NORMALIZED FREE ENERGY PREDICTED BY IDOCK:   -4.01 KCAL/MOL
REMARK 922        TOTAL FREE ENERGY PREDICTED BY IDOCK:   -6.70 KCAL/MOL
REMARK 923 INTER-LIGAND FREE ENERGY PREDICTED BY IDOCK:   -5.12 KCAL/MOL
REMARK 924 INTRA-LIGAND FREE ENERGY PREDICTED BY IDOCK:   -1.58 KCAL/MOL
REMARK 927      BINDING AFFINITY PREDICTED BY RF-SCORE:    0.00 PKD
ROOT
HETATM    1  C   UNL     1     -13.014  14.091  64.524  1.00  0.00     0.285 C  
HETATM    2  C   UNL     1     -12.077  12.901  64.394  1.00  0.00    -0.474 C  
ENDROOT
BRANCH   2   3
HETATM    3  C   UNL     1     -11.368  12.393  65.635  1.00  0.00    -0.387 A  
HETATM    4  C   UNL     1     -10.170  11.647  65.441  1.00  0.00    -0.306 A  
HETATM    5  C   UNL     1      -9.280  11.494  66.506  1.00  0.00    -0.203 A  
HETATM    6  C   UNL     1     -11.871  12.516  66.947  1.00  0.00    -0.404 A  
HETATM    7  C   UNL     1     -11.089  12.025  67.988  1.00  0.00    -0.292 A  
HETATM    8  C   UNL     1      -9.734  11.760  67.779  1.00  0.00    -0.185 A  
HETATM    9  C   UNL     1      -9.123  11.186  69.018  1.00  0.00    -0.036 C  
HETATM   10  C   UNL     1     -10.291  10.234  69.322  1.00  0.00    -0.231 C  
HETATM   11  C   UNL     1     -11.506  11.269  69.263  1.00  0.00    -0.369 C  
BRANCH   4  12
HETATM   12  C   UNL     1      -9.995  10.834  64.168  1.00  0.00    -0.405 C  
HETATM   13  C   UNL     1      -9.027  11.392  63.124  1.00  0.00    -0.090 C  
ENDBRANCH   4  12
BRANCH  10  14
HETATM   14  N   UNL     1     -10.029   9.273  70.413  1.00  0.00    -0.219 NA 
HETATM   15  H   UNL     1     -10.463   8.366  70.241  1.00  0.00     0.000 HD 
BRANCH  14  16
HETATM   16  C   UNL     1      -8.538   9.161  70.634  1.00  0.00    -0.226 C  
BRANCH  16  17
HETATM   17  C   UNL     1      -7.854   7.876  70.090  1.00  0.00    -0.097 C  
HETATM   18  H   UNL     1      -6.057   7.122  70.163  1.00  0.00     0.000 HD 
HETATM   19  O   UNL     1      -6.475   7.907  70.496  1.00  0.00    -0.037 OA 
BRANCH  17  20
HETATM   20  C   UNL     1      -7.947   7.682  68.562  1.00  0.00    -0.123 A  
HETATM   21  C   UNL     1      -7.234   8.488  67.642  1.00  0.00    -0.084 A  
HETATM   22  C   UNL     1      -6.200   9.447  68.053  1.00  0.00    -0.057 C  
HETATM   23  C   UNL     1      -5.588  10.243  67.166  1.00  0.00    -0.041 C  
HETATM   24  C   UNL     1      -5.956  10.211  65.726  1.00  0.00    -0.088 C  
HETATM   25  N   UNL     1      -6.872   9.271  65.346  1.00  0.00    -0.073 N  
HETATM   26  O   UNL     1      -5.449  10.984  64.931  1.00  0.00    -0.148 OA 
HETATM   27  H   UNL     1      -7.112   9.206  64.357  1.00  0.00     0.000 HD 
HETATM   28  C   UNL     1      -7.502   8.386  66.245  1.00  0.00    -0.089 A  
HETATM   29  C   UNL     1      -8.420   7.447  65.766  1.00  0.00    -0.143 A  
HETATM   30  C   UNL     1      -9.075   6.607  66.653  1.00  0.00    -0.159 A  
HETATM   31  O   UNL     1      -8.710   7.287  64.438  1.00  0.00    -0.321 OA 
HETATM   32  C   UNL     1      -8.838   6.718  68.029  1.00  0.00    -0.119 A  
HETATM   33  H   UNL     1      -9.334   6.649  64.113  1.00  0.00     0.000 HD 
ENDBRANCH  17  20
ENDBRANCH  16  17
ENDBRANCH  14  16
ENDBRANCH  10  14
ENDBRANCH   2   3
TORSDOF 6
ENDMDL
MODEL      284
REMARK 921   NORMALIZED FREE ENERGY PREDICTED BY IDOCK:   -4.00 KCAL/MOL
REMARK 922        TOTAL FREE ENERGY PREDICTED BY IDOCK:   -6.69 KCAL/MOL
REMARK 923 INTER-LIGAND FREE ENERGY PREDICTED BY IDOCK:   -4.61 KCAL/MOL
REMARK 924 INTRA-LIGAND FREE ENERGY PREDICTED BY IDOCK:   -2.08 KCAL/MOL
REMARK 927      BINDING AFFINITY PREDICTED BY RF-SCORE:    0.00 PKD
ROOT
HETATM    1  C   UNL     1      -8.250   2.406  74.322  1.00  0.00    -0.059 C  
HETATM    2  C   UNL     1      -7.851   3.863  74.486  1.00  0.00    -0.085 C  
ENDROOT
BRANCH   2   3
HETATM    3  C   UNL     1      -7.489   4.663  73.248  1.00  0.00    -0.083 A  
HETATM    4  C   UNL     1      -8.400   5.681  72.841  1.00  0.00    -0.119 A  
HETATM    5  C   UNL     1      -7.960   6.687  71.979  1.00  0.00    -0.102 A  
HETATM    6  C   UNL     1      -6.379   4.394  72.422  1.00  0.00    -0.021 A  
HETATM    7  C   UNL     1      -6.161   5.236  71.336  1.00  0.00    -0.030 A  
HETATM    8  C   UNL     1      -6.789   6.482  71.281  1.00  0.00    -0.059 A  
HETATM    9  C   UNL     1      -6.453   7.176  70.000  1.00  0.00    -0.036 C  
HETATM   10  C   UNL     1      -6.629   5.929  69.117  1.00  0.00    -0.051 C  
HETATM   11  C   UNL     1      -5.694   4.903  69.907  1.00  0.00    -0.016 C  
BRANCH   4  12
HETATM   12  C   UNL     1      -9.880   5.525  73.151  1.00  0.00    -0.177 C  
HETATM   13  C   UNL     1     -10.500   6.564  74.085  1.00  0.00    -0.261 C  
ENDBRANCH   4  12
BRANCH  10  14
HETATM   14  N   UNL     1      -6.582   6.197  67.664  1.00  0.00    -0.053 NA 
HETATM   15  H   UNL     1      -5.713   5.873  67.240  1.00  0.00     0.000 HD 
BRANCH  14  16
HETATM   16  C   UNL     1      -7.800   5.594  67.003  1.00  0.00    -0.101 C  
BRANCH  16  17
HETATM   17  C   UNL     1      -8.842   6.596  66.432  1.00  0.00    -0.144 C  
HETATM   18  H   UNL     1      -8.953   7.735  64.853  1.00  0.00     0.000 HD 
HETATM   19  O   UNL     1      -8.315   7.123  65.202  1.00  0.00    -0.136 OA 
BRANCH  17  20
HETATM   20  C   UNL     1      -9.225   7.752  67.378  1.00  0.00    -0.156 A  
HETATM   21  C   UNL     1     -10.106   7.588  68.474  1.00  0.00    -0.198 A  
HETATM   22  C   UNL     1     -10.583   6.273  68.926  1.00  0.00    -0.321 C  
HETATM   23  C   UNL     1     -11.468   6.153  69.924  1.00  0.00    -0.371 C  
HETATM   24  C   UNL     1     -12.032   7.352  70.596  1.00  0.00    -0.176 C  
HETATM   25  N   UNL     1     -11.534   8.564  70.212  1.00  0.00    -0.445 N  
HETATM   26  O   UNL     1     -12.890   7.244  71.457  1.00  0.00    -0.359 OA 
HETATM   27  H   UNL     1     -11.880   9.399  70.686  1.00  0.00     0.000 HD 
HETATM   28  C   UNL     1     -10.569   8.726  69.197  1.00  0.00    -0.184 A  
HETATM   29  C   UNL     1     -10.106  10.005  68.876  1.00  0.00    -0.190 A  
HETATM   30  C   UNL     1      -9.192  10.171  67.848  1.00  0.00    -0.144 A  
HETATM   31  O   UNL     1     -10.496  11.136  69.541  1.00  0.00    -0.410 OA 
HETATM   32  C   UNL     1      -8.752   9.062  67.115  1.00  0.00    -0.123 A  
HETATM   33  H   UNL     1     -10.182  12.005  69.323  1.00  0.00     0.000 HD 
ENDBRANCH  17  20
ENDBRANCH  16  17
ENDBRANCH  14  16
ENDBRANCH  10  14
ENDBRANCH   2   3
TORSDOF 6
ENDMDL
MODEL      285
REMARK 921   NORMALIZED FREE ENERGY PREDICTED BY IDOCK:   -3.99 KCAL/MOL
REMARK 922        TOTAL FREE ENERGY PREDICTED BY IDOCK:   -6.67 KCAL/MOL
REMARK 923 INTER-LIGAND FREE ENERGY PREDICTED BY IDOCK:   -5.41 KCAL/MOL
REMARK 924 INTRA-LIGAND FREE ENERGY PREDICTED BY IDOCK:   -1.26 KCAL/MOL
REMARK 927      BINDING AFFINITY PREDICTED BY RF-SCORE:    0.00 PKD
ROOT
HETATM    1  C   UNL     1      -9.165  14.066  66.801  1.00  0.00    -0.280 C  
HETATM    2  C   UNL     1      -8.964  13.058  67.920  1.00  0.00    -0.200 C  
ENDROOT
BRANCH   2   3
HETATM    3  C   UNL     1      -9.276  11.598  67.651  1.00  0.00    -0.178 A  
HETATM    4  C   UNL     1     -10.501  11.087  68.170  1.00  0.00    -0.216 A  
HETATM    5  C   UNL     1     -11.027   9.907  67.643  1.00  0.00    -0.263 A  
HETATM    6  C   UNL     1      -8.393  10.697  67.021  1.00  0.00    -0.126 A  
HETATM    7  C   UNL     1      -8.835   9.394  66.818  1.00  0.00    -0.142 A  
HETATM    8  C   UNL     1     -10.197   9.097  66.900  1.00  0.00    -0.336 A  
HETATM    9  C   UNL     1     -10.420   7.630  66.706  1.00  0.00    -0.319 C  
HETATM   10  C   UNL     1      -9.246   7.193  67.599  1.00  0.00    -0.125 C  
HETATM   11  C   UNL     1      -8.074   8.061  66.951  1.00  0.00    -0.108 C  
BRANCH   4  12
HETATM   12  C   UNL     1     -11.084  11.693  69.437  1.00  0.00    -0.268 C  
HETATM   13  C   UNL     1     -12.143  10.869  70.169  1.00  0.00    -0.431 C  
ENDBRANCH   4  12
BRANCH  10  14
HETATM   14  N   UNL     1      -9.195   5.742  67.873  1.00  0.00    -0.109 NA 
HETATM   15  H   UNL     1      -8.416   5.491  68.480  1.00  0.00     0.000 HD 
BRANCH  14  16
HETATM   16  C   UNL     1     -10.525   5.290  68.433  1.00  0.00    -0.073 C  
BRANCH  16  17
HETATM   17  C   UNL     1     -10.743   5.510  69.955  1.00  0.00    -0.286 C  
HETATM   18  H   UNL     1     -11.669   6.834  71.048  1.00  0.00     0.000 HD 
HETATM   19  O   UNL     1     -11.536   6.699  70.117  1.00  0.00    -0.350 OA 
BRANCH  17  20
HETATM   20  C   UNL     1      -9.453   5.620  70.792  1.00  0.00    -0.203 A  
HETATM   21  C   UNL     1      -8.751   6.838  70.964  1.00  0.00    -0.137 A  
HETATM   22  C   UNL     1      -9.284   8.136  70.528  1.00  0.00    -0.157 C  
HETATM   23  C   UNL     1      -8.570   9.263  70.644  1.00  0.00    -0.270 C  
HETATM   24  C   UNL     1      -7.189   9.241  71.192  1.00  0.00    -0.033 C  
HETATM   25  N   UNL     1      -6.729   8.041  71.653  1.00  0.00    -0.051 N  
HETATM   26  O   UNL     1      -6.513  10.256  71.233  1.00  0.00    -0.326 OA 
HETATM   27  H   UNL     1      -5.797   8.010  72.068  1.00  0.00     0.000 HD 
HETATM   28  C   UNL     1      -7.470   6.843  71.589  1.00  0.00    -0.085 A  
HETATM   29  C   UNL     1      -6.925   5.661  72.097  1.00  0.00    -0.081 A  
HETATM   30  C   UNL     1      -7.632   4.474  71.993  1.00  0.00    -0.088 A  
HETATM   31  O   UNL     1      -5.709   5.600  72.722  1.00  0.00    -0.025 OA 
HETATM   32  C   UNL     1      -8.880   4.454  71.357  1.00  0.00    -0.147 A  
HETATM   33  H   UNL     1      -5.338   4.797  73.067  1.00  0.00     0.000 HD 
ENDBRANCH  17  20
ENDBRANCH  16  17
ENDBRANCH  14  16
ENDBRANCH  10  14
ENDBRANCH   2   3
TORSDOF 6
ENDMDL
MODEL      286
REMARK 921   NORMALIZED FREE ENERGY PREDICTED BY IDOCK:   -3.99 KCAL/MOL
REMARK 922        TOTAL FREE ENERGY PREDICTED BY IDOCK:   -6.66 KCAL/MOL
REMARK 923 INTER-LIGAND FREE ENERGY PREDICTED BY IDOCK:   -5.55 KCAL/MOL
REMARK 924 INTRA-LIGAND FREE ENERGY PREDICTED BY IDOCK:   -1.11 KCAL/MOL
REMARK 927      BINDING AFFINITY PREDICTED BY RF-SCORE:    0.00 PKD
ROOT
HETATM    1  C   UNL     1     -10.441  14.224  64.617  1.00  0.00    -0.325 C  
HETATM    2  C   UNL     1     -11.418  13.081  64.836  1.00  0.00    -0.348 C  
ENDROOT
BRANCH   2   3
HETATM    3  C   UNL     1     -10.950  11.860  65.605  1.00  0.00    -0.353 A  
HETATM    4  C   UNL     1     -10.979  11.936  67.028  1.00  0.00    -0.326 A  
HETATM    5  C   UNL     1     -10.945  10.758  67.776  1.00  0.00    -0.354 A  
HETATM    6  C   UNL     1     -10.392  10.709  65.011  1.00  0.00    -0.341 A  
HETATM    7  C   UNL     1     -10.037   9.656  65.849  1.00  0.00    -0.304 A  
HETATM    8  C   UNL     1     -10.539   9.599  67.151  1.00  0.00    -0.298 A  
HETATM    9  C   UNL     1      -9.971   8.419  67.873  1.00  0.00    -0.228 C  
HETATM   10  C   UNL     1      -8.534   8.623  67.365  1.00  0.00    -0.123 C  
HETATM   11  C   UNL     1      -8.813   8.722  65.795  1.00  0.00    -0.233 C  
BRANCH   4  12
HETATM   12  C   UNL     1     -10.804  13.285  67.706  1.00  0.00    -0.268 C  
HETATM   13  C   UNL     1     -12.050  13.901  68.343  1.00  0.00    -0.327 C  
ENDBRANCH   4  12
BRANCH  10  14
HETATM   14  N   UNL     1      -7.529   7.752  68.009  1.00  0.00    -0.105 NA 
HETATM   15  H   UNL     1      -6.664   8.250  68.218  1.00  0.00     0.000 HD 
BRANCH  14  16
HETATM   16  C   UNL     1      -8.132   7.113  69.238  1.00  0.00    -0.120 C  
BRANCH  16  17
HETATM   17  C   UNL     1      -8.131   5.560  69.281  1.00  0.00    -0.095 C  
HETATM   18  H   UNL     1      -7.381   4.204  70.466  1.00  0.00     0.000 HD 
HETATM   19  O   UNL     1      -7.382   5.154  70.440  1.00  0.00    -0.059 OA 
BRANCH  17  20
HETATM   20  C   UNL     1      -7.567   4.871  68.022  1.00  0.00    -0.082 A  
HETATM   21  C   UNL     1      -8.374   4.515  66.915  1.00  0.00    -0.105 A  
HETATM   22  C   UNL     1      -9.775   4.936  66.779  1.00  0.00    -0.195 C  
HETATM   23  C   UNL     1     -10.534   4.530  65.753  1.00  0.00    -0.268 C  
HETATM   24  C   UNL     1      -9.997   3.603  64.723  1.00  0.00    -0.160 C  
HETATM   25  N   UNL     1      -8.676   3.270  64.824  1.00  0.00    -0.102 N  
HETATM   26  O   UNL     1     -10.708   3.178  63.828  1.00  0.00    -0.239 OA 
HETATM   27  H   UNL     1      -8.276   2.665  64.107  1.00  0.00     0.000 HD 
HETATM   28  C   UNL     1      -7.835   3.716  65.864  1.00  0.00    -0.089 A  
HETATM   29  C   UNL     1      -6.491   3.334  65.883  1.00  0.00    -0.033 A  
HETATM   30  C   UNL     1      -5.674   3.733  66.929  1.00  0.00    -0.022 A  
HETATM   31  O   UNL     1      -5.908   2.583  64.898  1.00  0.00    -0.016 OA 
HETATM   32  C   UNL     1      -6.201   4.496  67.979  1.00  0.00    -0.036 A  
HETATM   33  H   UNL     1      -4.994   2.323  64.911  1.00  0.00     0.000 HD 
ENDBRANCH  17  20
ENDBRANCH  16  17
ENDBRANCH  14  16
ENDBRANCH  10  14
ENDBRANCH   2   3
TORSDOF 6
ENDMDL
MODEL      287
REMARK 921   NORMALIZED FREE ENERGY PREDICTED BY IDOCK:   -3.98 KCAL/MOL
REMARK 922        TOTAL FREE ENERGY PREDICTED BY IDOCK:   -6.65 KCAL/MOL
REMARK 923 INTER-LIGAND FREE ENERGY PREDICTED BY IDOCK:   -5.88 KCAL/MOL
REMARK 924 INTRA-LIGAND FREE ENERGY PREDICTED BY IDOCK:   -0.76 KCAL/MOL
REMARK 927      BINDING AFFINITY PREDICTED BY RF-SCORE:    0.00 PKD
ROOT
HETATM    1  C   UNL     1     -12.245  12.892  64.911  1.00  0.00    -0.504 C  
HETATM    2  C   UNL     1     -11.948  13.390  66.316  1.00  0.00    -0.460 C  
ENDROOT
BRANCH   2   3
HETATM    3  C   UNL     1     -11.714  12.372  67.416  1.00  0.00    -0.417 A  
HETATM    4  C   UNL     1     -12.097  12.742  68.738  1.00  0.00    -0.165 A  
HETATM    5  C   UNL     1     -12.276  11.747  69.701  1.00  0.00    -0.248 A  
HETATM    6  C   UNL     1     -11.050  11.142  67.234  1.00  0.00    -0.366 A  
HETATM    7  C   UNL     1     -10.938  10.299  68.336  1.00  0.00    -0.308 A  
HETATM    8  C   UNL     1     -11.751  10.497  69.454  1.00  0.00    -0.295 A  
HETATM    9  C   UNL     1     -11.408   9.512  70.525  1.00  0.00    -0.343 C  
HETATM   10  C   UNL     1      -9.885   9.652  70.360  1.00  0.00    -0.256 C  
HETATM   11  C   UNL     1      -9.760   9.414  68.786  1.00  0.00    -0.161 C  
BRANCH   4  12
HETATM   12  C   UNL     1     -12.069  14.208  69.140  1.00  0.00    -0.362 C  
HETATM   13  C   UNL     1     -12.122  14.511  70.638  1.00  0.00    -0.392 C  
ENDBRANCH   4  12
BRANCH  10  14
HETATM   14  N   UNL     1      -9.092   8.967  71.402  1.00  0.00    -0.282 NA 
HETATM   15  H   UNL     1      -9.656   8.711  72.211  1.00  0.00     0.000 HD 
BRANCH  14  16
HETATM   16  C   UNL     1      -8.390   7.775  70.794  1.00  0.00    -0.116 C  
BRANCH  16  17
HETATM   17  C   UNL     1      -9.281   6.550  70.449  1.00  0.00    -0.155 C  
HETATM   18  H   UNL     1     -10.585   5.466  71.413  1.00  0.00     0.000 HD 
HETATM   19  O   UNL     1     -10.040   6.215  71.624  1.00  0.00    -0.183 OA 
BRANCH  17  20
HETATM   20  C   UNL     1      -8.520   5.308  69.944  1.00  0.00    -0.098 A  
HETATM   21  C   UNL     1      -8.071   5.174  68.608  1.00  0.00    -0.086 A  
HETATM   22  C   UNL     1      -8.115   6.275  67.635  1.00  0.00    -0.117 C  
HETATM   23  C   UNL     1      -7.744   6.101  66.360  1.00  0.00    -0.102 C  
HETATM   24  C   UNL     1      -7.301   4.771  65.866  1.00  0.00    -0.077 C  
HETATM   25  N   UNL     1      -7.203   3.772  66.792  1.00  0.00    -0.067 N  
HETATM   26  O   UNL     1      -7.030   4.597  64.689  1.00  0.00    -0.048 OA 
HETATM   27  H   UNL     1      -6.865   2.861  66.483  1.00  0.00     0.000 HD 
HETATM   28  C   UNL     1      -7.541   3.931  68.152  1.00  0.00    -0.066 A  
HETATM   29  C   UNL     1      -7.398   2.856  69.034  1.00  0.00    -0.048 A  
HETATM   30  C   UNL     1      -7.773   2.997  70.360  1.00  0.00    -0.043 A  
HETATM   31  O   UNL     1      -6.881   1.644  68.665  1.00  0.00    -0.032 OA 
HETATM   32  C   UNL     1      -8.319   4.205  70.811  1.00  0.00    -0.086 A  
HETATM   33  H   UNL     1      -6.785   0.913  69.264  1.00  0.00     0.000 HD 
ENDBRANCH  17  20
ENDBRANCH  16  17
ENDBRANCH  14  16
ENDBRANCH  10  14
ENDBRANCH   2   3
TORSDOF 6
ENDMDL
MODEL      288
REMARK 921   NORMALIZED FREE ENERGY PREDICTED BY IDOCK:   -3.95 KCAL/MOL
REMARK 922        TOTAL FREE ENERGY PREDICTED BY IDOCK:   -6.61 KCAL/MOL
REMARK 923 INTER-LIGAND FREE ENERGY PREDICTED BY IDOCK:   -5.75 KCAL/MOL
REMARK 924 INTRA-LIGAND FREE ENERGY PREDICTED BY IDOCK:   -0.86 KCAL/MOL
REMARK 927      BINDING AFFINITY PREDICTED BY RF-SCORE:    0.00 PKD
ROOT
HETATM    1  C   UNL     1      -7.818   8.323  69.940  1.00  0.00    -0.102 C  
HETATM    2  C   UNL     1      -8.187   8.623  68.496  1.00  0.00    -0.122 C  
ENDROOT
BRANCH   2   3
HETATM    3  C   UNL     1      -9.267   9.651  68.219  1.00  0.00    -0.131 A  
HETATM    4  C   UNL     1      -9.146  10.417  67.023  1.00  0.00    -0.153 A  
HETATM    5  C   UNL     1     -10.268  11.076  66.517  1.00  0.00    -0.280 A  
HETATM    6  C   UNL     1     -10.311   9.971  69.111  1.00  0.00    -0.233 A  
HETATM    7  C   UNL     1     -11.245  10.917  68.702  1.00  0.00    -0.326 A  
HETATM    8  C   UNL     1     -11.350  11.257  67.352  1.00  0.00    -0.349 A  
HETATM    9  C   UNL     1     -12.373  12.332  67.166  1.00  0.00     0.599 C  
HETATM   10  C   UNL     1     -11.916  13.168  68.374  1.00  0.00    -0.289 C  
HETATM   11  C   UNL     1     -11.929  12.040  69.504  1.00  0.00    -0.346 C  
BRANCH   4  12
HETATM   12  C   UNL     1      -7.765  10.700  66.455  1.00  0.00    -0.141 C  
HETATM   13  C   UNL     1      -7.566  10.430  64.964  1.00  0.00    -0.086 C  
ENDBRANCH   4  12
BRANCH  10  14
HETATM   14  N   UNL     1     -12.555  14.497  68.473  1.00  0.00    -0.353 NA 
HETATM   15  H   UNL     1     -13.475  14.451  68.910  1.00  0.00     0.000 HD 
BRANCH  14  16
HETATM   16  C   UNL     1     -11.626  15.447  69.195  1.00  0.00    -0.339 C  
BRANCH  16  17
HETATM   17  C   UNL     1     -10.825  16.437  68.305  1.00  0.00    -0.347 C  
HETATM   18  H   UNL     1     -10.518  16.649  66.391  1.00  0.00     0.000 HD 
HETATM   19  O   UNL     1     -11.008  16.043  66.935  1.00  0.00    -0.254 OA 
BRANCH  17  20
HETATM   20  C   UNL     1      -9.320  16.535  68.627  1.00  0.00    -0.241 A  
HETATM   21  C   UNL     1      -8.469  17.500  68.036  1.00  0.00    -0.242 A  
HETATM   22  C   UNL     1      -8.971  18.612  67.217  1.00  0.00    -0.283 C  
HETATM   23  C   UNL     1      -8.138  19.473  66.616  1.00  0.00    -0.324 C  
HETATM   24  C   UNL     1      -6.664  19.317  66.728  1.00  0.00    -0.196 C  
HETATM   25  N   UNL     1      -6.211  18.320  67.543  1.00  0.00    -0.178 N  
HETATM   26  O   UNL     1      -5.907  20.059  66.124  1.00  0.00    -0.164 OA 
HETATM   27  H   UNL     1      -5.204  18.218  67.664  1.00  0.00     0.000 HD 
HETATM   28  C   UNL     1      -7.058  17.424  68.228  1.00  0.00    -0.203 A  
HETATM   29  C   UNL     1      -6.508  16.439  69.052  1.00  0.00    -0.171 A  
HETATM   30  C   UNL     1      -7.336  15.529  69.689  1.00  0.00    -0.163 A  
HETATM   31  O   UNL     1      -5.165  16.322  69.291  1.00  0.00    -0.110 OA 
HETATM   32  C   UNL     1      -8.721  15.580  69.486  1.00  0.00    -0.223 A  
HETATM   33  H   UNL     1      -4.791  15.652  69.851  1.00  0.00     0.000 HD 
ENDBRANCH  17  20
ENDBRANCH  16  17
ENDBRANCH  14  16
ENDBRANCH  10  14
ENDBRANCH   2   3
TORSDOF 6
ENDMDL
MODEL      289
REMARK 921   NORMALIZED FREE ENERGY PREDICTED BY IDOCK:   -3.95 KCAL/MOL
REMARK 922        TOTAL FREE ENERGY PREDICTED BY IDOCK:   -6.61 KCAL/MOL
REMARK 923 INTER-LIGAND FREE ENERGY PREDICTED BY IDOCK:   -5.79 KCAL/MOL
REMARK 924 INTRA-LIGAND FREE ENERGY PREDICTED BY IDOCK:   -0.82 KCAL/MOL
REMARK 927      BINDING AFFINITY PREDICTED BY RF-SCORE:    0.00 PKD
ROOT
HETATM    1  C   UNL     1     -12.733  12.036  63.468  1.00  0.00    -0.567 C  
HETATM    2  C   UNL     1     -11.278  11.597  63.475  1.00  0.00    -0.462 C  
ENDROOT
BRANCH   2   3
HETATM    3  C   UNL     1     -10.561  11.474  64.806  1.00  0.00    -0.362 A  
HETATM    4  C   UNL     1      -9.287  10.835  64.803  1.00  0.00    -0.264 A  
HETATM    5  C   UNL     1      -8.420  11.033  65.879  1.00  0.00    -0.140 A  
HETATM    6  C   UNL     1     -11.114  11.850  66.047  1.00  0.00    -0.369 A  
HETATM    7  C   UNL     1     -10.320  11.704  67.180  1.00  0.00    -0.247 A  
HETATM    8  C   UNL     1      -8.939  11.542  67.049  1.00  0.00    -0.174 A  
HETATM    9  C   UNL     1      -8.311  11.345  68.392  1.00  0.00    -0.153 C  
HETATM   10  C   UNL     1      -9.386  10.373  68.907  1.00  0.00    -0.186 C  
HETATM   11  C   UNL     1     -10.697  11.230  68.596  1.00  0.00    -0.241 C  
BRANCH   4  12
HETATM   12  C   UNL     1      -8.991   9.769  63.760  1.00  0.00    -0.272 C  
HETATM   13  C   UNL     1      -8.080   8.619  64.192  1.00  0.00    -0.162 C  
ENDBRANCH   4  12
BRANCH  10  14
HETATM   14  N   UNL     1      -9.061   9.729  70.197  1.00  0.00    -0.308 NA 
HETATM   15  H   UNL     1      -9.409   8.772  70.249  1.00  0.00     0.000 HD 
BRANCH  14  16
HETATM   16  C   UNL     1      -7.571   9.810  70.436  1.00  0.00    -0.148 C  
BRANCH  16  17
HETATM   17  C   UNL     1      -6.793   8.465  70.408  1.00  0.00    -0.037 C  
HETATM   18  H   UNL     1      -5.558   7.601  69.171  1.00  0.00     0.000 HD 
HETATM   19  O   UNL     1      -6.033   8.423  69.188  1.00  0.00    -0.040 OA 
BRANCH  17  20
HETATM   20  C   UNL     1      -7.669   7.201  70.525  1.00  0.00    -0.094 A  
HETATM   21  C   UNL     1      -8.402   6.671  69.436  1.00  0.00    -0.128 A  
HETATM   22  C   UNL     1      -8.247   7.156  68.057  1.00  0.00    -0.120 C  
HETATM   23  C   UNL     1      -9.000   6.681  67.057  1.00  0.00    -0.120 C  
HETATM   24  C   UNL     1     -10.053   5.662  67.308  1.00  0.00    -0.177 C  
HETATM   25  N   UNL     1     -10.144   5.172  68.579  1.00  0.00    -0.164 N  
HETATM   26  O   UNL     1     -10.785   5.281  66.410  1.00  0.00    -0.307 OA 
HETATM   27  H   UNL     1     -10.834   4.445  68.767  1.00  0.00     0.000 HD 
HETATM   28  C   UNL     1      -9.336   5.615  69.647  1.00  0.00    -0.138 A  
HETATM   29  C   UNL     1      -9.490   5.049  70.916  1.00  0.00    -0.162 A  
HETATM   30  C   UNL     1      -8.730   5.516  71.977  1.00  0.00    -0.131 A  
HETATM   31  O   UNL     1     -10.356   4.024  71.182  1.00  0.00    -0.014 OA 
HETATM   32  C   UNL     1      -7.829   6.570  71.784  1.00  0.00    -0.103 A  
HETATM   33  H   UNL     1     -10.461   3.640  72.045  1.00  0.00     0.000 HD 
ENDBRANCH  17  20
ENDBRANCH  16  17
ENDBRANCH  14  16
ENDBRANCH  10  14
ENDBRANCH   2   3
TORSDOF 6
ENDMDL
MODEL      290
REMARK 921   NORMALIZED FREE ENERGY PREDICTED BY IDOCK:   -3.94 KCAL/MOL
REMARK 922        TOTAL FREE ENERGY PREDICTED BY IDOCK:   -6.60 KCAL/MOL
REMARK 923 INTER-LIGAND FREE ENERGY PREDICTED BY IDOCK:   -7.25 KCAL/MOL
REMARK 924 INTRA-LIGAND FREE ENERGY PREDICTED BY IDOCK:    0.65 KCAL/MOL
REMARK 927      BINDING AFFINITY PREDICTED BY RF-SCORE:    0.00 PKD
ROOT
HETATM    1  C   UNL     1      -6.262   4.981  63.146  1.00  0.00    -0.022 C  
HETATM    2  C   UNL     1      -7.691   5.150  63.637  1.00  0.00    -0.078 C  
ENDROOT
BRANCH   2   3
HETATM    3  C   UNL     1      -8.009   6.300  64.573  1.00  0.00    -0.121 A  
HETATM    4  C   UNL     1      -8.433   5.968  65.893  1.00  0.00    -0.143 A  
HETATM    5  C   UNL     1      -8.362   6.935  66.897  1.00  0.00    -0.114 A  
HETATM    6  C   UNL     1      -8.016   7.658  64.193  1.00  0.00    -0.105 A  
HETATM    7  C   UNL     1      -8.299   8.603  65.175  1.00  0.00    -0.178 A  
HETATM    8  C   UNL     1      -8.220   8.254  66.525  1.00  0.00    -0.106 A  
HETATM    9  C   UNL     1      -8.625   9.410  67.383  1.00  0.00    -0.125 C  
HETATM   10  C   UNL     1      -9.839   9.802  66.523  1.00  0.00    -0.225 C  
HETATM   11  C   UNL     1      -9.138   9.892  65.091  1.00  0.00    -0.257 C  
BRANCH   4  12
HETATM   12  C   UNL     1      -9.174   4.663  66.131  1.00  0.00    -0.140 C  
HETATM   13  C   UNL     1     -10.634   4.771  66.573  1.00  0.00    -0.158 C  
ENDBRANCH   4  12
BRANCH  10  14
HETATM   14  N   UNL     1     -10.706  10.835  67.126  1.00  0.00    -0.260 NA 
HETATM   15  H   UNL     1     -11.521  10.433  67.588  1.00  0.00     0.000 HD 
BRANCH  14  16
HETATM   16  C   UNL     1      -9.886  11.697  68.059  1.00  0.00    -0.190 C  
BRANCH  16  17
HETATM   17  C   UNL     1      -8.982  12.769  67.392  1.00  0.00    -0.195 C  
HETATM   18  H   UNL     1      -7.840  14.216  68.031  1.00  0.00     0.000 HD 
HETATM   19  O   UNL     1      -8.394  13.560  68.440  1.00  0.00    -0.156 OA 
BRANCH  17  20
HETATM   20  C   UNL     1      -9.694  13.687  66.378  1.00  0.00    -0.300 A  
HETATM   21  C   UNL     1      -9.677  15.100  66.477  1.00  0.00    -0.290 A  
HETATM   22  C   UNL     1      -8.827  15.824  67.432  1.00  0.00    -0.199 C  
HETATM   23  C   UNL     1      -8.880  17.157  67.549  1.00  0.00    -0.218 C  
HETATM   24  C   UNL     1      -9.829  17.960  66.735  1.00  0.00    -0.333 C  
HETATM   25  N   UNL     1     -10.568  17.284  65.806  1.00  0.00    -0.282 N  
HETATM   26  O   UNL     1      -9.926  19.166  66.891  1.00  0.00    -0.308 OA 
HETATM   27  H   UNL     1     -11.199  17.819  65.210  1.00  0.00     0.000 HD 
HETATM   28  C   UNL     1     -10.505  15.887  65.623  1.00  0.00    -0.392 A  
HETATM   29  C   UNL     1     -11.288  15.279  64.639  1.00  0.00    -0.358 A  
HETATM   30  C   UNL     1     -11.263  13.901  64.489  1.00  0.00    -0.372 A  
HETATM   31  O   UNL     1     -12.091  15.977  63.778  1.00  0.00    -1.318 OA 
HETATM   32  C   UNL     1     -10.473  13.118  65.340  1.00  0.00    -0.307 A  
HETATM   33  H   UNL     1     -12.624  15.564  63.109  1.00  0.00     0.000 HD 
ENDBRANCH  17  20
ENDBRANCH  16  17
ENDBRANCH  14  16
ENDBRANCH  10  14
ENDBRANCH   2   3
TORSDOF 6
ENDMDL
MODEL      291
REMARK 921   NORMALIZED FREE ENERGY PREDICTED BY IDOCK:   -3.90 KCAL/MOL
REMARK 922        TOTAL FREE ENERGY PREDICTED BY IDOCK:   -6.55 KCAL/MOL
REMARK 923 INTER-LIGAND FREE ENERGY PREDICTED BY IDOCK:   -5.67 KCAL/MOL
REMARK 924 INTRA-LIGAND FREE ENERGY PREDICTED BY IDOCK:   -0.89 KCAL/MOL
REMARK 927      BINDING AFFINITY PREDICTED BY RF-SCORE:    0.00 PKD
ROOT
HETATM    1  C   UNL     1      -6.969   1.567  66.862  1.00  0.00    -0.038 C  
HETATM    2  C   UNL     1      -7.379   2.537  65.766  1.00  0.00    -0.067 C  
ENDROOT
BRANCH   2   3
HETATM    3  C   UNL     1      -8.245   3.727  66.134  1.00  0.00    -0.101 A  
HETATM    4  C   UNL     1      -9.440   3.920  65.382  1.00  0.00    -0.170 A  
HETATM    5  C   UNL     1     -10.452   4.729  65.903  1.00  0.00    -0.313 A  
HETATM    6  C   UNL     1      -7.894   4.704  67.088  1.00  0.00    -0.094 A  
HETATM    7  C   UNL     1      -8.808   5.722  67.338  1.00  0.00    -0.106 A  
HETATM    8  C   UNL     1     -10.139   5.581  66.939  1.00  0.00    -0.237 A  
HETATM    9  C   UNL     1     -10.910   6.821  67.259  1.00  0.00    -0.443 C  
HETATM   10  C   UNL     1      -9.820   7.792  66.774  1.00  0.00    -0.241 C  
HETATM   11  C   UNL     1      -8.569   7.224  67.588  1.00  0.00    -0.126 C  
BRANCH   4  12
HETATM   12  C   UNL     1      -9.497   3.448  63.938  1.00  0.00    -0.132 C  
HETATM   13  C   UNL     1     -10.547   4.104  63.041  1.00  0.00    -0.038 C  
ENDBRANCH   4  12
BRANCH  10  14
HETATM   14  N   UNL     1     -10.243   9.206  66.717  1.00  0.00    -0.262 NA 
HETATM   15  H   UNL     1      -9.745   9.785  67.393  1.00  0.00     0.000 HD 
BRANCH  14  16
HETATM   16  C   UNL     1     -10.091   9.719  65.304  1.00  0.00    -0.054 C  
BRANCH  16  17
HETATM   17  C   UNL     1      -9.112  10.908  65.102  1.00  0.00    -0.196 C  
HETATM   18  H   UNL     1      -7.316  11.119  64.369  1.00  0.00     0.000 HD 
HETATM   19  O   UNL     1      -7.916  10.392  64.492  1.00  0.00    -0.156 OA 
BRANCH  17  20
HETATM   20  C   UNL     1      -8.754  11.686  66.384  1.00  0.00    -0.170 A  
HETATM   21  C   UNL     1      -9.589  12.691  66.930  1.00  0.00    -0.232 A  
HETATM   22  C   UNL     1     -10.951  12.950  66.443  1.00  0.00    -0.310 C  
HETATM   23  C   UNL     1     -11.695  13.950  66.935  1.00  0.00    -0.425 C  
HETATM   24  C   UNL     1     -11.156  14.864  67.976  1.00  0.00    -0.295 C  
HETATM   25  N   UNL     1      -9.915  14.574  68.467  1.00  0.00    -0.233 N  
HETATM   26  O   UNL     1     -11.807  15.816  68.373  1.00  0.00    -0.338 OA 
HETATM   27  H   UNL     1      -9.541  15.166  69.208  1.00  0.00     0.000 HD 
HETATM   28  C   UNL     1      -9.123  13.503  68.005  1.00  0.00    -0.201 A  
HETATM   29  C   UNL     1      -7.867  13.273  68.573  1.00  0.00    -0.110 A  
HETATM   30  C   UNL     1      -7.067  12.249  68.090  1.00  0.00    -0.091 A  
HETATM   31  O   UNL     1      -7.367  14.004  69.617  1.00  0.00    -0.340 OA 
HETATM   32  C   UNL     1      -7.506  11.463  67.017  1.00  0.00    -0.147 A  
HETATM   33  H   UNL     1      -6.513  13.848  70.003  1.00  0.00     0.000 HD 
ENDBRANCH  17  20
ENDBRANCH  16  17
ENDBRANCH  14  16
ENDBRANCH  10  14
ENDBRANCH   2   3
TORSDOF 6
ENDMDL
MODEL      292
REMARK 921   NORMALIZED FREE ENERGY PREDICTED BY IDOCK:   -3.90 KCAL/MOL
REMARK 922        TOTAL FREE ENERGY PREDICTED BY IDOCK:   -6.55 KCAL/MOL
REMARK 923 INTER-LIGAND FREE ENERGY PREDICTED BY IDOCK:   -5.81 KCAL/MOL
REMARK 924 INTRA-LIGAND FREE ENERGY PREDICTED BY IDOCK:   -0.74 KCAL/MOL
REMARK 927      BINDING AFFINITY PREDICTED BY RF-SCORE:    0.00 PKD
ROOT
HETATM    1  C   UNL     1      -6.515  16.888  68.519  1.00  0.00    -0.161 C  
HETATM    2  C   UNL     1      -7.733  16.132  69.025  1.00  0.00    -0.222 C  
ENDROOT
BRANCH   2   3
HETATM    3  C   UNL     1      -8.818  15.753  68.035  1.00  0.00    -0.176 A  
HETATM    4  C   UNL     1     -10.147  15.640  68.537  1.00  0.00    -0.211 A  
HETATM    5  C   UNL     1     -11.221  15.686  67.646  1.00  0.00    -0.274 A  
HETATM    6  C   UNL     1      -8.583  15.404  66.690  1.00  0.00    -0.318 A  
HETATM    7  C   UNL     1      -9.687  15.108  65.895  1.00  0.00    -0.385 A  
HETATM    8  C   UNL     1     -10.966  15.490  66.306  1.00  0.00    -0.242 A  
HETATM    9  C   UNL     1     -11.989  15.012  65.325  1.00  0.00    -0.086 C  
HETATM   10  C   UNL     1     -11.372  13.614  65.151  1.00  0.00    -0.309 C  
HETATM   11  C   UNL     1      -9.864  14.023  64.817  1.00  0.00     0.113 C  
BRANCH   4  12
HETATM   12  C   UNL     1     -10.365  15.234  69.986  1.00  0.00    -0.240 C  
HETATM   13  C   UNL     1     -11.773  15.425  70.550  1.00  0.00    -0.356 C  
ENDBRANCH   4  12
BRANCH  10  14
HETATM   14  N   UNL     1     -12.203  12.672  64.374  1.00  0.00    -0.419 NA 
HETATM   15  H   UNL     1     -12.214  12.897  63.379  1.00  0.00     0.000 HD 
BRANCH  14  16
HETATM   16  C   UNL     1     -11.735  11.258  64.634  1.00  0.00     0.311 C  
BRANCH  16  17
HETATM   17  C   UNL     1     -10.386  11.105  65.389  1.00  0.00    -0.271 C  
HETATM   18  H   UNL     1      -8.898   9.846  65.333  1.00  0.00     0.000 HD 
HETATM   19  O   UNL     1      -9.723   9.939  64.871  1.00  0.00    -0.302 OA 
BRANCH  17  20
HETATM   20  C   UNL     1     -10.503  11.005  66.924  1.00  0.00    -0.293 A  
HETATM   21  C   UNL     1      -9.392  10.747  67.763  1.00  0.00    -0.158 A  
HETATM   22  C   UNL     1      -8.006  10.742  67.276  1.00  0.00    -0.117 C  
HETATM   23  C   UNL     1      -6.980  10.430  68.079  1.00  0.00    -0.078 C  
HETATM   24  C   UNL     1      -7.207  10.041  69.495  1.00  0.00    -0.105 C  
HETATM   25  N   UNL     1      -8.492  10.111  69.954  1.00  0.00    -0.352 N  
HETATM   26  O   UNL     1      -6.280   9.690  70.206  1.00  0.00    -0.054 OA 
HETATM   27  H   UNL     1      -8.666   9.885  70.933  1.00  0.00     0.000 HD 
HETATM   28  C   UNL     1      -9.590  10.480  69.150  1.00  0.00    -0.199 A  
HETATM   29  C   UNL     1     -10.871  10.536  69.706  1.00  0.00    -0.281 A  
HETATM   30  C   UNL     1     -11.958  10.853  68.907  1.00  0.00    -0.277 A  
HETATM   31  O   UNL     1     -11.126  10.308  71.031  1.00  0.00    -0.318 OA 
HETATM   32  C   UNL     1     -11.776  11.091  67.539  1.00  0.00    -0.023 A  
HETATM   33  H   UNL     1     -11.997  10.345  71.409  1.00  0.00     0.000 HD 
ENDBRANCH  17  20
ENDBRANCH  16  17
ENDBRANCH  14  16
ENDBRANCH  10  14
ENDBRANCH   2   3
TORSDOF 6
ENDMDL
MODEL      293
REMARK 921   NORMALIZED FREE ENERGY PREDICTED BY IDOCK:   -3.88 KCAL/MOL
REMARK 922        TOTAL FREE ENERGY PREDICTED BY IDOCK:   -6.53 KCAL/MOL
REMARK 923 INTER-LIGAND FREE ENERGY PREDICTED BY IDOCK:   -5.57 KCAL/MOL
REMARK 924 INTRA-LIGAND FREE ENERGY PREDICTED BY IDOCK:   -0.95 KCAL/MOL
REMARK 927      BINDING AFFINITY PREDICTED BY RF-SCORE:    0.00 PKD
ROOT
HETATM    1  C   UNL     1      -8.862  14.800  67.239  1.00  0.00    -0.218 C  
HETATM    2  C   UNL     1      -9.557  13.483  67.544  1.00  0.00    -0.221 C  
ENDROOT
BRANCH   2   3
HETATM    3  C   UNL     1      -9.251  12.279  66.674  1.00  0.00    -0.208 A  
HETATM    4  C   UNL     1     -10.203  11.942  65.669  1.00  0.00    -0.280 A  
HETATM    5  C   UNL     1      -9.815  11.121  64.608  1.00  0.00    -0.330 A  
HETATM    6  C   UNL     1      -8.151  11.417  66.865  1.00  0.00    -0.158 A  
HETATM    7  C   UNL     1      -7.987  10.369  65.965  1.00  0.00    -0.144 A  
HETATM    8  C   UNL     1      -8.656  10.389  64.739  1.00  0.00    -0.190 A  
HETATM    9  C   UNL     1      -8.372   9.136  63.974  1.00  0.00    -0.183 C  
HETATM   10  C   UNL     1      -8.528   8.197  65.182  1.00  0.00    -0.116 C  
HETATM   11  C   UNL     1      -7.542   8.915  66.213  1.00  0.00    -0.095 C  
BRANCH   4  12
HETATM   12  C   UNL     1     -11.669  12.276  65.889  1.00  0.00    -0.451 C  
HETATM   13  C   UNL     1     -12.483  12.651  64.650  1.00  0.00    -0.538 C  
ENDBRANCH   4  12
BRANCH  10  14
HETATM   14  N   UNL     1      -8.523   6.759  64.843  1.00  0.00    -0.339 NA 
HETATM   15  H   UNL     1      -7.594   6.425  64.591  1.00  0.00     0.000 HD 
BRANCH  14  16
HETATM   16  C   UNL     1      -9.123   5.972  65.986  1.00  0.00    -0.129 C  
BRANCH  16  17
HETATM   17  C   UNL     1      -8.121   5.344  66.993  1.00  0.00    -0.101 C  
HETATM   18  H   UNL     1      -7.976   3.639  67.929  1.00  0.00     0.000 HD 
HETATM   19  O   UNL     1      -8.589   4.023  67.313  1.00  0.00    -0.099 OA 
BRANCH  17  20
HETATM   20  C   UNL     1      -7.902   6.152  68.288  1.00  0.00    -0.104 A  
HETATM   21  C   UNL     1      -8.970   6.692  69.046  1.00  0.00    -0.130 A  
HETATM   22  C   UNL     1     -10.380   6.372  68.780  1.00  0.00    -0.232 C  
HETATM   23  C   UNL     1     -11.373   6.948  69.470  1.00  0.00    -0.218 C  
HETATM   24  C   UNL     1     -11.088   7.964  70.517  1.00  0.00    -0.256 C  
HETATM   25  N   UNL     1      -9.774   8.205  70.800  1.00  0.00    -0.169 N  
HETATM   26  O   UNL     1     -11.995   8.539  71.097  1.00  0.00    -0.287 OA 
HETATM   27  H   UNL     1      -9.555   8.871  71.541  1.00  0.00     0.000 HD 
HETATM   28  C   UNL     1      -8.703   7.584  70.125  1.00  0.00    -0.142 A  
HETATM   29  C   UNL     1      -7.387   7.881  70.489  1.00  0.00    -0.067 A  
HETATM   30  C   UNL     1      -6.332   7.308  69.796  1.00  0.00    -0.035 A  
HETATM   31  O   UNL     1      -7.062   8.715  71.524  1.00  0.00    -0.078 OA 
HETATM   32  C   UNL     1      -6.585   6.451  68.718  1.00  0.00    -0.051 A  
HETATM   33  H   UNL     1      -6.168   8.918  71.771  1.00  0.00     0.000 HD 
ENDBRANCH  17  20
ENDBRANCH  16  17
ENDBRANCH  14  16
ENDBRANCH  10  14
ENDBRANCH   2   3
TORSDOF 6
ENDMDL
MODEL      294
REMARK 921   NORMALIZED FREE ENERGY PREDICTED BY IDOCK:   -3.88 KCAL/MOL
REMARK 922        TOTAL FREE ENERGY PREDICTED BY IDOCK:   -6.52 KCAL/MOL
REMARK 923 INTER-LIGAND FREE ENERGY PREDICTED BY IDOCK:   -6.41 KCAL/MOL
REMARK 924 INTRA-LIGAND FREE ENERGY PREDICTED BY IDOCK:   -0.11 KCAL/MOL
REMARK 927      BINDING AFFINITY PREDICTED BY RF-SCORE:    0.00 PKD
ROOT
HETATM    1  C   UNL     1     -10.134  16.357  66.066  1.00  0.00    -0.373 C  
HETATM    2  C   UNL     1     -11.154  16.080  67.159  1.00  0.00    -0.104 C  
ENDROOT
BRANCH   2   3
HETATM    3  C   UNL     1     -11.223  14.686  67.754  1.00  0.00    -0.320 A  
HETATM    4  C   UNL     1     -11.832  14.554  69.036  1.00  0.00    -0.354 A  
HETATM    5  C   UNL     1     -12.275  13.300  69.457  1.00  0.00    -0.233 A  
HETATM    6  C   UNL     1     -10.634  13.543  67.176  1.00  0.00    -0.264 A  
HETATM    7  C   UNL     1     -10.809  12.326  67.827  1.00  0.00    -0.256 A  
HETATM    8  C   UNL     1     -11.810  12.186  68.791  1.00  0.00    -0.356 A  
HETATM    9  C   UNL     1     -11.765  10.817  69.391  1.00  0.00    -0.378 C  
HETATM   10  C   UNL     1     -10.233  10.777  69.529  1.00  0.00    -0.113 C  
HETATM   11  C   UNL     1      -9.817  11.167  68.037  1.00  0.00    -0.185 C  
BRANCH   4  12
HETATM   12  C   UNL     1     -11.770  15.718  70.013  1.00  0.00    -0.362 C  
HETATM   13  C   UNL     1     -11.293  15.400  71.431  1.00  0.00    -0.449 C  
ENDBRANCH   4  12
BRANCH  10  14
HETATM   14  N   UNL     1      -9.719   9.623  70.295  1.00  0.00    -0.255 NA 
HETATM   15  H   UNL     1      -9.024   9.898  70.988  1.00  0.00     0.000 HD 
BRANCH  14  16
HETATM   16  C   UNL     1     -10.878   8.874  70.913  1.00  0.00    -0.248 C  
BRANCH  16  17
HETATM   17  C   UNL     1     -10.518   7.810  71.986  1.00  0.00    -0.224 C  
HETATM   18  H   UNL     1      -9.204   7.672  73.420  1.00  0.00     0.000 HD 
HETATM   19  O   UNL     1      -9.423   8.323  72.764  1.00  0.00    -0.260 OA 
BRANCH  17  20
HETATM   20  C   UNL     1     -10.161   6.416  71.431  1.00  0.00    -0.228 A  
HETATM   21  C   UNL     1      -9.260   5.539  72.081  1.00  0.00    -0.155 A  
HETATM   22  C   UNL     1      -8.735   5.789  73.430  1.00  0.00    -0.120 C  
HETATM   23  C   UNL     1      -7.833   4.975  73.995  1.00  0.00    -0.101 C  
HETATM   24  C   UNL     1      -7.299   3.797  73.262  1.00  0.00    -0.064 C  
HETATM   25  N   UNL     1      -7.842   3.538  72.035  1.00  0.00    -0.058 N  
HETATM   26  O   UNL     1      -6.428   3.097  73.749  1.00  0.00    -0.026 OA 
HETATM   27  H   UNL     1      -7.517   2.714  71.530  1.00  0.00     0.000 HD 
HETATM   28  C   UNL     1      -8.826   4.347  71.429  1.00  0.00    -0.114 A  
HETATM   29  C   UNL     1      -9.334   4.000  70.175  1.00  0.00    -0.170 A  
HETATM   30  C   UNL     1     -10.266   4.818  69.557  1.00  0.00    -0.180 A  
HETATM   31  O   UNL     1      -8.971   2.864  69.504  1.00  0.00    -0.084 OA 
HETATM   32  C   UNL     1     -10.679   6.004  70.178  1.00  0.00    -0.379 A  
HETATM   33  H   UNL     1      -9.316   2.628  68.651  1.00  0.00     0.000 HD 
ENDBRANCH  17  20
ENDBRANCH  16  17
ENDBRANCH  14  16
ENDBRANCH  10  14
ENDBRANCH   2   3
TORSDOF 6
ENDMDL
MODEL      295
REMARK 921   NORMALIZED FREE ENERGY PREDICTED BY IDOCK:   -3.87 KCAL/MOL
REMARK 922        TOTAL FREE ENERGY PREDICTED BY IDOCK:   -6.51 KCAL/MOL
REMARK 923 INTER-LIGAND FREE ENERGY PREDICTED BY IDOCK:   -5.46 KCAL/MOL
REMARK 924 INTRA-LIGAND FREE ENERGY PREDICTED BY IDOCK:   -1.05 KCAL/MOL
REMARK 927      BINDING AFFINITY PREDICTED BY RF-SCORE:    0.00 PKD
ROOT
HETATM    1  C   UNL     1     -11.921  14.372  67.126  1.00  0.00    -0.419 C  
HETATM    2  C   UNL     1     -11.029  13.457  66.304  1.00  0.00    -0.296 C  
ENDROOT
BRANCH   2   3
HETATM    3  C   UNL     1     -10.560  12.152  66.919  1.00  0.00    -0.257 A  
HETATM    4  C   UNL     1      -9.595  12.234  67.965  1.00  0.00    -0.206 A  
HETATM    5  C   UNL     1      -9.419  11.144  68.819  1.00  0.00    -0.173 A  
HETATM    6  C   UNL     1     -10.931  10.873  66.454  1.00  0.00    -0.156 A  
HETATM    7  C   UNL     1     -10.441   9.767  67.142  1.00  0.00    -0.316 A  
HETATM    8  C   UNL     1      -9.916   9.920  68.427  1.00  0.00    -0.177 A  
HETATM    9  C   UNL     1      -9.400   8.611  68.934  1.00  0.00    -0.145 C  
HETATM   10  C   UNL     1      -8.714   8.212  67.617  1.00  0.00    -0.130 C  
HETATM   11  C   UNL     1      -9.933   8.416  66.605  1.00  0.00    -0.354 C  
BRANCH   4  12
HETATM   12  C   UNL     1      -8.615  13.395  67.985  1.00  0.00    -0.174 C  
HETATM   13  C   UNL     1      -7.223  13.111  68.550  1.00  0.00    -0.110 C  
ENDBRANCH   4  12
BRANCH  10  14
HETATM   14  N   UNL     1      -7.863   7.008  67.711  1.00  0.00    -0.112 NA 
HETATM   15  H   UNL     1      -7.605   6.792  68.673  1.00  0.00     0.000 HD 
BRANCH  14  16
HETATM   16  C   UNL     1      -8.557   5.850  67.031  1.00  0.00    -0.110 C  
BRANCH  16  17
HETATM   17  C   UNL     1      -9.203   4.788  67.963  1.00  0.00    -0.123 C  
HETATM   18  H   UNL     1     -10.676   3.518  67.811  1.00  0.00     0.000 HD 
HETATM   19  O   UNL     1     -10.280   4.167  67.240  1.00  0.00    -0.028 OA 
BRANCH  17  20
HETATM   20  C   UNL     1      -9.719   5.330  69.312  1.00  0.00    -0.235 A  
HETATM   21  C   UNL     1      -8.922   5.361  70.482  1.00  0.00    -0.156 A  
HETATM   22  C   UNL     1      -7.483   5.064  70.477  1.00  0.00    -0.062 C  
HETATM   23  C   UNL     1      -6.767   5.038  71.609  1.00  0.00    -0.047 C  
HETATM   24  C   UNL     1      -7.410   5.275  72.927  1.00  0.00    -0.091 C  
HETATM   25  N   UNL     1      -8.734   5.613  72.914  1.00  0.00    -0.122 N  
HETATM   26  O   UNL     1      -6.773   5.182  73.963  1.00  0.00    -0.071 OA 
HETATM   27  H   UNL     1      -9.187   5.817  73.804  1.00  0.00     0.000 HD 
HETATM   28  C   UNL     1      -9.508   5.696  71.738  1.00  0.00    -0.149 A  
HETATM   29  C   UNL     1     -10.854   6.061  71.817  1.00  0.00    -0.260 A  
HETATM   30  C   UNL     1     -11.628   6.097  70.668  1.00  0.00    -0.256 A  
HETATM   31  O   UNL     1     -11.473   6.409  72.987  1.00  0.00    -0.464 OA 
HETATM   32  C   UNL     1     -11.068   5.745  69.433  1.00  0.00    -0.259 A  
HETATM   33  H   UNL     1     -12.388   6.657  73.041  1.00  0.00     0.000 HD 
ENDBRANCH  17  20
ENDBRANCH  16  17
ENDBRANCH  14  16
ENDBRANCH  10  14
ENDBRANCH   2   3
TORSDOF 6
ENDMDL
MODEL      296
REMARK 921   NORMALIZED FREE ENERGY PREDICTED BY IDOCK:   -3.87 KCAL/MOL
REMARK 922        TOTAL FREE ENERGY PREDICTED BY IDOCK:   -6.50 KCAL/MOL
REMARK 923 INTER-LIGAND FREE ENERGY PREDICTED BY IDOCK:   -7.07 KCAL/MOL
REMARK 924 INTRA-LIGAND FREE ENERGY PREDICTED BY IDOCK:    0.57 KCAL/MOL
REMARK 927      BINDING AFFINITY PREDICTED BY RF-SCORE:    0.00 PKD
ROOT
HETATM    1  C   UNL     1     -13.057  11.769  63.455  1.00  0.00    -0.055 C  
HETATM    2  C   UNL     1     -11.543  11.861  63.367  1.00  0.00    -0.477 C  
ENDROOT
BRANCH   2   3
HETATM    3  C   UNL     1     -10.756  12.164  64.628  1.00  0.00    -0.346 A  
HETATM    4  C   UNL     1     -11.107  13.343  65.347  1.00  0.00    -0.301 A  
HETATM    5  C   UNL     1     -10.714  13.473  66.680  1.00  0.00    -0.282 A  
HETATM    6  C   UNL     1      -9.641  11.422  65.070  1.00  0.00    -0.250 A  
HETATM    7  C   UNL     1      -9.041  11.805  66.264  1.00  0.00    -0.209 A  
HETATM    8  C   UNL     1      -9.722  12.641  67.152  1.00  0.00    -0.211 A  
HETATM    9  C   UNL     1      -8.857  12.962  68.329  1.00  0.00    -0.168 C  
HETATM   10  C   UNL     1      -7.584  13.210  67.501  1.00  0.00    -0.163 C  
HETATM   11  C   UNL     1      -7.550  11.862  66.646  1.00  0.00     0.039 C  
BRANCH   4  12
HETATM   12  C   UNL     1     -11.685  14.531  64.595  1.00  0.00    -0.438 C  
HETATM   13  C   UNL     1     -10.993  15.878  64.801  1.00  0.00    -0.392 C  
ENDBRANCH   4  12
BRANCH  10  14
HETATM   14  N   UNL     1      -6.455  13.773  68.270  1.00  0.00    -0.097 NA 
HETATM   15  H   UNL     1      -5.976  14.517  67.764  1.00  0.00     0.000 HD 
BRANCH  14  16
HETATM   16  C   UNL     1      -6.949  14.229  69.624  1.00  0.00    -0.049 C  
BRANCH  16  17
HETATM   17  C   UNL     1      -7.544  15.662  69.696  1.00  0.00    -0.119 C  
HETATM   18  H   UNL     1      -9.331  16.414  69.913  1.00  0.00     0.000 HD 
HETATM   19  O   UNL     1      -8.967  15.538  69.869  1.00  0.00    -0.172 OA 
BRANCH  17  20
HETATM   20  C   UNL     1      -7.240  16.558  68.478  1.00  0.00    -0.175 A  
HETATM   21  C   UNL     1      -8.203  17.420  67.899  1.00  0.00    -0.225 A  
HETATM   22  C   UNL     1      -9.511  17.684  68.514  1.00  0.00    -0.298 C  
HETATM   23  C   UNL     1     -10.428  18.453  67.912  1.00  0.00    -0.416 C  
HETATM   24  C   UNL     1     -10.170  19.045  66.573  1.00  0.00    -0.421 C  
HETATM   25  N   UNL     1      -8.928  18.846  66.041  1.00  0.00    -0.133 N  
HETATM   26  O   UNL     1     -11.031  19.686  65.994  1.00  0.00    -0.368 OA 
HETATM   27  H   UNL     1      -8.716  19.274  65.140  1.00  0.00     0.000 HD 
HETATM   28  C   UNL     1      -7.922  18.081  66.668  1.00  0.00    -0.251 A  
HETATM   29  C   UNL     1      -6.674  17.939  66.056  1.00  0.00    -0.295 A  
HETATM   30  C   UNL     1      -5.701  17.151  66.647  1.00  0.00    -0.221 A  
HETATM   31  O   UNL     1      -6.336  18.559  64.883  1.00  0.00    -0.438 OA 
HETATM   32  C   UNL     1      -5.976  16.476  67.844  1.00  0.00    -0.137 A  
HETATM   33  H   UNL     1      -5.488  18.462  64.467  1.00  0.00     0.000 HD 
ENDBRANCH  17  20
ENDBRANCH  16  17
ENDBRANCH  14  16
ENDBRANCH  10  14
ENDBRANCH   2   3
TORSDOF 6
ENDMDL
MODEL      297
REMARK 921   NORMALIZED FREE ENERGY PREDICTED BY IDOCK:   -3.85 KCAL/MOL
REMARK 922        TOTAL FREE ENERGY PREDICTED BY IDOCK:   -6.48 KCAL/MOL
REMARK 923 INTER-LIGAND FREE ENERGY PREDICTED BY IDOCK:   -5.85 KCAL/MOL
REMARK 924 INTRA-LIGAND FREE ENERGY PREDICTED BY IDOCK:   -0.62 KCAL/MOL
REMARK 927      BINDING AFFINITY PREDICTED BY RF-SCORE:    0.00 PKD
ROOT
HETATM    1  C   UNL     1      -6.064   4.863  68.314  1.00  0.00    -0.030 C  
HETATM    2  C   UNL     1      -5.910   6.237  68.947  1.00  0.00    -0.020 C  
ENDROOT
BRANCH   2   3
HETATM    3  C   UNL     1      -6.461   7.444  68.212  1.00  0.00    -0.045 A  
HETATM    4  C   UNL     1      -7.603   8.084  68.774  1.00  0.00    -0.103 A  
HETATM    5  C   UNL     1      -7.914   9.389  68.389  1.00  0.00    -0.094 A  
HETATM    6  C   UNL     1      -5.987   7.902  66.965  1.00  0.00    -0.052 A  
HETATM    7  C   UNL     1      -6.576   9.043  66.429  1.00  0.00    -0.067 A  
HETATM    8  C   UNL     1      -7.332   9.888  67.245  1.00  0.00    -0.087 A  
HETATM    9  C   UNL     1      -7.909  11.007  66.437  1.00  0.00    -0.150 C  
HETATM   10  C   UNL     1      -8.332  10.120  65.254  1.00  0.00    -0.159 C  
HETATM   11  C   UNL     1      -6.951   9.369  64.971  1.00  0.00    -0.096 C  
BRANCH   4  12
HETATM   12  C   UNL     1      -8.592   7.264  69.588  1.00  0.00    -0.137 C  
HETATM   13  C   UNL     1      -9.624   8.042  70.402  1.00  0.00    -0.174 C  
ENDBRANCH   4  12
BRANCH  10  14
HETATM   14  N   UNL     1      -9.164  10.805  64.243  1.00  0.00    -0.211 NA 
HETATM   15  H   UNL     1      -9.233  10.274  63.376  1.00  0.00     0.000 HD 
BRANCH  14  16
HETATM   16  C   UNL     1     -10.520  11.113  64.835  1.00  0.00    -0.308 C  
BRANCH  16  17
HETATM   17  C   UNL     1     -10.975  12.597  64.785  1.00  0.00    -0.302 C  
HETATM   18  H   UNL     1     -10.453  14.176  63.765  1.00  0.00     0.000 HD 
HETATM   19  O   UNL     1     -10.175  13.268  63.795  1.00  0.00    -0.226 OA 
BRANCH  17  20
HETATM   20  C   UNL     1     -10.893  13.352  66.127  1.00  0.00    -0.287 A  
HETATM   21  C   UNL     1     -10.730  14.756  66.209  1.00  0.00    -0.313 A  
HETATM   22  C   UNL     1     -10.817  15.641  65.039  1.00  0.00    -0.468 C  
HETATM   23  C   UNL     1     -10.594  16.958  65.136  1.00  0.00    -0.087 C  
HETATM   24  C   UNL     1     -10.214  17.577  66.432  1.00  0.00    -0.354 C  
HETATM   25  N   UNL     1     -10.199  16.757  67.525  1.00  0.00    -0.281 N  
HETATM   26  O   UNL     1      -9.943  18.764  66.506  1.00  0.00    -0.336 OA 
HETATM   27  H   UNL     1      -9.977  17.167  68.431  1.00  0.00     0.000 HD 
HETATM   28  C   UNL     1     -10.473  15.375  67.468  1.00  0.00    -0.275 A  
HETATM   29  C   UNL     1     -10.447  14.612  68.639  1.00  0.00    -0.244 A  
HETATM   30  C   UNL     1     -10.670  13.246  68.579  1.00  0.00    -0.280 A  
HETATM   31  O   UNL     1     -10.223  15.146  69.879  1.00  0.00    -0.396 OA 
HETATM   32  C   UNL     1     -10.897  12.626  67.343  1.00  0.00    -0.272 A  
HETATM   33  H   UNL     1     -10.204  14.628  70.675  1.00  0.00     0.000 HD 
ENDBRANCH  17  20
ENDBRANCH  16  17
ENDBRANCH  14  16
ENDBRANCH  10  14
ENDBRANCH   2   3
TORSDOF 6
ENDMDL
MODEL      298
REMARK 921   NORMALIZED FREE ENERGY PREDICTED BY IDOCK:   -3.83 KCAL/MOL
REMARK 922        TOTAL FREE ENERGY PREDICTED BY IDOCK:   -6.45 KCAL/MOL
REMARK 923 INTER-LIGAND FREE ENERGY PREDICTED BY IDOCK:   -5.37 KCAL/MOL
REMARK 924 INTRA-LIGAND FREE ENERGY PREDICTED BY IDOCK:   -1.08 KCAL/MOL
REMARK 927      BINDING AFFINITY PREDICTED BY RF-SCORE:    0.00 PKD
ROOT
HETATM    1  C   UNL     1      -5.433   5.639  63.442  1.00  0.00    -0.014 C  
HETATM    2  C   UNL     1      -6.197   4.511  64.116  1.00  0.00    -0.026 C  
ENDROOT
BRANCH   2   3
HETATM    3  C   UNL     1      -7.198   4.856  65.203  1.00  0.00    -0.064 A  
HETATM    4  C   UNL     1      -8.526   4.364  65.046  1.00  0.00    -0.124 A  
HETATM    5  C   UNL     1      -9.368   4.303  66.158  1.00  0.00    -0.164 A  
HETATM    6  C   UNL     1      -6.930   5.714  66.289  1.00  0.00    -0.060 A  
HETATM    7  C   UNL     1      -7.942   5.911  67.223  1.00  0.00    -0.102 A  
HETATM    8  C   UNL     1      -9.024   5.030  67.277  1.00  0.00    -0.113 A  
HETATM    9  C   UNL     1     -10.006   5.479  68.312  1.00  0.00    -0.201 C  
HETATM   10  C   UNL     1      -9.948   6.966  67.923  1.00  0.00    -0.147 C  
HETATM   11  C   UNL     1      -8.367   7.194  67.962  1.00  0.00    -0.119 C  
BRANCH   4  12
HETATM   12  C   UNL     1      -9.079   4.142  63.648  1.00  0.00    -0.136 C  
HETATM   13  C   UNL     1     -10.504   3.597  63.550  1.00  0.00    -0.255 C  
ENDBRANCH   4  12
BRANCH  10  14
HETATM   14  N   UNL     1     -10.958   7.812  68.590  1.00  0.00    -0.419 NA 
HETATM   15  H   UNL     1     -11.910   7.532  68.358  1.00  0.00     0.000 HD 
BRANCH  14  16
HETATM   16  C   UNL     1     -10.709   7.810  70.081  1.00  0.00    -0.240 C  
BRANCH  16  17
HETATM   17  C   UNL     1     -10.279   9.163  70.712  1.00  0.00    -0.260 C  
HETATM   18  H   UNL     1     -10.726  10.141  72.339  1.00  0.00     0.000 HD 
HETATM   19  O   UNL     1     -10.989   9.313  71.954  1.00  0.00    -0.363 OA 
BRANCH  17  20
HETATM   20  C   UNL     1     -10.509  10.402  69.822  1.00  0.00    -0.284 A  
HETATM   21  C   UNL     1      -9.477  11.003  69.062  1.00  0.00    -0.123 A  
HETATM   22  C   UNL     1      -8.149  10.396  68.897  1.00  0.00    -0.129 C  
HETATM   23  C   UNL     1      -7.171  11.019  68.226  1.00  0.00    -0.085 C  
HETATM   24  C   UNL     1      -7.381  12.371  67.647  1.00  0.00    -0.132 C  
HETATM   25  N   UNL     1      -8.637  12.897  67.750  1.00  0.00    -0.172 N  
HETATM   26  O   UNL     1      -6.469  12.967  67.097  1.00  0.00    -0.224 OA 
HETATM   27  H   UNL     1      -8.814  13.808  67.327  1.00  0.00     0.000 HD 
HETATM   28  C   UNL     1      -9.703  12.250  68.409  1.00  0.00    -0.191 A  
HETATM   29  C   UNL     1     -10.961  12.857  68.457  1.00  0.00    -0.259 A  
HETATM   30  C   UNL     1     -11.997  12.245  69.144  1.00  0.00    -0.303 A  
HETATM   31  O   UNL     1     -11.248  14.044  67.839  1.00  0.00    -0.255 OA 
HETATM   32  C   UNL     1     -11.777  11.033  69.810  1.00  0.00    -0.410 A  
HETATM   33  H   UNL     1     -12.103  14.457  67.872  1.00  0.00     0.000 HD 
ENDBRANCH  17  20
ENDBRANCH  16  17
ENDBRANCH  14  16
ENDBRANCH  10  14
ENDBRANCH   2   3
TORSDOF 6
ENDMDL
MODEL      299
REMARK 921   NORMALIZED FREE ENERGY PREDICTED BY IDOCK:   -3.81 KCAL/MOL
REMARK 922        TOTAL FREE ENERGY PREDICTED BY IDOCK:   -6.43 KCAL/MOL
REMARK 923 INTER-LIGAND FREE ENERGY PREDICTED BY IDOCK:   -5.52 KCAL/MOL
REMARK 924 INTRA-LIGAND FREE ENERGY PREDICTED BY IDOCK:   -0.91 KCAL/MOL
REMARK 927      BINDING AFFINITY PREDICTED BY RF-SCORE:    0.00 PKD
ROOT
HETATM    1  C   UNL     1      -6.123   3.951  63.735  1.00  0.00    -0.014 C  
HETATM    2  C   UNL     1      -7.109   3.493  64.796  1.00  0.00    -0.061 C  
ENDROOT
BRANCH   2   3
HETATM    3  C   UNL     1      -8.011   4.524  65.446  1.00  0.00    -0.098 A  
HETATM    4  C   UNL     1      -9.414   4.395  65.226  1.00  0.00    -0.172 A  
HETATM    5  C   UNL     1     -10.303   5.044  66.084  1.00  0.00    -0.309 A  
HETATM    6  C   UNL     1      -7.550   5.652  66.156  1.00  0.00    -0.091 A  
HETATM    7  C   UNL     1      -8.503   6.494  66.722  1.00  0.00    -0.113 A  
HETATM    8  C   UNL     1      -9.817   6.051  66.889  1.00  0.00    -0.190 A  
HETATM    9  C   UNL     1     -10.664   7.145  67.456  1.00  0.00    -0.344 C  
HETATM   10  C   UNL     1     -10.089   8.249  66.553  1.00  0.00    -0.233 C  
HETATM   11  C   UNL     1      -8.529   8.031  66.818  1.00  0.00    -0.128 C  
BRANCH   4  12
HETATM   12  C   UNL     1      -9.910   3.762  63.936  1.00  0.00    -0.175 C  
HETATM   13  C   UNL     1     -10.017   4.679  62.717  1.00  0.00     0.179 C  
ENDBRANCH   4  12
BRANCH  10  14
HETATM   14  N   UNL     1     -10.805   9.539  66.632  1.00  0.00    -0.010 NA 
HETATM   15  H   UNL     1     -11.589   9.585  65.982  1.00  0.00     0.000 HD 
BRANCH  14  16
HETATM   16  C   UNL     1     -11.232   9.788  68.061  1.00  0.00     0.009 C  
BRANCH  16  17
HETATM   17  C   UNL     1     -10.488  10.925  68.815  1.00  0.00    -0.200 C  
HETATM   18  H   UNL     1      -9.682  11.125  70.579  1.00  0.00     0.000 HD 
HETATM   19  O   UNL     1     -10.137  10.430  70.118  1.00  0.00    -0.144 OA 
BRANCH  17  20
HETATM   20  C   UNL     1     -11.273  12.245  68.948  1.00  0.00    -0.323 A  
HETATM   21  C   UNL     1     -11.217  13.273  67.976  1.00  0.00    -0.307 A  
HETATM   22  C   UNL     1     -10.566  13.103  66.670  1.00  0.00    -0.284 C  
HETATM   23  C   UNL     1     -10.471  14.114  65.796  1.00  0.00    -0.320 C  
HETATM   24  C   UNL     1     -10.994  15.465  66.127  1.00  0.00    -0.279 C  
HETATM   25  N   UNL     1     -11.653  15.595  67.316  1.00  0.00    -0.041 N  
HETATM   26  O   UNL     1     -10.845  16.402  65.360  1.00  0.00    -0.333 OA 
HETATM   27  H   UNL     1     -12.053  16.504  67.548  1.00  0.00     0.000 HD 
HETATM   28  C   UNL     1     -11.812  14.542  68.241  1.00  0.00    -0.312 A  
HETATM   29  C   UNL     1     -12.513  14.761  69.430  1.00  0.00    -0.053 A  
HETATM   30  C   UNL     1     -12.631  13.741  70.360  1.00  0.00    -0.325 A  
HETATM   31  O   UNL     1     -13.121  15.948  69.737  1.00  0.00    -0.475 OA 
HETATM   32  C   UNL     1     -12.027  12.500  70.120  1.00  0.00    -0.377 A  
HETATM   33  H   UNL     1     -13.597  16.097  70.545  1.00  0.00     0.000 HD 
ENDBRANCH  17  20
ENDBRANCH  16  17
ENDBRANCH  14  16
ENDBRANCH  10  14
ENDBRANCH   2   3
TORSDOF 6
ENDMDL
MODEL      300
REMARK 921   NORMALIZED FREE ENERGY PREDICTED BY IDOCK:   -3.75 KCAL/MOL
REMARK 922        TOTAL FREE ENERGY PREDICTED BY IDOCK:   -6.35 KCAL/MOL
REMARK 923 INTER-LIGAND FREE ENERGY PREDICTED BY IDOCK:   -5.19 KCAL/MOL
REMARK 924 INTRA-LIGAND FREE ENERGY PREDICTED BY IDOCK:   -1.16 KCAL/MOL
REMARK 927      BINDING AFFINITY PREDICTED BY RF-SCORE:    0.00 PKD
ROOT
HETATM    1  C   UNL     1      -6.105   5.361  71.456  1.00  0.00    -0.033 C  
HETATM    2  C   UNL     1      -5.766   6.779  71.886  1.00  0.00    -0.037 C  
ENDROOT
BRANCH   2   3
HETATM    3  C   UNL     1      -5.978   7.910  70.898  1.00  0.00    -0.034 A  
HETATM    4  C   UNL     1      -7.172   8.677  71.032  1.00  0.00    -0.079 A  
HETATM    5  C   UNL     1      -7.245   9.938  70.437  1.00  0.00    -0.143 A  
HETATM    6  C   UNL     1      -5.133   8.180  69.802  1.00  0.00    -0.023 A  
HETATM    7  C   UNL     1      -5.443   9.274  69.000  1.00  0.00    -0.036 A  
HETATM    8  C   UNL     1      -6.321  10.255  69.465  1.00  0.00    -0.055 A  
HETATM    9  C   UNL     1      -6.546  11.291  68.410  1.00  0.00    -0.059 C  
HETATM   10  C   UNL     1      -6.693  10.285  67.256  1.00  0.00    -0.073 C  
HETATM   11  C   UNL     1      -5.361   9.430  67.470  1.00  0.00    -0.037 C  
BRANCH   4  12
HETATM   12  C   UNL     1      -8.418   8.022  71.606  1.00  0.00    -0.155 C  
HETATM   13  C   UNL     1      -8.702   8.265  73.088  1.00  0.00    -0.291 C  
ENDBRANCH   4  12
BRANCH  10  14
HETATM   14  N   UNL     1      -7.142  10.879  65.980  1.00  0.00    -0.283 NA 
HETATM   15  H   UNL     1      -6.505  10.670  65.212  1.00  0.00     0.000 HD 
BRANCH  14  16
HETATM   16  C   UNL     1      -8.556  10.433  65.689  1.00  0.00    -0.167 C  
BRANCH  16  17
HETATM   17  C   UNL     1      -9.691  11.243  66.375  1.00  0.00    -0.209 C  
HETATM   18  H   UNL     1      -9.822  12.978  67.256  1.00  0.00     0.000 HD 
HETATM   19  O   UNL     1      -9.127  12.483  66.837  1.00  0.00    -0.202 OA 
BRANCH  17  20
HETATM   20  C   UNL     1     -10.398  10.520  67.540  1.00  0.00    -0.265 A  
HETATM   21  C   UNL     1     -11.099  11.210  68.558  1.00  0.00    -0.298 A  
HETATM   22  C   UNL     1     -11.382  12.651  68.499  1.00  0.00    -0.333 C  
HETATM   23  C   UNL     1     -11.990  13.290  69.507  1.00  0.00    -0.366 C  
HETATM   24  C   UNL     1     -12.375  12.569  70.748  1.00  0.00    -0.286 C  
HETATM   25  N   UNL     1     -12.166  11.219  70.767  1.00  0.00    -0.377 N  
HETATM   26  O   UNL     1     -12.865  13.164  71.694  1.00  0.00    -0.343 OA 
HETATM   27  H   UNL     1     -12.456  10.698  71.594  1.00  0.00     0.000 HD 
HETATM   28  C   UNL     1     -11.570  10.506  69.705  1.00  0.00    -0.294 A  
HETATM   29  C   UNL     1     -11.405   9.122  69.804  1.00  0.00     0.030 A  
HETATM   30  C   UNL     1     -10.778   8.427  68.783  1.00  0.00    -0.086 A  
HETATM   31  O   UNL     1     -11.849   8.386  70.869  1.00  0.00    -0.341 OA 
HETATM   32  C   UNL     1     -10.289   9.113  67.664  1.00  0.00    -0.314 A  
HETATM   33  H   UNL     1     -11.736   7.445  70.937  1.00  0.00     0.000 HD 
ENDBRANCH  17  20
ENDBRANCH  16  17
ENDBRANCH  14  16
ENDBRANCH  10  14
ENDBRANCH   2   3
TORSDOF 6
ENDMDL
MODEL      301
REMARK 921   NORMALIZED FREE ENERGY PREDICTED BY IDOCK:   -3.74 KCAL/MOL
REMARK 922        TOTAL FREE ENERGY PREDICTED BY IDOCK:   -6.33 KCAL/MOL
REMARK 923 INTER-LIGAND FREE ENERGY PREDICTED BY IDOCK:   -5.95 KCAL/MOL
REMARK 924 INTRA-LIGAND FREE ENERGY PREDICTED BY IDOCK:   -0.38 KCAL/MOL
REMARK 927      BINDING AFFINITY PREDICTED BY RF-SCORE:    0.00 PKD
ROOT
HETATM    1  C   UNL     1      -7.916   2.659  69.714  1.00  0.00    -0.053 C  
HETATM    2  C   UNL     1      -7.050   3.882  69.458  1.00  0.00    -0.046 C  
ENDROOT
BRANCH   2   3
HETATM    3  C   UNL     1      -7.667   5.078  68.758  1.00  0.00    -0.078 A  
HETATM    4  C   UNL     1      -7.194   6.368  69.134  1.00  0.00    -0.090 A  
HETATM    5  C   UNL     1      -7.416   7.453  68.284  1.00  0.00    -0.109 A  
HETATM    6  C   UNL     1      -8.742   5.002  67.849  1.00  0.00    -0.104 A  
HETATM    7  C   UNL     1      -9.179   6.186  67.264  1.00  0.00    -0.117 A  
HETATM    8  C   UNL     1      -8.369   7.323  67.296  1.00  0.00    -0.119 A  
HETATM    9  C   UNL     1      -9.074   8.480  66.663  1.00  0.00    -0.203 C  
HETATM   10  C   UNL     1     -10.429   8.200  67.334  1.00  0.00    -0.285 C  
HETATM   11  C   UNL     1     -10.610   6.661  66.948  1.00  0.00    -0.376 C  
BRANCH   4  12
HETATM   12  C   UNL     1      -6.675   6.590  70.546  1.00  0.00    -0.057 C  
HETATM   13  C   UNL     1      -5.464   7.511  70.697  1.00  0.00    -0.023 C  
ENDBRANCH   4  12
BRANCH  10  14
HETATM   14  N   UNL     1     -11.438   9.263  67.139  1.00  0.00     0.391 NA 
HETATM   15  H   UNL     1     -12.077   9.338  67.930  1.00  0.00     0.000 HD 
BRANCH  14  16
HETATM   16  C   UNL     1     -10.738  10.570  66.844  1.00  0.00    -0.219 C  
BRANCH  16  17
HETATM   17  C   UNL     1     -10.491  11.510  68.055  1.00  0.00    -0.189 C  
HETATM   18  H   UNL     1     -11.614  12.367  69.400  1.00  0.00     0.000 HD 
HETATM   19  O   UNL     1     -11.766  11.792  68.659  1.00  0.00    -0.287 OA 
BRANCH  17  20
HETATM   20  C   UNL     1      -9.764  12.829  67.723  1.00  0.00    -0.207 A  
HETATM   21  C   UNL     1     -10.298  13.798  66.839  1.00  0.00    -0.266 A  
HETATM   22  C   UNL     1     -11.668  13.730  66.311  1.00  0.00    -0.400 C  
HETATM   23  C   UNL     1     -12.124  14.625  65.426  1.00  0.00    -0.250 C  
HETATM   24  C   UNL     1     -11.248  15.710  64.913  1.00  0.00    -0.369 C  
HETATM   25  N   UNL     1      -9.999  15.802  65.458  1.00  0.00    -0.333 N  
HETATM   26  O   UNL     1     -11.642  16.482  64.054  1.00  0.00    -1.154 OA 
HETATM   27  H   UNL     1      -9.393  16.561  65.148  1.00  0.00     0.000 HD 
HETATM   28  C   UNL     1      -9.501  14.905  66.425  1.00  0.00    -0.300 A  
HETATM   29  C   UNL     1      -8.213  15.081  66.938  1.00  0.00    -0.171 A  
HETATM   30  C   UNL     1      -7.704  14.175  67.854  1.00  0.00    -0.161 A  
HETATM   31  O   UNL     1      -7.403  16.130  66.595  1.00  0.00    -0.213 OA 
HETATM   32  C   UNL     1      -8.470  13.070  68.247  1.00  0.00    -0.159 A  
HETATM   33  H   UNL     1      -6.528  16.250  66.943  1.00  0.00     0.000 HD 
ENDBRANCH  17  20
ENDBRANCH  16  17
ENDBRANCH  14  16
ENDBRANCH  10  14
ENDBRANCH   2   3
TORSDOF 6
ENDMDL
MODEL      302
REMARK 921   NORMALIZED FREE ENERGY PREDICTED BY IDOCK:   -3.73 KCAL/MOL
REMARK 922        TOTAL FREE ENERGY PREDICTED BY IDOCK:   -6.31 KCAL/MOL
REMARK 923 INTER-LIGAND FREE ENERGY PREDICTED BY IDOCK:   -6.13 KCAL/MOL
REMARK 924 INTRA-LIGAND FREE ENERGY PREDICTED BY IDOCK:   -0.18 KCAL/MOL
REMARK 927      BINDING AFFINITY PREDICTED BY RF-SCORE:    0.00 PKD
ROOT
HETATM    1  C   UNL     1      -7.266   2.316  68.578  1.00  0.00    -0.044 C  
HETATM    2  C   UNL     1      -5.986   3.074  68.264  1.00  0.00    -0.024 C  
ENDROOT
BRANCH   2   3
HETATM    3  C   UNL     1      -6.090   4.450  67.634  1.00  0.00    -0.031 A  
HETATM    4  C   UNL     1      -6.041   5.573  68.509  1.00  0.00    -0.022 A  
HETATM    5  C   UNL     1      -5.740   6.833  67.989  1.00  0.00    -0.016 A  
HETATM    6  C   UNL     1      -6.338   4.683  66.266  1.00  0.00    -0.036 A  
HETATM    7  C   UNL     1      -6.377   6.004  65.831  1.00  0.00    -0.042 A  
HETATM    8  C   UNL     1      -5.841   7.018  66.627  1.00  0.00    -0.030 A  
HETATM    9  C   UNL     1      -6.053   8.350  65.982  1.00  0.00    -0.045 C  
HETATM   10  C   UNL     1      -7.506   8.072  65.563  1.00  0.00    -0.081 C  
HETATM   11  C   UNL     1      -7.309   6.679  64.807  1.00  0.00    -0.084 C  
BRANCH   4  12
HETATM   12  C   UNL     1      -6.549   5.430  69.935  1.00  0.00    -0.046 C  
HETATM   13  C   UNL     1      -5.579   5.814  71.053  1.00  0.00    -0.017 C  
ENDBRANCH   4  12
BRANCH  10  14
HETATM   14  N   UNL     1      -8.225   9.248  65.031  1.00  0.00    -0.137 NA 
HETATM   15  H   UNL     1      -9.068   8.988  64.522  1.00  0.00     0.000 HD 
BRANCH  14  16
HETATM   16  C   UNL     1      -8.513  10.213  66.159  1.00  0.00    -0.130 C  
BRANCH  16  17
HETATM   17  C   UNL     1      -9.734   9.878  67.059  1.00  0.00    -0.182 C  
HETATM   18  H   UNL     1     -11.271   8.684  66.926  1.00  0.00     0.000 HD 
HETATM   19  O   UNL     1     -10.524   8.889  66.376  1.00  0.00    -0.219 OA 
BRANCH  17  20
HETATM   20  C   UNL     1     -10.617  11.084  67.439  1.00  0.00    -0.276 A  
HETATM   21  C   UNL     1     -11.167  11.965  66.477  1.00  0.00    -0.383 A  
HETATM   22  C   UNL     1     -11.112  11.707  65.032  1.00  0.00    -0.312 C  
HETATM   23  C   UNL     1     -11.584  12.590  64.142  1.00  0.00    -0.457 C  
HETATM   24  C   UNL     1     -12.155  13.890  64.581  1.00  0.00    -0.431 C  
HETATM   25  N   UNL     1     -12.260  14.091  65.928  1.00  0.00    -0.432 N  
HETATM   26  O   UNL     1     -12.520  14.723  63.768  1.00  0.00    -0.782 OA 
HETATM   27  H   UNL     1     -12.683  14.961  66.253  1.00  0.00     0.000 HD 
HETATM   28  C   UNL     1     -11.816  13.165  66.894  1.00  0.00    -0.386 A  
HETATM   29  C   UNL     1     -11.974  13.448  68.253  1.00  0.00    -0.317 A  
HETATM   30  C   UNL     1     -11.498  12.561  69.204  1.00  0.00    -0.361 A  
HETATM   31  O   UNL     1     -12.602  14.572  68.719  1.00  0.00    -0.555 OA 
HETATM   32  C   UNL     1     -10.836  11.393  68.804  1.00  0.00    -0.251 A  
HETATM   33  H   UNL     1     -12.708  14.766  69.643  1.00  0.00     0.000 HD 
ENDBRANCH  17  20
ENDBRANCH  16  17
ENDBRANCH  14  16
ENDBRANCH  10  14
ENDBRANCH   2   3
TORSDOF 6
ENDMDL
MODEL      303
REMARK 921   NORMALIZED FREE ENERGY PREDICTED BY IDOCK:   -3.67 KCAL/MOL
REMARK 922        TOTAL FREE ENERGY PREDICTED BY IDOCK:   -6.23 KCAL/MOL
REMARK 923 INTER-LIGAND FREE ENERGY PREDICTED BY IDOCK:   -4.88 KCAL/MOL
REMARK 924 INTRA-LIGAND FREE ENERGY PREDICTED BY IDOCK:   -1.36 KCAL/MOL
REMARK 927      BINDING AFFINITY PREDICTED BY RF-SCORE:    0.00 PKD
ROOT
HETATM    1  C   UNL     1     -10.304   4.798  67.587  1.00  0.00    -0.028 C  
HETATM    2  C   UNL     1     -10.524   6.301  67.554  1.00  0.00    -0.295 C  
ENDROOT
BRANCH   2   3
HETATM    3  C   UNL     1      -9.314   7.215  67.542  1.00  0.00    -0.137 A  
HETATM    4  C   UNL     1      -8.668   7.457  68.789  1.00  0.00    -0.128 A  
HETATM    5  C   UNL     1      -7.361   7.946  68.799  1.00  0.00    -0.086 A  
HETATM    6  C   UNL     1      -8.857   7.919  66.409  1.00  0.00    -0.184 A  
HETATM    7  C   UNL     1      -7.712   8.697  66.548  1.00  0.00    -0.095 A  
HETATM    8  C   UNL     1      -6.864   8.502  67.640  1.00  0.00    -0.071 A  
HETATM    9  C   UNL     1      -5.741   9.490  67.606  1.00  0.00    -0.040 C  
HETATM   10  C   UNL     1      -6.624  10.691  67.229  1.00  0.00    -0.073 C  
HETATM   11  C   UNL     1      -7.383  10.083  65.962  1.00  0.00    -0.112 C  
BRANCH   4  12
HETATM   12  C   UNL     1      -9.483   7.412  70.072  1.00  0.00    -0.161 C  
HETATM   13  C   UNL     1      -8.941   8.206  71.260  1.00  0.00    -0.179 C  
ENDBRANCH   4  12
BRANCH  10  14
HETATM   14  N   UNL     1      -5.934  11.997  67.276  1.00  0.00    -0.133 NA 
HETATM   15  H   UNL     1      -5.189  12.065  66.583  1.00  0.00     0.000 HD 
BRANCH  14  16
HETATM   16  C   UNL     1      -6.950  13.107  67.135  1.00  0.00     0.158 C  
BRANCH  16  17
HETATM   17  C   UNL     1      -7.762  13.466  68.410  1.00  0.00    -0.138 C  
HETATM   18  H   UNL     1      -7.503  13.243  70.330  1.00  0.00     0.000 HD 
HETATM   19  O   UNL     1      -7.006  13.023  69.551  1.00  0.00     0.023 OA 
BRANCH  17  20
HETATM   20  C   UNL     1      -9.187  12.879  68.465  1.00  0.00    -0.062 A  
HETATM   21  C   UNL     1     -10.299  13.606  68.954  1.00  0.00    -0.127 A  
HETATM   22  C   UNL     1     -10.238  15.040  69.272  1.00  0.00    -0.244 C  
HETATM   23  C   UNL     1     -11.287  15.688  69.796  1.00  0.00    -0.327 C  
HETATM   24  C   UNL     1     -12.551  14.972  70.108  1.00  0.00    -0.269 C  
HETATM   25  N   UNL     1     -12.618  13.656  69.749  1.00  0.00    -0.181 N  
HETATM   26  O   UNL     1     -13.481  15.547  70.649  1.00  0.00    -0.433 OA 
HETATM   27  H   UNL     1     -13.489  13.154  69.920  1.00  0.00     0.000 HD 
HETATM   28  C   UNL     1     -11.550  12.953  69.154  1.00  0.00    -0.322 A  
HETATM   29  C   UNL     1     -11.710  11.608  68.808  1.00  0.00    -0.330 A  
HETATM   30  C   UNL     1     -10.647  10.903  68.267  1.00  0.00    -0.223 A  
HETATM   31  O   UNL     1     -12.887  10.927  68.959  1.00  0.00    -0.493 OA 
HETATM   32  C   UNL     1      -9.407  11.530  68.091  1.00  0.00    -0.185 A  
HETATM   33  H   UNL     1     -12.996  10.014  68.725  1.00  0.00     0.000 HD 
ENDBRANCH  17  20
ENDBRANCH  16  17
ENDBRANCH  14  16
ENDBRANCH  10  14
ENDBRANCH   2   3
TORSDOF 6
ENDMDL
MODEL      304
REMARK 921   NORMALIZED FREE ENERGY PREDICTED BY IDOCK:   -3.64 KCAL/MOL
REMARK 922        TOTAL FREE ENERGY PREDICTED BY IDOCK:   -6.20 KCAL/MOL
REMARK 923 INTER-LIGAND FREE ENERGY PREDICTED BY IDOCK:   -5.82 KCAL/MOL
REMARK 924 INTRA-LIGAND FREE ENERGY PREDICTED BY IDOCK:   -0.38 KCAL/MOL
REMARK 927      BINDING AFFINITY PREDICTED BY RF-SCORE:    0.00 PKD
ROOT
HETATM    1  C   UNL     1      -6.286   8.795  71.611  1.00  0.00    -0.073 C  
HETATM    2  C   UNL     1      -5.861  10.092  70.943  1.00  0.00    -0.083 C  
ENDROOT
BRANCH   2   3
HETATM    3  C   UNL     1      -6.158  10.284  69.468  1.00  0.00    -0.045 A  
HETATM    4  C   UNL     1      -6.090  11.613  68.957  1.00  0.00    -0.057 A  
HETATM    5  C   UNL     1      -5.963  11.811  67.582  1.00  0.00    -0.072 A  
HETATM    6  C   UNL     1      -6.598   9.261  68.604  1.00  0.00    -0.053 A  
HETATM    7  C   UNL     1      -6.801   9.586  67.267  1.00  0.00    -0.084 A  
HETATM    8  C   UNL     1      -6.253  10.758  66.741  1.00  0.00    -0.083 A  
HETATM    9  C   UNL     1      -6.655  10.922  65.310  1.00  0.00     0.195 C  
HETATM   10  C   UNL     1      -8.122  10.517  65.531  1.00  0.00    -0.155 C  
HETATM   11  C   UNL     1      -7.909   9.132  66.297  1.00  0.00    -0.103 C  
BRANCH   4  12
HETATM   12  C   UNL     1      -6.398  12.783  69.879  1.00  0.00    -0.030 C  
HETATM   13  C   UNL     1      -5.206  13.609  70.362  1.00  0.00    -0.109 C  
ENDBRANCH   4  12
BRANCH  10  14
HETATM   14  N   UNL     1      -8.997  10.729  64.360  1.00  0.00    -0.264 NA 
HETATM   15  H   UNL     1      -8.938   9.963  63.690  1.00  0.00     0.000 HD 
BRANCH  14  16
HETATM   16  C   UNL     1     -10.414  10.970  64.829  1.00  0.00    -0.316 C  
BRANCH  16  17
HETATM   17  C   UNL     1     -10.948  12.422  64.693  1.00  0.00    -0.305 C  
HETATM   18  H   UNL     1     -10.295  14.073  63.886  1.00  0.00     0.000 HD 
HETATM   19  O   UNL     1      -9.968  13.185  63.968  1.00  0.00    -0.304 OA 
BRANCH  17  20
HETATM   20  C   UNL     1     -11.280  13.124  66.026  1.00  0.00    -0.316 A  
HETATM   21  C   UNL     1     -11.107  14.515  66.224  1.00  0.00    -0.332 A  
HETATM   22  C   UNL     1     -10.782  15.444  65.133  1.00  0.00    -0.460 C  
HETATM   23  C   UNL     1     -10.560  16.745  65.361  1.00  0.00    -0.218 C  
HETATM   24  C   UNL     1     -10.600  17.299  66.739  1.00  0.00    -0.192 C  
HETATM   25  N   UNL     1     -10.965  16.441  67.737  1.00  0.00    -0.302 N  
HETATM   26  O   UNL     1     -10.329  18.469  66.954  1.00  0.00    -0.360 OA 
HETATM   27  H   UNL     1     -11.035  16.808  68.686  1.00  0.00     0.000 HD 
HETATM   28  C   UNL     1     -11.251  15.076  67.528  1.00  0.00    -0.330 A  
HETATM   29  C   UNL     1     -11.630  14.272  68.606  1.00  0.00    -0.317 A  
HETATM   30  C   UNL     1     -11.866  12.921  68.411  1.00  0.00    -0.357 A  
HETATM   31  O   UNL     1     -11.802  14.750  69.877  1.00  0.00    -0.279 OA 
HETATM   32  C   UNL     1     -11.701  12.356  67.140  1.00  0.00    -0.415 A  
HETATM   33  H   UNL     1     -12.058  14.203  70.610  1.00  0.00     0.000 HD 
ENDBRANCH  17  20
ENDBRANCH  16  17
ENDBRANCH  14  16
ENDBRANCH  10  14
ENDBRANCH   2   3
TORSDOF 6
ENDMDL
MODEL      305
REMARK 921   NORMALIZED FREE ENERGY PREDICTED BY IDOCK:   -3.64 KCAL/MOL
REMARK 922        TOTAL FREE ENERGY PREDICTED BY IDOCK:   -6.19 KCAL/MOL
REMARK 923 INTER-LIGAND FREE ENERGY PREDICTED BY IDOCK:   -4.78 KCAL/MOL
REMARK 924 INTRA-LIGAND FREE ENERGY PREDICTED BY IDOCK:   -1.41 KCAL/MOL
REMARK 927      BINDING AFFINITY PREDICTED BY RF-SCORE:    0.00 PKD
ROOT
HETATM    1  C   UNL     1      -9.851   7.534  73.334  1.00  0.00    -0.365 C  
HETATM    2  C   UNL     1     -11.097   7.602  72.466  1.00  0.00    -0.388 C  
ENDROOT
BRANCH   2   3
HETATM    3  C   UNL     1     -11.225   8.732  71.462  1.00  0.00    -0.377 A  
HETATM    4  C   UNL     1     -12.393   9.544  71.541  1.00  0.00    -0.465 A  
HETATM    5  C   UNL     1     -12.394  10.801  70.934  1.00  0.00    -0.497 A  
HETATM    6  C   UNL     1     -10.327   8.959  70.399  1.00  0.00    -0.240 A  
HETATM    7  C   UNL     1     -10.562  10.057  69.577  1.00  0.00    -0.267 A  
HETATM    8  C   UNL     1     -11.420  11.075  69.999  1.00  0.00    -0.398 A  
HETATM    9  C   UNL     1     -11.562  12.109  68.928  1.00  0.00    -0.377 C  
HETATM   10  C   UNL     1     -11.701  11.099  67.777  1.00  0.00    -0.139 C  
HETATM   11  C   UNL     1     -10.412  10.197  68.051  1.00  0.00    -0.249 C  
BRANCH   4  12
HETATM   12  C   UNL     1     -13.686   8.942  72.068  1.00  0.00    -0.509 C  
HETATM   13  C   UNL     1     -14.329   7.845  71.219  1.00  0.00    -0.407 C  
ENDBRANCH   4  12
BRANCH  10  14
HETATM   14  N   UNL     1     -12.074  11.699  66.479  1.00  0.00    -0.161 NA 
HETATM   15  H   UNL     1     -13.000  11.406  66.170  1.00  0.00     0.000 HD 
BRANCH  14  16
HETATM   16  C   UNL     1     -11.951  13.203  66.568  1.00  0.00    -0.398 C  
BRANCH  16  17
HETATM   17  C   UNL     1     -10.729  13.840  65.850  1.00  0.00    -0.285 C  
HETATM   18  H   UNL     1     -10.335  14.422  64.031  1.00  0.00     0.000 HD 
HETATM   19  O   UNL     1     -11.083  14.033  64.470  1.00  0.00    -0.381 OA 
BRANCH  17  20
HETATM   20  C   UNL     1      -9.418  13.032  65.949  1.00  0.00    -0.047 A  
HETATM   21  C   UNL     1      -8.392  13.345  66.872  1.00  0.00    -0.013 A  
HETATM   22  C   UNL     1      -8.556  14.337  67.944  1.00  0.00    -0.171 C  
HETATM   23  C   UNL     1      -7.546  14.659  68.763  1.00  0.00    -0.138 C  
HETATM   24  C   UNL     1      -6.201  14.049  68.598  1.00  0.00    -0.088 C  
HETATM   25  N   UNL     1      -6.078  13.082  67.641  1.00  0.00    -0.150 N  
HETATM   26  O   UNL     1      -5.264  14.394  69.298  1.00  0.00    -0.079 OA 
HETATM   27  H   UNL     1      -5.173  12.623  67.534  1.00  0.00     0.000 HD 
HETATM   28  C   UNL     1      -7.131  12.684  66.791  1.00  0.00     0.455 A  
HETATM   29  C   UNL     1      -6.918  11.677  65.846  1.00  0.00     0.706 A  
HETATM   30  C   UNL     1      -7.938  11.317  64.980  1.00  0.00     0.597 A  
HETATM   31  O   UNL     1      -5.739  10.993  65.727  1.00  0.00    -0.210 OA 
HETATM   32  C   UNL     1      -9.171  11.979  65.034  1.00  0.00     0.258 A  
HETATM   33  H   UNL     1      -5.594  10.309  65.085  1.00  0.00     0.000 HD 
ENDBRANCH  17  20
ENDBRANCH  16  17
ENDBRANCH  14  16
ENDBRANCH  10  14
ENDBRANCH   2   3
TORSDOF 6
ENDMDL
MODEL      306
REMARK 921   NORMALIZED FREE ENERGY PREDICTED BY IDOCK:   -3.63 KCAL/MOL
REMARK 922        TOTAL FREE ENERGY PREDICTED BY IDOCK:   -6.19 KCAL/MOL
REMARK 923 INTER-LIGAND FREE ENERGY PREDICTED BY IDOCK:   -5.96 KCAL/MOL
REMARK 924 INTRA-LIGAND FREE ENERGY PREDICTED BY IDOCK:   -0.23 KCAL/MOL
REMARK 927      BINDING AFFINITY PREDICTED BY RF-SCORE:    0.00 PKD
ROOT
HETATM    1  C   UNL     1      -9.766  20.870  68.131  1.00  0.00     0.151 C  
HETATM    2  C   UNL     1      -9.149  19.821  67.220  1.00  0.00    -0.413 C  
ENDROOT
BRANCH   2   3
HETATM    3  C   UNL     1      -9.403  18.356  67.520  1.00  0.00    -0.270 A  
HETATM    4  C   UNL     1      -8.448  17.684  68.338  1.00  0.00    -0.287 A  
HETATM    5  C   UNL     1      -8.805  16.489  68.964  1.00  0.00    -0.223 A  
HETATM    6  C   UNL     1     -10.451  17.597  66.961  1.00  0.00    -0.305 A  
HETATM    7  C   UNL     1     -10.571  16.269  67.357  1.00  0.00    -0.307 A  
HETATM    8  C   UNL     1      -9.921  15.821  68.509  1.00  0.00    -0.208 A  
HETATM    9  C   UNL     1     -10.148  14.355  68.695  1.00  0.00    -0.242 C  
HETATM   10  C   UNL     1      -9.924  13.991  67.218  1.00  0.00    -0.242 C  
HETATM   11  C   UNL     1     -10.933  15.021  66.529  1.00  0.00    -0.327 C  
BRANCH   4  12
HETATM   12  C   UNL     1      -6.998  18.142  68.322  1.00  0.00    -0.233 C  
HETATM   13  C   UNL     1      -6.517  18.941  69.533  1.00  0.00    -0.270 C  
ENDBRANCH   4  12
BRANCH  10  14
HETATM   14  N   UNL     1      -9.856  12.540  66.949  1.00  0.00    -0.223 NA 
HETATM   15  H   UNL     1      -9.957  12.326  65.958  1.00  0.00     0.000 HD 
BRANCH  14  16
HETATM   16  C   UNL     1      -8.575  11.983  67.527  1.00  0.00    -0.167 C  
BRANCH  16  17
HETATM   17  C   UNL     1      -8.729  10.961  68.687  1.00  0.00    -0.154 C  
HETATM   18  H   UNL     1      -7.573  10.288  70.107  1.00  0.00     0.000 HD 
HETATM   19  O   UNL     1      -7.479  10.913  69.398  1.00  0.00    -0.132 OA 
BRANCH  17  20
HETATM   20  C   UNL     1      -9.143   9.539  68.256  1.00  0.00    -0.127 A  
HETATM   21  C   UNL     1      -8.692   8.939  67.056  1.00  0.00    -0.130 A  
HETATM   22  C   UNL     1      -7.644   9.529  66.212  1.00  0.00    -0.097 C  
HETATM   23  C   UNL     1      -7.283   8.972  65.048  1.00  0.00    -0.092 C  
HETATM   24  C   UNL     1      -7.954   7.746  64.545  1.00  0.00    -0.135 C  
HETATM   25  N   UNL     1      -8.881   7.170  65.367  1.00  0.00    -0.374 N  
HETATM   26  O   UNL     1      -7.674   7.279  63.454  1.00  0.00    -0.114 OA 
HETATM   27  H   UNL     1      -9.328   6.307  65.059  1.00  0.00     0.000 HD 
HETATM   28  C   UNL     1      -9.253   7.703  66.619  1.00  0.00    -0.170 A  
HETATM   29  C   UNL     1     -10.202   7.040  67.402  1.00  0.00    -0.215 A  
HETATM   30  C   UNL     1     -10.604   7.586  68.610  1.00  0.00    -0.171 A  
HETATM   31  O   UNL     1     -10.767   5.844  67.048  1.00  0.00    -0.274 OA 
HETATM   32  C   UNL     1     -10.077   8.812  69.035  1.00  0.00    -0.206 A  
HETATM   33  H   UNL     1     -11.413   5.394  67.579  1.00  0.00     0.000 HD 
ENDBRANCH  17  20
ENDBRANCH  16  17
ENDBRANCH  14  16
ENDBRANCH  10  14
ENDBRANCH   2   3
TORSDOF 6
ENDMDL
MODEL      307
REMARK 921   NORMALIZED FREE ENERGY PREDICTED BY IDOCK:   -3.61 KCAL/MOL
REMARK 922        TOTAL FREE ENERGY PREDICTED BY IDOCK:   -6.16 KCAL/MOL
REMARK 923 INTER-LIGAND FREE ENERGY PREDICTED BY IDOCK:   -4.57 KCAL/MOL
REMARK 924 INTRA-LIGAND FREE ENERGY PREDICTED BY IDOCK:   -1.58 KCAL/MOL
REMARK 927      BINDING AFFINITY PREDICTED BY RF-SCORE:    0.00 PKD
ROOT
HETATM    1  C   UNL     1     -10.287  14.143  66.174  1.00  0.00    -0.304 C  
HETATM    2  C   UNL     1     -10.059  12.679  65.836  1.00  0.00    -0.276 C  
ENDROOT
BRANCH   2   3
HETATM    3  C   UNL     1      -9.904  11.685  66.971  1.00  0.00    -0.211 A  
HETATM    4  C   UNL     1      -8.655  11.668  67.656  1.00  0.00    -0.142 A  
HETATM    5  C   UNL     1      -8.577  11.083  68.921  1.00  0.00    -0.122 A  
HETATM    6  C   UNL     1     -10.867  10.714  67.317  1.00  0.00    -0.345 A  
HETATM    7  C   UNL     1     -10.593   9.891  68.405  1.00  0.00    -0.258 A  
HETATM    8  C   UNL     1      -9.597  10.246  69.318  1.00  0.00    -0.239 A  
HETATM    9  C   UNL     1      -9.445   9.183  70.358  1.00  0.00    -0.269 C  
HETATM   10  C   UNL     1      -9.519   8.008  69.368  1.00  0.00    -0.159 C  
HETATM   11  C   UNL     1     -10.866   8.387  68.598  1.00  0.00     0.027 C  
BRANCH   4  12
HETATM   12  C   UNL     1      -7.390  12.063  66.911  1.00  0.00    -0.042 C  
HETATM   13  C   UNL     1      -6.487  13.094  67.587  1.00  0.00    -0.166 C  
ENDBRANCH   4  12
BRANCH  10  14
HETATM   14  N   UNL     1      -9.204   6.691  69.958  1.00  0.00    -0.157 NA 
HETATM   15  H   UNL     1      -9.656   5.926  69.459  1.00  0.00     0.000 HD 
BRANCH  14  16
HETATM   16  C   UNL     1      -7.704   6.519  70.030  1.00  0.00    -0.102 C  
BRANCH  16  17
HETATM   17  C   UNL     1      -7.041   5.744  68.859  1.00  0.00    -0.073 C  
HETATM   18  H   UNL     1      -5.212   5.302  68.345  1.00  0.00     0.000 HD 
HETATM   19  O   UNL     1      -5.617   5.776  69.062  1.00  0.00    -0.010 OA 
BRANCH  17  20
HETATM   20  C   UNL     1      -7.383   6.270  67.450  1.00  0.00    -0.084 A  
HETATM   21  C   UNL     1      -8.239   5.578  66.560  1.00  0.00    -0.105 A  
HETATM   22  C   UNL     1      -9.030   4.406  66.960  1.00  0.00    -0.125 C  
HETATM   23  C   UNL     1      -9.782   3.732  66.079  1.00  0.00    -0.136 C  
HETATM   24  C   UNL     1      -9.821   4.126  64.647  1.00  0.00    -0.178 C  
HETATM   25  N   UNL     1      -9.135   5.254  64.300  1.00  0.00    -0.357 N  
HETATM   26  O   UNL     1     -10.451   3.471  63.833  1.00  0.00    -0.228 OA 
HETATM   27  H   UNL     1      -9.178   5.564  63.329  1.00  0.00     0.000 HD 
HETATM   28  C   UNL     1      -8.370   6.014  65.208  1.00  0.00    -0.148 A  
HETATM   29  C   UNL     1      -7.708   7.164  64.768  1.00  0.00    -0.115 A  
HETATM   30  C   UNL     1      -6.918   7.886  65.648  1.00  0.00    -0.053 A  
HETATM   31  O   UNL     1      -7.804   7.645  63.490  1.00  0.00    -0.128 OA 
HETATM   32  C   UNL     1      -6.763   7.450  66.971  1.00  0.00    -0.069 A  
HETATM   33  H   UNL     1      -7.354   8.426  63.191  1.00  0.00     0.000 HD 
ENDBRANCH  17  20
ENDBRANCH  16  17
ENDBRANCH  14  16
ENDBRANCH  10  14
ENDBRANCH   2   3
TORSDOF 6
ENDMDL
MODEL      308
REMARK 921   NORMALIZED FREE ENERGY PREDICTED BY IDOCK:   -3.61 KCAL/MOL
REMARK 922        TOTAL FREE ENERGY PREDICTED BY IDOCK:   -6.15 KCAL/MOL
REMARK 923 INTER-LIGAND FREE ENERGY PREDICTED BY IDOCK:   -5.77 KCAL/MOL
REMARK 924 INTRA-LIGAND FREE ENERGY PREDICTED BY IDOCK:   -0.38 KCAL/MOL
REMARK 927      BINDING AFFINITY PREDICTED BY RF-SCORE:    0.00 PKD
ROOT
HETATM    1  C   UNL     1      -7.046  18.806  68.371  1.00  0.00    -0.288 C  
HETATM    2  C   UNL     1      -7.743  18.007  67.282  1.00  0.00    -0.220 C  
ENDROOT
BRANCH   2   3
HETATM    3  C   UNL     1      -7.841  16.501  67.434  1.00  0.00    -0.181 A  
HETATM    4  C   UNL     1      -9.112  15.963  67.789  1.00  0.00    -0.196 A  
HETATM    5  C   UNL     1      -9.368  14.609  67.564  1.00  0.00    -0.195 A  
HETATM    6  C   UNL     1      -6.744  15.619  67.353  1.00  0.00    -0.218 A  
HETATM    7  C   UNL     1      -6.997  14.257  67.484  1.00  0.00    -0.177 A  
HETATM    8  C   UNL     1      -8.298  13.771  67.337  1.00  0.00    -0.201 A  
HETATM    9  C   UNL     1      -8.331  12.296  67.581  1.00  0.00    -0.166 C  
HETATM   10  C   UNL     1      -7.414  12.339  68.815  1.00  0.00    -0.065 C  
HETATM   11  C   UNL     1      -6.189  13.168  68.214  1.00  0.00    -0.092 C  
BRANCH   4  12
HETATM   12  C   UNL     1     -10.070  16.801  68.619  1.00  0.00    -0.279 C  
HETATM   13  C   UNL     1     -10.874  17.867  67.874  1.00  0.00    -0.225 C  
ENDBRANCH   4  12
BRANCH  10  14
HETATM   14  N   UNL     1      -7.313  11.059  69.546  1.00  0.00    -0.296 NA 
HETATM   15  H   UNL     1      -6.989  11.186  70.504  1.00  0.00     0.000 HD 
BRANCH  14  16
HETATM   16  C   UNL     1      -8.642  10.340  69.484  1.00  0.00    -0.138 C  
BRANCH  16  17
HETATM   17  C   UNL     1      -8.972   9.396  70.672  1.00  0.00    -0.228 C  
HETATM   18  H   UNL     1      -8.051   8.833  72.297  1.00  0.00     0.000 HD 
HETATM   19  O   UNL     1      -7.849   9.411  71.570  1.00  0.00    -0.308 OA 
BRANCH  17  20
HETATM   20  C   UNL     1      -9.312   7.944  70.279  1.00  0.00    -0.159 A  
HETATM   21  C   UNL     1      -9.927   7.031  71.170  1.00  0.00    -0.191 A  
HETATM   22  C   UNL     1     -10.470   7.432  72.476  1.00  0.00    -0.280 C  
HETATM   23  C   UNL     1     -10.988   6.535  73.326  1.00  0.00    -0.224 C  
HETATM   24  C   UNL     1     -11.003   5.086  72.996  1.00  0.00    -0.295 C  
HETATM   25  N   UNL     1     -10.554   4.733  71.755  1.00  0.00    -0.112 N  
HETATM   26  O   UNL     1     -11.410   4.263  73.799  1.00  0.00    -0.234 OA 
HETATM   27  H   UNL     1     -10.590   3.749  71.492  1.00  0.00     0.000 HD 
HETATM   28  C   UNL     1     -10.045   5.655  70.816  1.00  0.00    -0.209 A  
HETATM   29  C   UNL     1      -9.619   5.207  69.563  1.00  0.00    -0.161 A  
HETATM   30  C   UNL     1      -9.075   6.103  68.657  1.00  0.00    -0.125 A  
HETATM   31  O   UNL     1      -9.719   3.904  69.156  1.00  0.00    -0.176 OA 
HETATM   32  C   UNL     1      -8.931   7.452  69.006  1.00  0.00    -0.131 A  
HETATM   33  H   UNL     1      -9.429   3.599  68.304  1.00  0.00     0.000 HD 
ENDBRANCH  17  20
ENDBRANCH  16  17
ENDBRANCH  14  16
ENDBRANCH  10  14
ENDBRANCH   2   3
TORSDOF 6
ENDMDL
MODEL      309
REMARK 921   NORMALIZED FREE ENERGY PREDICTED BY IDOCK:   -3.59 KCAL/MOL
REMARK 922        TOTAL FREE ENERGY PREDICTED BY IDOCK:   -6.12 KCAL/MOL
REMARK 923 INTER-LIGAND FREE ENERGY PREDICTED BY IDOCK:   -4.28 KCAL/MOL
REMARK 924 INTRA-LIGAND FREE ENERGY PREDICTED BY IDOCK:   -1.84 KCAL/MOL
REMARK 927      BINDING AFFINITY PREDICTED BY RF-SCORE:    0.00 PKD
ROOT
HETATM    1  C   UNL     1      -9.061   4.041  74.353  1.00  0.00    -0.109 C  
HETATM    2  C   UNL     1      -8.787   5.471  73.916  1.00  0.00    -0.120 C  
ENDROOT
BRANCH   2   3
HETATM    3  C   UNL     1      -8.279   5.717  72.508  1.00  0.00    -0.114 A  
HETATM    4  C   UNL     1      -9.104   6.494  71.644  1.00  0.00    -0.143 A  
HETATM    5  C   UNL     1      -8.544   7.078  70.507  1.00  0.00    -0.141 A  
HETATM    6  C   UNL     1      -7.108   5.142  71.971  1.00  0.00    -0.083 A  
HETATM    7  C   UNL     1      -6.756   5.488  70.670  1.00  0.00    -0.047 A  
HETATM    8  C   UNL     1      -7.323   6.613  70.068  1.00  0.00    -0.089 A  
HETATM    9  C   UNL     1      -6.840   6.744  68.658  1.00  0.00    -0.066 C  
HETATM   10  C   UNL     1      -6.986   5.251  68.322  1.00  0.00    -0.061 C  
HETATM   11  C   UNL     1      -6.172   4.617  69.541  1.00  0.00    -0.027 C  
BRANCH   4  12
HETATM   12  C   UNL     1     -10.611   6.476  71.838  1.00  0.00    -0.239 C  
HETATM   13  C   UNL     1     -11.316   7.832  71.878  1.00  0.00    -0.315 C  
ENDBRANCH   4  12
BRANCH  10  14
HETATM   14  N   UNL     1      -6.793   4.925  66.893  1.00  0.00    -0.055 NA 
HETATM   15  H   UNL     1      -6.038   4.255  66.749  1.00  0.00     0.000 HD 
BRANCH  14  16
HETATM   16  C   UNL     1      -8.101   4.447  66.307  1.00  0.00    -0.102 C  
BRANCH  16  17
HETATM   17  C   UNL     1      -8.708   5.318  65.172  1.00  0.00    -0.146 C  
HETATM   18  H   UNL     1      -8.632   5.308  63.223  1.00  0.00     0.000 HD 
HETATM   19  O   UNL     1      -8.261   4.775  63.917  1.00  0.00    -0.105 OA 
BRANCH  17  20
HETATM   20  C   UNL     1      -8.367   6.820  65.246  1.00  0.00    -0.108 A  
HETATM   21  C   UNL     1      -9.080   7.729  66.064  1.00  0.00    -0.169 A  
HETATM   22  C   UNL     1     -10.075   7.300  67.057  1.00  0.00    -0.316 C  
HETATM   23  C   UNL     1     -10.782   8.186  67.771  1.00  0.00    -0.166 C  
HETATM   24  C   UNL     1     -10.610   9.648  67.564  1.00  0.00    -0.277 C  
HETATM   25  N   UNL     1      -9.637  10.035  66.687  1.00  0.00    -0.178 N  
HETATM   26  O   UNL     1     -11.302  10.452  68.165  1.00  0.00    -0.289 OA 
HETATM   27  H   UNL     1      -9.476  11.033  66.557  1.00  0.00     0.000 HD 
HETATM   28  C   UNL     1      -8.843   9.131  65.952  1.00  0.00    -0.175 A  
HETATM   29  C   UNL     1      -7.861   9.615  65.084  1.00  0.00    -0.117 A  
HETATM   30  C   UNL     1      -7.111   8.730  64.326  1.00  0.00    -0.089 A  
HETATM   31  O   UNL     1      -7.573  10.946  64.941  1.00  0.00    -0.353 OA 
HETATM   32  C   UNL     1      -7.355   7.353  64.410  1.00  0.00    -0.085 A  
HETATM   33  H   UNL     1      -6.906  11.275  64.350  1.00  0.00     0.000 HD 
ENDBRANCH  17  20
ENDBRANCH  16  17
ENDBRANCH  14  16
ENDBRANCH  10  14
ENDBRANCH   2   3
TORSDOF 6
ENDMDL
MODEL      310
REMARK 921   NORMALIZED FREE ENERGY PREDICTED BY IDOCK:   -3.55 KCAL/MOL
REMARK 922        TOTAL FREE ENERGY PREDICTED BY IDOCK:   -6.07 KCAL/MOL
REMARK 923 INTER-LIGAND FREE ENERGY PREDICTED BY IDOCK:   -5.68 KCAL/MOL
REMARK 924 INTRA-LIGAND FREE ENERGY PREDICTED BY IDOCK:   -0.39 KCAL/MOL
REMARK 927      BINDING AFFINITY PREDICTED BY RF-SCORE:    0.00 PKD
ROOT
HETATM    1  C   UNL     1      -9.030   1.549  64.489  1.00  0.00    -0.107 C  
HETATM    2  C   UNL     1      -8.901   1.699  65.996  1.00  0.00    -0.118 C  
ENDROOT
BRANCH   2   3
HETATM    3  C   UNL     1      -8.960   3.091  66.597  1.00  0.00    -0.169 A  
HETATM    4  C   UNL     1      -8.624   3.220  67.976  1.00  0.00    -0.118 A  
HETATM    5  C   UNL     1      -8.280   4.475  68.482  1.00  0.00    -0.082 A  
HETATM    6  C   UNL     1      -9.423   4.235  65.915  1.00  0.00    -0.176 A  
HETATM    7  C   UNL     1      -9.388   5.450  66.592  1.00  0.00    -0.143 A  
HETATM    8  C   UNL     1      -8.604   5.589  67.739  1.00  0.00    -0.108 A  
HETATM    9  C   UNL     1      -8.776   6.956  68.321  1.00  0.00    -0.123 C  
HETATM   10  C   UNL     1     -10.303   6.991  68.145  1.00  0.00    -0.191 C  
HETATM   11  C   UNL     1     -10.407   6.605  66.599  1.00  0.00    -0.215 C  
BRANCH   4  12
HETATM   12  C   UNL     1      -8.878   2.053  68.917  1.00  0.00    -0.138 C  
HETATM   13  C   UNL     1      -9.037   2.388  70.401  1.00  0.00    -0.176 C  
ENDBRANCH   4  12
BRANCH  10  14
HETATM   14  N   UNL     1     -10.967   8.141  68.794  1.00  0.00    -0.419 NA 
HETATM   15  H   UNL     1     -11.106   7.993  69.793  1.00  0.00     0.000 HD 
BRANCH  14  16
HETATM   16  C   UNL     1     -10.182   9.401  68.506  1.00  0.00    -0.199 C  
BRANCH  16  17
HETATM   17  C   UNL     1     -10.697  10.282  67.334  1.00  0.00    -0.281 C  
HETATM   18  H   UNL     1     -10.214  10.520  65.459  1.00  0.00     0.000 HD 
HETATM   19  O   UNL     1      -9.899   9.981  66.176  1.00  0.00    -0.214 OA 
BRANCH  17  20
HETATM   20  C   UNL     1     -10.682  11.800  67.602  1.00  0.00    -0.254 A  
HETATM   21  C   UNL     1      -9.510  12.504  67.969  1.00  0.00    -0.209 A  
HETATM   22  C   UNL     1      -8.172  11.897  67.940  1.00  0.00    -0.150 C  
HETATM   23  C   UNL     1      -7.088  12.566  68.354  1.00  0.00    -0.107 C  
HETATM   24  C   UNL     1      -7.200  13.946  68.894  1.00  0.00    -0.103 C  
HETATM   25  N   UNL     1      -8.437  14.523  68.857  1.00  0.00    -0.277 N  
HETATM   26  O   UNL     1      -6.223  14.528  69.336  1.00  0.00    -0.102 OA 
HETATM   27  H   UNL     1      -8.531  15.483  69.188  1.00  0.00     0.000 HD 
HETATM   28  C   UNL     1      -9.592  13.865  68.385  1.00  0.00    -0.215 A  
HETATM   29  C   UNL     1     -10.818  14.536  68.371  1.00  0.00    -0.243 A  
HETATM   30  C   UNL     1     -11.962  13.877  67.952  1.00  0.00    -0.393 A  
HETATM   31  O   UNL     1     -10.962  15.846  68.742  1.00  0.00    -0.264 OA 
HETATM   32  C   UNL     1     -11.895  12.532  67.566  1.00  0.00    -0.389 A  
HETATM   33  H   UNL     1     -11.795  16.303  68.733  1.00  0.00     0.000 HD 
ENDBRANCH  17  20
ENDBRANCH  16  17
ENDBRANCH  14  16
ENDBRANCH  10  14
ENDBRANCH   2   3
TORSDOF 6
ENDMDL
MODEL      311
REMARK 921   NORMALIZED FREE ENERGY PREDICTED BY IDOCK:   -3.47 KCAL/MOL
REMARK 922        TOTAL FREE ENERGY PREDICTED BY IDOCK:   -5.96 KCAL/MOL
REMARK 923 INTER-LIGAND FREE ENERGY PREDICTED BY IDOCK:   -5.27 KCAL/MOL
REMARK 924 INTRA-LIGAND FREE ENERGY PREDICTED BY IDOCK:   -0.70 KCAL/MOL
REMARK 927      BINDING AFFINITY PREDICTED BY RF-SCORE:    0.00 PKD
ROOT
HETATM    1  C   UNL     1      -9.545   2.868  71.636  1.00  0.00    -0.222 C  
HETATM    2  C   UNL     1      -8.771   4.121  72.013  1.00  0.00    -0.123 C  
ENDROOT
BRANCH   2   3
HETATM    3  C   UNL     1      -8.683   5.253  71.006  1.00  0.00    -0.138 A  
HETATM    4  C   UNL     1      -9.321   6.480  71.349  1.00  0.00    -0.154 A  
HETATM    5  C   UNL     1      -8.959   7.649  70.679  1.00  0.00    -0.153 A  
HETATM    6  C   UNL     1      -8.111   5.135  69.723  1.00  0.00    -0.082 A  
HETATM    7  C   UNL     1      -8.078   6.273  68.923  1.00  0.00    -0.110 A  
HETATM    8  C   UNL     1      -8.266   7.534  69.493  1.00  0.00    -0.130 A  
HETATM    9  C   UNL     1      -8.250   8.589  68.434  1.00  0.00    -0.123 C  
HETATM   10  C   UNL     1      -9.121   7.803  67.440  1.00  0.00    -0.126 C  
HETATM   11  C   UNL     1      -8.318   6.423  67.409  1.00  0.00    -0.112 C  
BRANCH   4  12
HETATM   12  C   UNL     1     -10.542   6.458  72.255  1.00  0.00    -0.242 C  
HETATM   13  C   UNL     1     -11.888   6.172  71.588  1.00  0.00    -0.241 C  
ENDBRANCH   4  12
BRANCH  10  14
HETATM   14  N   UNL     1      -9.552   8.577  66.258  1.00  0.00    -0.290 NA 
HETATM   15  H   UNL     1     -10.541   8.446  66.050  1.00  0.00     0.000 HD 
BRANCH  14  16
HETATM   16  C   UNL     1      -9.198  10.034  66.457  1.00  0.00    -0.150 C  
BRANCH  16  17
HETATM   17  C   UNL     1     -10.386  11.034  66.492  1.00  0.00    -0.245 C  
HETATM   18  H   UNL     1     -12.080  11.213  65.542  1.00  0.00     0.000 HD 
HETATM   19  O   UNL     1     -11.353  10.601  65.520  1.00  0.00     0.351 OA 
BRANCH  17  20
HETATM   20  C   UNL     1     -10.009  12.507  66.238  1.00  0.00    -0.263 A  
HETATM   21  C   UNL     1      -9.101  13.220  67.058  1.00  0.00    -0.232 A  
HETATM   22  C   UNL     1      -8.292  12.575  68.102  1.00  0.00    -0.175 C  
HETATM   23  C   UNL     1      -7.489  13.284  68.907  1.00  0.00     0.002 C  
HETATM   24  C   UNL     1      -7.409  14.764  68.797  1.00  0.00    -0.129 C  
HETATM   25  N   UNL     1      -8.115  15.345  67.783  1.00  0.00    -0.133 N  
HETATM   26  O   UNL     1      -6.732  15.416  69.575  1.00  0.00    -0.149 OA 
HETATM   27  H   UNL     1      -8.045  16.356  67.665  1.00  0.00     0.000 HD 
HETATM   28  C   UNL     1      -8.934  14.626  66.888  1.00  0.00    -0.253 A  
HETATM   29  C   UNL     1      -9.612  15.301  65.870  1.00  0.00    -0.342 A  
HETATM   30  C   UNL     1     -10.453  14.603  65.019  1.00  0.00    -0.447 A  
HETATM   31  O   UNL     1      -9.483  16.644  65.643  1.00  0.00    -0.511 OA 
HETATM   32  C   UNL     1     -10.644  13.226  65.195  1.00  0.00    -0.342 A  
HETATM   33  H   UNL     1      -9.944  17.104  64.951  1.00  0.00     0.000 HD 
ENDBRANCH  17  20
ENDBRANCH  16  17
ENDBRANCH  14  16
ENDBRANCH  10  14
ENDBRANCH   2   3
TORSDOF 6
ENDMDL
MODEL      312
REMARK 921   NORMALIZED FREE ENERGY PREDICTED BY IDOCK:   -3.47 KCAL/MOL
REMARK 922        TOTAL FREE ENERGY PREDICTED BY IDOCK:   -5.96 KCAL/MOL
REMARK 923 INTER-LIGAND FREE ENERGY PREDICTED BY IDOCK:   -4.61 KCAL/MOL
REMARK 924 INTRA-LIGAND FREE ENERGY PREDICTED BY IDOCK:   -1.35 KCAL/MOL
REMARK 927      BINDING AFFINITY PREDICTED BY RF-SCORE:    0.00 PKD
ROOT
HETATM    1  C   UNL     1     -11.703  11.909  67.598  1.00  0.00    -0.346 C  
HETATM    2  C   UNL     1     -10.316  11.290  67.556  1.00  0.00    -0.224 C  
ENDROOT
BRANCH   2   3
HETATM    3  C   UNL     1     -10.184   9.785  67.698  1.00  0.00    -0.261 A  
HETATM    4  C   UNL     1     -10.002   9.268  69.013  1.00  0.00    -0.187 A  
HETATM    5  C   UNL     1     -10.264   7.920  69.260  1.00  0.00    -0.216 A  
HETATM    6  C   UNL     1     -10.123   8.885  66.614  1.00  0.00    -0.357 A  
HETATM    7  C   UNL     1     -10.031   7.528  66.905  1.00  0.00    -0.318 A  
HETATM    8  C   UNL     1     -10.350   7.064  68.183  1.00  0.00    -0.226 A  
HETATM    9  C   UNL     1     -10.118   5.589  68.271  1.00  0.00    -0.226 C  
HETATM   10  C   UNL     1      -8.774   5.615  67.525  1.00  0.00    -0.107 C  
HETATM   11  C   UNL     1      -9.205   6.424  66.218  1.00  0.00    -0.162 C  
BRANCH   4  12
HETATM   12  C   UNL     1      -9.302  10.121  70.059  1.00  0.00    -0.062 C  
HETATM   13  C   UNL     1      -7.785  10.257  69.933  1.00  0.00    -0.139 C  
ENDBRANCH   4  12
BRANCH  10  14
HETATM   14  N   UNL     1      -8.041   4.332  67.543  1.00  0.00    -0.098 NA 
HETATM   15  H   UNL     1      -8.146   3.815  66.671  1.00  0.00     0.000 HD 
BRANCH  14  16
HETATM   16  C   UNL     1      -6.590   4.589  67.884  1.00  0.00    -0.046 C  
BRANCH  16  17
HETATM   17  C   UNL     1      -6.150   4.239  69.332  1.00  0.00    -0.027 C  
HETATM   18  H   UNL     1      -6.586   2.839  70.617  1.00  0.00     0.000 HD 
HETATM   19  O   UNL     1      -6.856   3.052  69.732  1.00  0.00    -0.033 OA 
BRANCH  17  20
HETATM   20  C   UNL     1      -6.371   5.357  70.371  1.00  0.00    -0.030 A  
HETATM   21  C   UNL     1      -7.567   5.485  71.119  1.00  0.00    -0.102 A  
HETATM   22  C   UNL     1      -8.623   4.462  71.118  1.00  0.00    -0.120 C  
HETATM   23  C   UNL     1      -9.772   4.639  71.783  1.00  0.00    -0.230 C  
HETATM   24  C   UNL     1     -10.041   5.898  72.526  1.00  0.00    -0.179 C  
HETATM   25  N   UNL     1      -9.028   6.813  72.574  1.00  0.00    -0.131 N  
HETATM   26  O   UNL     1     -11.114   6.087  73.073  1.00  0.00    -0.260 OA 
HETATM   27  H   UNL     1      -9.176   7.668  73.109  1.00  0.00     0.000 HD 
HETATM   28  C   UNL     1      -7.788   6.640  71.924  1.00  0.00    -0.098 A  
HETATM   29  C   UNL     1      -6.802   7.624  72.036  1.00  0.00    -0.063 A  
HETATM   30  C   UNL     1      -5.601   7.479  71.360  1.00  0.00    -0.035 A  
HETATM   31  O   UNL     1      -6.945   8.748  72.804  1.00  0.00    -0.305 OA 
HETATM   32  C   UNL     1      -5.385   6.360  70.546  1.00  0.00    -0.018 A  
HETATM   33  H   UNL     1      -6.275   9.418  72.880  1.00  0.00     0.000 HD 
ENDBRANCH  17  20
ENDBRANCH  16  17
ENDBRANCH  14  16
ENDBRANCH  10  14
ENDBRANCH   2   3
TORSDOF 6
ENDMDL
MODEL      313
REMARK 921   NORMALIZED FREE ENERGY PREDICTED BY IDOCK:   -3.46 KCAL/MOL
REMARK 922        TOTAL FREE ENERGY PREDICTED BY IDOCK:   -5.95 KCAL/MOL
REMARK 923 INTER-LIGAND FREE ENERGY PREDICTED BY IDOCK:   -5.48 KCAL/MOL
REMARK 924 INTRA-LIGAND FREE ENERGY PREDICTED BY IDOCK:   -0.47 KCAL/MOL
REMARK 927      BINDING AFFINITY PREDICTED BY RF-SCORE:    0.00 PKD
ROOT
HETATM    1  C   UNL     1      -7.626  20.028  69.285  1.00  0.00     0.005 C  
HETATM    2  C   UNL     1      -8.638  19.248  68.462  1.00  0.00    -0.400 C  
ENDROOT
BRANCH   2   3
HETATM    3  C   UNL     1      -8.381  17.778  68.193  1.00  0.00    -0.264 A  
HETATM    4  C   UNL     1      -7.396  17.457  67.215  1.00  0.00    -0.194 A  
HETATM    5  C   UNL     1      -6.839  16.177  67.200  1.00  0.00    -0.240 A  
HETATM    6  C   UNL     1      -9.121  16.722  68.764  1.00  0.00    -0.259 A  
HETATM    7  C   UNL     1      -8.746  15.421  68.443  1.00  0.00    -0.171 A  
HETATM    8  C   UNL     1      -7.490  15.174  67.885  1.00  0.00    -0.149 A  
HETATM    9  C   UNL     1      -7.340  13.719  67.572  1.00  0.00    -0.176 C  
HETATM   10  C   UNL     1      -8.747  13.560  66.973  1.00  0.00    -0.187 C  
HETATM   11  C   UNL     1      -9.618  14.184  68.157  1.00  0.00    -0.218 C  
BRANCH   4  12
HETATM   12  C   UNL     1      -7.144  18.420  66.066  1.00  0.00    -0.307 C  
HETATM   13  C   UNL     1      -5.868  18.203  65.254  1.00  0.00    -0.163 C  
ENDBRANCH   4  12
BRANCH  10  14
HETATM   14  N   UNL     1      -8.989  12.258  66.317  1.00  0.00    -0.393 NA 
HETATM   15  H   UNL     1      -9.346  12.364  65.368  1.00  0.00     0.000 HD 
BRANCH  14  16
HETATM   16  C   UNL     1      -7.725  11.431  66.364  1.00  0.00    -0.051 C  
BRANCH  16  17
HETATM   17  C   UNL     1      -7.756  10.079  65.599  1.00  0.00    -0.136 C  
HETATM   18  H   UNL     1      -8.195   9.520  63.783  1.00  0.00     0.000 HD 
HETATM   19  O   UNL     1      -8.176  10.347  64.250  1.00  0.00    -0.164 OA 
BRANCH  17  20
HETATM   20  C   UNL     1      -8.657   8.994  66.225  1.00  0.00    -0.140 A  
HETATM   21  C   UNL     1      -8.229   7.659  66.420  1.00  0.00    -0.124 A  
HETATM   22  C   UNL     1      -6.836   7.230  66.227  1.00  0.00    -0.058 C  
HETATM   23  C   UNL     1      -6.472   5.948  66.356  1.00  0.00    -0.043 C  
HETATM   24  C   UNL     1      -7.474   4.895  66.668  1.00  0.00    -0.087 C  
HETATM   25  N   UNL     1      -8.752   5.313  66.908  1.00  0.00    -0.112 N  
HETATM   26  O   UNL     1      -7.154   3.719  66.716  1.00  0.00    -0.061 OA 
HETATM   27  H   UNL     1      -9.448   4.612  67.160  1.00  0.00     0.000 HD 
HETATM   28  C   UNL     1      -9.161   6.660  66.827  1.00  0.00    -0.149 A  
HETATM   29  C   UNL     1     -10.489   7.001  67.100  1.00  0.00    -0.312 A  
HETATM   30  C   UNL     1     -10.904   8.317  66.976  1.00  0.00    -0.061 A  
HETATM   31  O   UNL     1     -11.429   6.094  67.510  1.00  0.00    -0.524 OA 
HETATM   32  C   UNL     1     -10.001   9.300  66.552  1.00  0.00    -0.344 A  
HETATM   33  H   UNL     1     -12.331   6.325  67.695  1.00  0.00     0.000 HD 
ENDBRANCH  17  20
ENDBRANCH  16  17
ENDBRANCH  14  16
ENDBRANCH  10  14
ENDBRANCH   2   3
TORSDOF 6
ENDMDL
MODEL      314
REMARK 921   NORMALIZED FREE ENERGY PREDICTED BY IDOCK:   -3.45 KCAL/MOL
REMARK 922        TOTAL FREE ENERGY PREDICTED BY IDOCK:   -5.93 KCAL/MOL
REMARK 923 INTER-LIGAND FREE ENERGY PREDICTED BY IDOCK:   -5.27 KCAL/MOL
REMARK 924 INTRA-LIGAND FREE ENERGY PREDICTED BY IDOCK:   -0.66 KCAL/MOL
REMARK 927      BINDING AFFINITY PREDICTED BY RF-SCORE:    0.00 PKD
ROOT
HETATM    1  C   UNL     1      -6.014   3.652  63.715  1.00  0.00    -0.014 C  
HETATM    2  C   UNL     1      -7.064   3.328  64.766  1.00  0.00    -0.061 C  
ENDROOT
BRANCH   2   3
HETATM    3  C   UNL     1      -7.862   4.466  65.373  1.00  0.00    -0.090 A  
HETATM    4  C   UNL     1      -9.281   4.337  65.378  1.00  0.00    -0.152 A  
HETATM    5  C   UNL     1     -10.036   5.128  66.246  1.00  0.00    -0.259 A  
HETATM    6  C   UNL     1      -7.302   5.678  65.829  1.00  0.00    -0.073 A  
HETATM    7  C   UNL     1      -8.162   6.617  66.390  1.00  0.00    -0.117 A  
HETATM    8  C   UNL     1      -9.438   6.234  66.809  1.00  0.00    -0.167 A  
HETATM    9  C   UNL     1     -10.193   7.420  67.318  1.00  0.00    -0.330 C  
HETATM   10  C   UNL     1      -9.755   8.361  66.184  1.00  0.00    -0.153 C  
HETATM   11  C   UNL     1      -8.173   8.151  66.253  1.00  0.00    -0.114 C  
BRANCH   4  12
HETATM   12  C   UNL     1      -9.960   3.528  64.285  1.00  0.00    -0.191 C  
HETATM   13  C   UNL     1     -10.061   4.183  62.907  1.00  0.00    -0.103 C  
ENDBRANCH   4  12
BRANCH  10  14
HETATM   14  N   UNL     1     -10.452   9.664  66.167  1.00  0.00    -0.121 NA 
HETATM   15  H   UNL     1     -11.410   9.585  65.828  1.00  0.00     0.000 HD 
BRANCH  14  16
HETATM   16  C   UNL     1     -10.382  10.288  67.542  1.00  0.00    -0.229 C  
BRANCH  16  17
HETATM   17  C   UNL     1      -9.348  11.432  67.730  1.00  0.00    -0.162 C  
HETATM   18  H   UNL     1      -7.870  11.782  68.953  1.00  0.00     0.000 HD 
HETATM   19  O   UNL     1      -8.502  11.081  68.838  1.00  0.00    -0.157 OA 
BRANCH  17  20
HETATM   20  C   UNL     1      -9.955  12.832  67.954  1.00  0.00    -0.229 A  
HETATM   21  C   UNL     1      -9.165  13.981  68.200  1.00  0.00    -0.196 A  
HETATM   22  C   UNL     1      -7.701  13.986  68.072  1.00  0.00    -0.149 C  
HETATM   23  C   UNL     1      -6.974  15.070  68.374  1.00  0.00    -0.109 C  
HETATM   24  C   UNL     1      -7.620  16.308  68.884  1.00  0.00    -0.212 C  
HETATM   25  N   UNL     1      -8.984  16.313  68.937  1.00  0.00    -0.238 N  
HETATM   26  O   UNL     1      -6.951  17.270  69.225  1.00  0.00    -0.239 OA 
HETATM   27  H   UNL     1      -9.451  17.164  69.249  1.00  0.00     0.000 HD 
HETATM   28  C   UNL     1      -9.784  15.206  68.584  1.00  0.00    -0.216 A  
HETATM   29  C   UNL     1     -11.176  15.304  68.658  1.00  0.00    -0.296 A  
HETATM   30  C   UNL     1     -11.963  14.204  68.356  1.00  0.00    -0.366 A  
HETATM   31  O   UNL     1     -11.833  16.454  69.003  1.00  0.00    -0.197 OA 
HETATM   32  C   UNL     1     -11.363  12.988  68.002  1.00  0.00    -0.327 A  
HETATM   33  H   UNL     1     -12.779  16.520  69.054  1.00  0.00     0.000 HD 
ENDBRANCH  17  20
ENDBRANCH  16  17
ENDBRANCH  14  16
ENDBRANCH  10  14
ENDBRANCH   2   3
TORSDOF 6
ENDMDL
MODEL      315
REMARK 921   NORMALIZED FREE ENERGY PREDICTED BY IDOCK:   -3.44 KCAL/MOL
REMARK 922        TOTAL FREE ENERGY PREDICTED BY IDOCK:   -5.93 KCAL/MOL
REMARK 923 INTER-LIGAND FREE ENERGY PREDICTED BY IDOCK:   -5.23 KCAL/MOL
REMARK 924 INTRA-LIGAND FREE ENERGY PREDICTED BY IDOCK:   -0.70 KCAL/MOL
REMARK 927      BINDING AFFINITY PREDICTED BY RF-SCORE:    0.00 PKD
ROOT
HETATM    1  C   UNL     1     -10.311   4.057  64.276  1.00  0.00    -0.203 C  
HETATM    2  C   UNL     1      -9.614   3.152  65.278  1.00  0.00    -0.057 C  
ENDROOT
BRANCH   2   3
HETATM    3  C   UNL     1      -9.077   3.761  66.560  1.00  0.00    -0.162 A  
HETATM    4  C   UNL     1      -7.709   3.517  66.874  1.00  0.00    -0.080 A  
HETATM    5  C   UNL     1      -7.061   4.343  67.794  1.00  0.00    -0.064 A  
HETATM    6  C   UNL     1      -9.864   4.453  67.504  1.00  0.00    -0.180 A  
HETATM    7  C   UNL     1      -9.221   4.981  68.619  1.00  0.00    -0.158 A  
HETATM    8  C   UNL     1      -7.832   5.133  68.619  1.00  0.00    -0.079 A  
HETATM    9  C   UNL     1      -7.369   5.659  69.940  1.00  0.00    -0.070 C  
HETATM   10  C   UNL     1      -8.273   4.741  70.780  1.00  0.00    -0.086 C  
HETATM   11  C   UNL     1      -9.681   5.041  70.088  1.00  0.00    -0.280 C  
BRANCH   4  12
HETATM   12  C   UNL     1      -7.051   2.233  66.395  1.00  0.00    -0.052 C  
HETATM   13  C   UNL     1      -5.549   2.095  66.645  1.00  0.00    -0.017 C  
ENDBRANCH   4  12
BRANCH  10  14
HETATM   14  N   UNL     1      -8.000   4.777  72.231  1.00  0.00    -0.104 NA 
HETATM   15  H   UNL     1      -7.360   4.039  72.522  1.00  0.00     0.000 HD 
BRANCH  14  16
HETATM   16  C   UNL     1      -7.500   6.152  72.614  1.00  0.00    -0.094 C  
BRANCH  16  17
HETATM   17  C   UNL     1      -8.569   7.159  73.122  1.00  0.00    -0.122 C  
HETATM   18  H   UNL     1     -10.361   7.018  73.878  1.00  0.00     0.000 HD 
HETATM   19  O   UNL     1      -9.708   6.402  73.567  1.00  0.00    -0.155 OA 
BRANCH  17  20
HETATM   20  C   UNL     1      -9.012   8.217  72.091  1.00  0.00    -0.274 A  
HETATM   21  C   UNL     1     -10.364   8.596  71.913  1.00  0.00    -0.405 A  
HETATM   22  C   UNL     1     -11.441   8.164  72.816  1.00  0.00    -0.397 C  
HETATM   23  C   UNL     1     -12.721   8.485  72.586  1.00  0.00    -0.241 C  
HETATM   24  C   UNL     1     -13.110   9.266  71.383  1.00  0.00    -0.322 C  
HETATM   25  N   UNL     1     -12.096   9.717  70.587  1.00  0.00    -0.420 N  
HETATM   26  O   UNL     1     -14.283   9.498  71.137  1.00  0.00    -0.062 OA 
HETATM   27  H   UNL     1     -12.338  10.286  69.776  1.00  0.00     0.000 HD 
HETATM   28  C   UNL     1     -10.734   9.438  70.823  1.00  0.00    -0.305 A  
HETATM   29  C   UNL     1      -9.760   9.950  69.962  1.00  0.00    -0.227 A  
HETATM   30  C   UNL     1      -8.425   9.639  70.165  1.00  0.00    -0.231 A  
HETATM   31  O   UNL     1     -10.047  10.775  68.908  1.00  0.00    -0.189 OA 
HETATM   32  C   UNL     1      -8.056   8.792  71.218  1.00  0.00    -0.195 A  
HETATM   33  H   UNL     1      -9.385  11.123  68.322  1.00  0.00     0.000 HD 
ENDBRANCH  17  20
ENDBRANCH  16  17
ENDBRANCH  14  16
ENDBRANCH  10  14
ENDBRANCH   2   3
TORSDOF 6
ENDMDL
MODEL      316
REMARK 921   NORMALIZED FREE ENERGY PREDICTED BY IDOCK:   -3.39 KCAL/MOL
REMARK 922        TOTAL FREE ENERGY PREDICTED BY IDOCK:   -5.86 KCAL/MOL
REMARK 923 INTER-LIGAND FREE ENERGY PREDICTED BY IDOCK:   -4.34 KCAL/MOL
REMARK 924 INTRA-LIGAND FREE ENERGY PREDICTED BY IDOCK:   -1.51 KCAL/MOL
REMARK 927      BINDING AFFINITY PREDICTED BY RF-SCORE:    0.00 PKD
ROOT
HETATM    1  C   UNL     1      -6.756   6.530  74.403  1.00  0.00    -0.084 C  
HETATM    2  C   UNL     1      -5.932   7.075  73.249  1.00  0.00    -0.057 C  
ENDROOT
BRANCH   2   3
HETATM    3  C   UNL     1      -6.190   6.541  71.853  1.00  0.00    -0.042 A  
HETATM    4  C   UNL     1      -6.888   7.392  70.948  1.00  0.00    -0.048 A  
HETATM    5  C   UNL     1      -6.815   7.140  69.577  1.00  0.00    -0.050 A  
HETATM    6  C   UNL     1      -5.884   5.230  71.431  1.00  0.00    -0.017 A  
HETATM    7  C   UNL     1      -6.155   4.897  70.108  1.00  0.00    -0.021 A  
HETATM    8  C   UNL     1      -6.373   5.902  69.164  1.00  0.00    -0.041 A  
HETATM    9  C   UNL     1      -6.702   5.302  67.835  1.00  0.00    -0.055 C  
HETATM   10  C   UNL     1      -7.657   4.235  68.397  1.00  0.00    -0.064 C  
HETATM   11  C   UNL     1      -6.716   3.591  69.515  1.00  0.00    -0.034 C  
BRANCH   4  12
HETATM   12  C   UNL     1      -7.885   8.402  71.494  1.00  0.00    -0.146 C  
HETATM   13  C   UNL     1      -9.050   7.845  72.312  1.00  0.00    -0.217 C  
ENDBRANCH   4  12
BRANCH  10  14
HETATM   14  N   UNL     1      -8.412   3.489  67.369  1.00  0.00    -0.094 NA 
HETATM   15  H   UNL     1      -8.233   2.486  67.411  1.00  0.00     0.000 HD 
BRANCH  14  16
HETATM   16  C   UNL     1      -9.883   3.812  67.494  1.00  0.00     0.030 C  
BRANCH  16  17
HETATM   17  C   UNL     1     -10.428   4.927  66.560  1.00  0.00    -0.252 C  
HETATM   18  H   UNL     1     -10.270   5.348  64.662  1.00  0.00     0.000 HD 
HETATM   19  O   UNL     1      -9.938   4.665  65.233  1.00  0.00    -0.170 OA 
BRANCH  17  20
HETATM   20  C   UNL     1     -10.066   6.366  66.979  1.00  0.00    -0.227 A  
HETATM   21  C   UNL     1     -10.551   6.965  68.167  1.00  0.00    -0.262 A  
HETATM   22  C   UNL     1     -11.281   6.215  69.199  1.00  0.00    -0.409 C  
HETATM   23  C   UNL     1     -11.785   6.820  70.282  1.00  0.00    -0.397 C  
HETATM   24  C   UNL     1     -11.656   8.289  70.468  1.00  0.00    -0.131 C  
HETATM   25  N   UNL     1     -10.921   8.965  69.536  1.00  0.00    -0.405 N  
HETATM   26  O   UNL     1     -12.175   8.850  71.419  1.00  0.00    -0.299 OA 
HETATM   27  H   UNL     1     -10.788   9.968  69.664  1.00  0.00     0.000 HD 
HETATM   28  C   UNL     1     -10.337   8.354  68.408  1.00  0.00    -0.200 A  
HETATM   29  C   UNL     1      -9.590   9.121  67.510  1.00  0.00    -0.150 A  
HETATM   30  C   UNL     1      -9.054   8.531  66.377  1.00  0.00    -0.229 A  
HETATM   31  O   UNL     1      -9.334  10.453  67.691  1.00  0.00    -0.147 OA 
HETATM   32  C   UNL     1      -9.282   7.174  66.118  1.00  0.00    -0.126 A  
HETATM   33  H   UNL     1      -8.827  10.975  67.080  1.00  0.00     0.000 HD 
ENDBRANCH  17  20
ENDBRANCH  16  17
ENDBRANCH  14  16
ENDBRANCH  10  14
ENDBRANCH   2   3
TORSDOF 6
ENDMDL
MODEL      317
REMARK 921   NORMALIZED FREE ENERGY PREDICTED BY IDOCK:   -3.34 KCAL/MOL
REMARK 922        TOTAL FREE ENERGY PREDICTED BY IDOCK:   -5.79 KCAL/MOL
REMARK 923 INTER-LIGAND FREE ENERGY PREDICTED BY IDOCK:   -5.15 KCAL/MOL
REMARK 924 INTRA-LIGAND FREE ENERGY PREDICTED BY IDOCK:   -0.64 KCAL/MOL
REMARK 927      BINDING AFFINITY PREDICTED BY RF-SCORE:    0.00 PKD
ROOT
HETATM    1  C   UNL     1      -5.947   4.813  67.903  1.00  0.00    -0.023 C  
HETATM    2  C   UNL     1      -5.876   6.038  68.801  1.00  0.00    -0.012 C  
ENDROOT
BRANCH   2   3
HETATM    3  C   UNL     1      -6.209   7.395  68.210  1.00  0.00    -0.036 A  
HETATM    4  C   UNL     1      -6.926   8.308  69.037  1.00  0.00    -0.061 A  
HETATM    5  C   UNL     1      -6.919   9.667  68.720  1.00  0.00    -0.066 A  
HETATM    6  C   UNL     1      -5.952   7.767  66.874  1.00  0.00    -0.047 A  
HETATM    7  C   UNL     1      -6.288   9.060  66.487  1.00  0.00    -0.066 A  
HETATM    8  C   UNL     1      -6.524  10.040  67.454  1.00  0.00    -0.068 A  
HETATM    9  C   UNL     1      -6.925  11.325  66.802  1.00  0.00    -0.141 C  
HETATM   10  C   UNL     1      -7.879  10.673  65.787  1.00  0.00    -0.141 C  
HETATM   11  C   UNL     1      -6.906   9.568  65.170  1.00  0.00    -0.092 C  
BRANCH   4  12
HETATM   12  C   UNL     1      -7.874   7.768  70.096  1.00  0.00    -0.095 C  
HETATM   13  C   UNL     1      -8.520   8.793  71.027  1.00  0.00    -0.219 C  
ENDBRANCH   4  12
BRANCH  10  14
HETATM   14  N   UNL     1      -8.696  11.631  65.013  1.00  0.00    -0.258 NA 
HETATM   15  H   UNL     1      -8.834  11.331  64.049  1.00  0.00     0.000 HD 
BRANCH  14  16
HETATM   16  C   UNL     1     -10.005  11.868  65.731  1.00  0.00    -0.236 C  
BRANCH  16  17
HETATM   17  C   UNL     1     -10.539  13.328  65.730  1.00  0.00    -0.284 C  
HETATM   18  H   UNL     1      -9.996  15.004  64.895  1.00  0.00     0.000 HD 
HETATM   19  O   UNL     1      -9.669  14.112  64.895  1.00  0.00    -0.085 OA 
BRANCH  17  20
HETATM   20  C   UNL     1     -10.661  13.980  67.122  1.00  0.00    -0.283 A  
HETATM   21  C   UNL     1      -9.568  14.589  67.783  1.00  0.00    -0.215 A  
HETATM   22  C   UNL     1      -8.272  14.827  67.132  1.00  0.00    -0.239 C  
HETATM   23  C   UNL     1      -7.234  15.346  67.802  1.00  0.00    -0.182 C  
HETATM   24  C   UNL     1      -7.342  15.673  69.247  1.00  0.00    -0.207 C  
HETATM   25  N   UNL     1      -8.568  15.508  69.826  1.00  0.00    -0.237 N  
HETATM   26  O   UNL     1      -6.377  16.079  69.873  1.00  0.00    -0.184 OA 
HETATM   27  H   UNL     1      -8.675  15.761  70.808  1.00  0.00     0.000 HD 
HETATM   28  C   UNL     1      -9.695  15.008  69.140  1.00  0.00    -0.212 A  
HETATM   29  C   UNL     1     -10.916  14.883  69.808  1.00  0.00    -0.258 A  
HETATM   30  C   UNL     1     -12.012  14.349  69.150  1.00  0.00    -0.357 A  
HETATM   31  O   UNL     1     -11.109  15.280  71.103  1.00  0.00    -0.434 OA 
HETATM   32  C   UNL     1     -11.889  13.911  67.825  1.00  0.00    -0.415 A  
HETATM   33  H   UNL     1     -11.939  15.195  71.558  1.00  0.00     0.000 HD 
ENDBRANCH  17  20
ENDBRANCH  16  17
ENDBRANCH  14  16
ENDBRANCH  10  14
ENDBRANCH   2   3
TORSDOF 6
ENDMDL
MODEL      318
REMARK 921   NORMALIZED FREE ENERGY PREDICTED BY IDOCK:   -3.29 KCAL/MOL
REMARK 922        TOTAL FREE ENERGY PREDICTED BY IDOCK:   -5.72 KCAL/MOL
REMARK 923 INTER-LIGAND FREE ENERGY PREDICTED BY IDOCK:   -3.88 KCAL/MOL
REMARK 924 INTRA-LIGAND FREE ENERGY PREDICTED BY IDOCK:   -1.84 KCAL/MOL
REMARK 927      BINDING AFFINITY PREDICTED BY RF-SCORE:    0.00 PKD
ROOT
HETATM    1  C   UNL     1      -7.951   2.694  69.089  1.00  0.00    -0.059 C  
HETATM    2  C   UNL     1      -6.959   3.810  68.809  1.00  0.00    -0.047 C  
ENDROOT
BRANCH   2   3
HETATM    3  C   UNL     1      -7.375   5.242  69.088  1.00  0.00    -0.062 A  
HETATM    4  C   UNL     1      -7.644   6.074  67.963  1.00  0.00    -0.093 A  
HETATM    5  C   UNL     1      -8.390   7.241  68.138  1.00  0.00    -0.124 A  
HETATM    6  C   UNL     1      -7.407   5.827  70.371  1.00  0.00    -0.080 A  
HETATM    7  C   UNL     1      -7.839   7.145  70.470  1.00  0.00    -0.100 A  
HETATM    8  C   UNL     1      -8.544   7.731  69.417  1.00  0.00    -0.135 A  
HETATM    9  C   UNL     1      -8.847   9.162  69.728  1.00  0.00    -0.165 C  
HETATM   10  C   UNL     1      -7.453   9.479  70.295  1.00  0.00    -0.143 C  
HETATM   11  C   UNL     1      -7.316   8.292  71.355  1.00  0.00    -0.085 C  
BRANCH   4  12
HETATM   12  C   UNL     1      -6.920   5.811  66.652  1.00  0.00    -0.064 C  
HETATM   13  C   UNL     1      -5.652   6.624  66.392  1.00  0.00    -0.018 C  
ENDBRANCH   4  12
BRANCH  10  14
HETATM   14  N   UNL     1      -7.215  10.911  70.568  1.00  0.00    -0.299 NA 
HETATM   15  H   UNL     1      -7.138  11.107  71.566  1.00  0.00     0.000 HD 
BRANCH  14  16
HETATM   16  C   UNL     1      -5.998  11.373  69.800  1.00  0.00    -0.112 C  
BRANCH  16  17
HETATM   17  C   UNL     1      -6.246  12.414  68.674  1.00  0.00    -0.069 C  
HETATM   18  H   UNL     1      -6.246  14.361  68.558  1.00  0.00     0.000 HD 
HETATM   19  O   UNL     1      -6.094  13.725  69.247  1.00  0.00    -0.089 OA 
BRANCH  17  20
HETATM   20  C   UNL     1      -7.615  12.304  67.971  1.00  0.00    -0.126 A  
HETATM   21  C   UNL     1      -7.819  11.525  66.807  1.00  0.00    -0.146 A  
HETATM   22  C   UNL     1      -6.806  10.603  66.274  1.00  0.00    -0.133 C  
HETATM   23  C   UNL     1      -7.002   9.928  65.134  1.00  0.00    -0.128 C  
HETATM   24  C   UNL     1      -8.245  10.110  64.340  1.00  0.00    -0.165 C  
HETATM   25  N   UNL     1      -9.205  10.919  64.877  1.00  0.00    -0.204 N  
HETATM   26  O   UNL     1      -8.393   9.548  63.267  1.00  0.00    -0.156 OA 
HETATM   27  H   UNL     1     -10.082  11.029  64.367  1.00  0.00     0.000 HD 
HETATM   28  C   UNL     1      -9.053  11.610  66.097  1.00  0.00    -0.203 A  
HETATM   29  C   UNL     1     -10.094  12.408  66.578  1.00  0.00    -0.232 A  
HETATM   30  C   UNL     1      -9.928  13.125  67.753  1.00  0.00    -0.227 A  
HETATM   31  O   UNL     1     -11.307  12.520  65.954  1.00  0.00    -0.308 OA 
HETATM   32  C   UNL     1      -8.711  13.068  68.443  1.00  0.00    -0.115 A  
HETATM   33  H   UNL     1     -12.014  13.063  66.281  1.00  0.00     0.000 HD 
ENDBRANCH  17  20
ENDBRANCH  16  17
ENDBRANCH  14  16
ENDBRANCH  10  14
ENDBRANCH   2   3
TORSDOF 6
ENDMDL
MODEL      319
REMARK 921   NORMALIZED FREE ENERGY PREDICTED BY IDOCK:   -3.29 KCAL/MOL
REMARK 922        TOTAL FREE ENERGY PREDICTED BY IDOCK:   -5.72 KCAL/MOL
REMARK 923 INTER-LIGAND FREE ENERGY PREDICTED BY IDOCK:   -5.68 KCAL/MOL
REMARK 924 INTRA-LIGAND FREE ENERGY PREDICTED BY IDOCK:   -0.04 KCAL/MOL
REMARK 927      BINDING AFFINITY PREDICTED BY RF-SCORE:    0.00 PKD
ROOT
HETATM    1  C   UNL     1     -11.774  13.756  64.454  1.00  0.00    -0.436 C  
HETATM    2  C   UNL     1     -11.513  12.612  63.489  1.00  0.00    -0.557 C  
ENDROOT
BRANCH   2   3
HETATM    3  C   UNL     1     -10.496  11.554  63.873  1.00  0.00    -0.439 A  
HETATM    4  C   UNL     1     -10.583  11.012  65.188  1.00  0.00    -0.295 A  
HETATM    5  C   UNL     1      -9.960   9.796  65.470  1.00  0.00    -0.329 A  
HETATM    6  C   UNL     1      -9.416  11.154  63.059  1.00  0.00    -0.386 A  
HETATM    7  C   UNL     1      -8.583  10.148  63.538  1.00  0.00    -0.201 A  
HETATM    8  C   UNL     1      -9.005   9.333  64.591  1.00  0.00    -0.202 A  
HETATM    9  C   UNL     1      -7.922   8.372  64.968  1.00  0.00    -0.139 C  
HETATM   10  C   UNL     1      -6.787   9.408  64.899  1.00  0.00    -0.093 C  
HETATM   11  C   UNL     1      -7.052  10.004  63.442  1.00  0.00    -0.129 C  
BRANCH   4  12
HETATM   12  C   UNL     1     -11.139  11.872  66.312  1.00  0.00    -0.364 C  
HETATM   13  C   UNL     1     -10.381  11.843  67.639  1.00  0.00    -0.217 C  
ENDBRANCH   4  12
BRANCH  10  14
HETATM   14  N   UNL     1      -5.488   8.925  65.411  1.00  0.00    -0.038 NA 
HETATM   15  H   UNL     1      -4.701   9.428  65.002  1.00  0.00     0.000 HD 
BRANCH  14  16
HETATM   16  C   UNL     1      -5.487   8.993  66.921  1.00  0.00    -0.040 C  
BRANCH  16  17
HETATM   17  C   UNL     1      -6.878   9.064  67.610  1.00  0.00    -0.070 C  
HETATM   18  H   UNL     1      -7.673  10.144  69.026  1.00  0.00     0.000 HD 
HETATM   19  O   UNL     1      -6.822  10.101  68.605  1.00  0.00    -0.056 OA 
BRANCH  17  20
HETATM   20  C   UNL     1      -7.358   7.746  68.251  1.00  0.00    -0.102 A  
HETATM   21  C   UNL     1      -8.612   7.619  68.896  1.00  0.00    -0.129 A  
HETATM   22  C   UNL     1      -9.645   8.663  68.848  1.00  0.00    -0.159 C  
HETATM   23  C   UNL     1     -10.797   8.543  69.522  1.00  0.00    -0.134 C  
HETATM   24  C   UNL     1     -11.064   7.357  70.377  1.00  0.00    -0.265 C  
HETATM   25  N   UNL     1     -10.125   6.365  70.363  1.00  0.00    -0.183 N  
HETATM   26  O   UNL     1     -12.081   7.281  71.045  1.00  0.00    -0.321 OA 
HETATM   27  H   UNL     1     -10.304   5.525  70.913  1.00  0.00     0.000 HD 
HETATM   28  C   UNL     1      -8.923   6.436  69.630  1.00  0.00    -0.137 A  
HETATM   29  C   UNL     1      -8.023   5.368  69.664  1.00  0.00    -0.095 A  
HETATM   30  C   UNL     1      -6.820   5.455  68.982  1.00  0.00    -0.055 A  
HETATM   31  O   UNL     1      -8.267   4.200  70.335  1.00  0.00    -0.058 OA 
HETATM   32  C   UNL     1      -6.495   6.623  68.280  1.00  0.00    -0.049 A  
HETATM   33  H   UNL     1      -7.655   3.474  70.359  1.00  0.00     0.000 HD 
ENDBRANCH  17  20
ENDBRANCH  16  17
ENDBRANCH  14  16
ENDBRANCH  10  14
ENDBRANCH   2   3
TORSDOF 6
ENDMDL
MODEL      320
REMARK 921   NORMALIZED FREE ENERGY PREDICTED BY IDOCK:   -3.26 KCAL/MOL
REMARK 922        TOTAL FREE ENERGY PREDICTED BY IDOCK:   -5.69 KCAL/MOL
REMARK 923 INTER-LIGAND FREE ENERGY PREDICTED BY IDOCK:   -4.18 KCAL/MOL
REMARK 924 INTRA-LIGAND FREE ENERGY PREDICTED BY IDOCK:   -1.50 KCAL/MOL
REMARK 927      BINDING AFFINITY PREDICTED BY RF-SCORE:    0.00 PKD
ROOT
HETATM    1  C   UNL     1      -7.179   2.006  68.792  1.00  0.00    -0.043 C  
HETATM    2  C   UNL     1      -7.330   3.334  68.068  1.00  0.00    -0.054 C  
ENDROOT
BRANCH   2   3
HETATM    3  C   UNL     1      -7.205   4.618  68.867  1.00  0.00    -0.053 A  
HETATM    4  C   UNL     1      -8.020   4.744  70.029  1.00  0.00    -0.069 A  
HETATM    5  C   UNL     1      -7.684   5.688  71.001  1.00  0.00    -0.104 A  
HETATM    6  C   UNL     1      -6.423   5.725  68.479  1.00  0.00    -0.042 A  
HETATM    7  C   UNL     1      -6.386   6.822  69.334  1.00  0.00    -0.042 A  
HETATM    8  C   UNL     1      -6.801   6.689  70.661  1.00  0.00    -0.062 A  
HETATM    9  C   UNL     1      -6.728   8.008  71.361  1.00  0.00    -0.048 C  
HETATM   10  C   UNL     1      -7.336   8.815  70.201  1.00  0.00    -0.055 C  
HETATM   11  C   UNL     1      -6.392   8.328  69.009  1.00  0.00    -0.044 C  
BRANCH   4  12
HETATM   12  C   UNL     1      -9.362   4.031  70.079  1.00  0.00    -0.242 C  
HETATM   13  C   UNL     1     -10.080   4.011  71.429  1.00  0.00    -0.147 C  
ENDBRANCH   4  12
BRANCH  10  14
HETATM   14  N   UNL     1      -7.652  10.220  70.533  1.00  0.00    -0.431 NA 
HETATM   15  H   UNL     1      -7.013  10.605  71.228  1.00  0.00     0.000 HD 
BRANCH  14  16
HETATM   16  C   UNL     1      -7.680  11.041  69.264  1.00  0.00    -0.068 C  
BRANCH  16  17
HETATM   17  C   UNL     1      -9.063  11.199  68.574  1.00  0.00    -0.175 C  
HETATM   18  H   UNL     1     -10.906  10.767  69.043  1.00  0.00     0.000 HD 
HETATM   19  O   UNL     1     -10.060  10.671  69.465  1.00  0.00    -0.209 OA 
BRANCH  17  20
HETATM   20  C   UNL     1      -9.184  10.527  67.191  1.00  0.00    -0.158 A  
HETATM   21  C   UNL     1      -9.489   9.154  67.029  1.00  0.00    -0.201 A  
HETATM   22  C   UNL     1      -9.905   8.291  68.143  1.00  0.00    -0.198 C  
HETATM   23  C   UNL     1     -10.124   6.980  67.972  1.00  0.00    -0.199 C  
HETATM   24  C   UNL     1      -9.922   6.337  66.648  1.00  0.00    -0.153 C  
HETATM   25  N   UNL     1      -9.598   7.159  65.607  1.00  0.00    -0.158 N  
HETATM   26  O   UNL     1     -10.054   5.132  66.509  1.00  0.00    -0.188 OA 
HETATM   27  H   UNL     1      -9.490   6.745  64.681  1.00  0.00     0.000 HD 
HETATM   28  C   UNL     1      -9.404   8.550  65.740  1.00  0.00    -0.118 A  
HETATM   29  C   UNL     1      -9.086   9.318  64.618  1.00  0.00    -0.121 A  
HETATM   30  C   UNL     1      -8.850  10.677  64.754  1.00  0.00    -0.196 A  
HETATM   31  O   UNL     1      -9.005   8.803  63.352  1.00  0.00    -0.418 OA 
HETATM   32  C   UNL     1      -8.905  11.274  66.020  1.00  0.00    -0.189 A  
HETATM   33  H   UNL     1      -8.788   9.325  62.589  1.00  0.00     0.000 HD 
ENDBRANCH  17  20
ENDBRANCH  16  17
ENDBRANCH  14  16
ENDBRANCH  10  14
ENDBRANCH   2   3
TORSDOF 6
ENDMDL
MODEL      321
REMARK 921   NORMALIZED FREE ENERGY PREDICTED BY IDOCK:   -3.25 KCAL/MOL
REMARK 922        TOTAL FREE ENERGY PREDICTED BY IDOCK:   -5.66 KCAL/MOL
REMARK 923 INTER-LIGAND FREE ENERGY PREDICTED BY IDOCK:   -4.76 KCAL/MOL
REMARK 924 INTRA-LIGAND FREE ENERGY PREDICTED BY IDOCK:   -0.90 KCAL/MOL
REMARK 927      BINDING AFFINITY PREDICTED BY RF-SCORE:    0.00 PKD
ROOT
HETATM    1  C   UNL     1     -11.158   4.595  65.508  1.00  0.00     0.157 C  
HETATM    2  C   UNL     1     -11.001   5.859  66.339  1.00  0.00    -0.023 C  
ENDROOT
BRANCH   2   3
HETATM    3  C   UNL     1      -9.608   6.285  66.761  1.00  0.00    -0.183 A  
HETATM    4  C   UNL     1      -9.064   5.672  67.927  1.00  0.00    -0.107 A  
HETATM    5  C   UNL     1      -7.686   5.715  68.142  1.00  0.00    -0.089 A  
HETATM    6  C   UNL     1      -8.869   7.316  66.145  1.00  0.00    -0.181 A  
HETATM    7  C   UNL     1      -7.590   7.572  66.628  1.00  0.00    -0.097 A  
HETATM    8  C   UNL     1      -6.942   6.627  67.427  1.00  0.00    -0.078 A  
HETATM    9  C   UNL     1      -5.613   7.150  67.872  1.00  0.00    -0.021 C  
HETATM   10  C   UNL     1      -6.124   8.560  68.209  1.00  0.00    -0.050 C  
HETATM   11  C   UNL     1      -6.865   8.915  66.840  1.00  0.00    -0.077 C  
BRANCH   4  12
HETATM   12  C   UNL     1     -10.002   5.198  69.026  1.00  0.00    -0.265 C  
HETATM   13  C   UNL     1      -9.398   5.033  70.421  1.00  0.00    -0.216 C  
ENDBRANCH   4  12
BRANCH  10  14
HETATM   14  N   UNL     1      -5.141   9.416  68.905  1.00  0.00    -0.037 NA 
HETATM   15  H   UNL     1      -4.543   9.925  68.255  1.00  0.00     0.000 HD 
BRANCH  14  16
HETATM   16  C   UNL     1      -5.866  10.340  69.858  1.00  0.00    -0.051 C  
BRANCH  16  17
HETATM   17  C   UNL     1      -7.003   9.705  70.704  1.00  0.00    -0.110 C  
HETATM   18  H   UNL     1      -7.414   7.913  71.356  1.00  0.00     0.000 HD 
HETATM   19  O   UNL     1      -6.718   8.301  70.839  1.00  0.00    -0.037 OA 
BRANCH  17  20
HETATM   20  C   UNL     1      -8.425   9.901  70.141  1.00  0.00    -0.144 A  
HETATM   21  C   UNL     1      -9.566   9.281  70.705  1.00  0.00    -0.334 A  
HETATM   22  C   UNL     1      -9.533   8.556  71.982  1.00  0.00    -0.364 C  
HETATM   23  C   UNL     1     -10.613   7.924  72.460  1.00  0.00    -0.378 C  
HETATM   24  C   UNL     1     -11.888   7.902  71.696  1.00  0.00    -0.288 C  
HETATM   25  N   UNL     1     -11.926   8.632  70.542  1.00  0.00    -0.483 N  
HETATM   26  O   UNL     1     -12.849   7.268  72.097  1.00  0.00    -0.202 OA 
HETATM   27  H   UNL     1     -12.802   8.662  70.021  1.00  0.00     0.000 HD 
HETATM   28  C   UNL     1     -10.822   9.348  70.033  1.00  0.00    -0.241 A  
HETATM   29  C   UNL     1     -10.955  10.079  68.849  1.00  0.00    -0.207 A  
HETATM   30  C   UNL     1      -9.859  10.744  68.322  1.00  0.00    -0.177 A  
HETATM   31  O   UNL     1     -12.134  10.196  68.165  1.00  0.00    -0.329 OA 
HETATM   32  C   UNL     1      -8.615  10.663  68.961  1.00  0.00    -0.150 A  
HETATM   33  H   UNL     1     -12.224  10.693  67.360  1.00  0.00     0.000 HD 
ENDBRANCH  17  20
ENDBRANCH  16  17
ENDBRANCH  14  16
ENDBRANCH  10  14
ENDBRANCH   2   3
TORSDOF 6
ENDMDL
MODEL      322
REMARK 921   NORMALIZED FREE ENERGY PREDICTED BY IDOCK:   -3.23 KCAL/MOL
REMARK 922        TOTAL FREE ENERGY PREDICTED BY IDOCK:   -5.64 KCAL/MOL
REMARK 923 INTER-LIGAND FREE ENERGY PREDICTED BY IDOCK:   -6.01 KCAL/MOL
REMARK 924 INTRA-LIGAND FREE ENERGY PREDICTED BY IDOCK:    0.37 KCAL/MOL
REMARK 927      BINDING AFFINITY PREDICTED BY RF-SCORE:    0.00 PKD
ROOT
HETATM    1  C   UNL     1      -6.610   1.863  70.967  1.00  0.00    -0.024 C  
HETATM    2  C   UNL     1      -5.757   2.920  70.284  1.00  0.00    -0.017 C  
ENDROOT
BRANCH   2   3
HETATM    3  C   UNL     1      -6.411   4.221  69.858  1.00  0.00    -0.032 A  
HETATM    4  C   UNL     1      -7.088   4.970  70.864  1.00  0.00    -0.055 A  
HETATM    5  C   UNL     1      -7.361   6.321  70.643  1.00  0.00    -0.082 A  
HETATM    6  C   UNL     1      -6.486   4.676  68.526  1.00  0.00    -0.037 A  
HETATM    7  C   UNL     1      -7.094   5.906  68.296  1.00  0.00    -0.078 A  
HETATM    8  C   UNL     1      -7.288   6.798  69.353  1.00  0.00    -0.092 A  
HETATM    9  C   UNL     1      -8.010   8.018  68.875  1.00  0.00    -0.118 C  
HETATM   10  C   UNL     1      -9.029   7.249  68.017  1.00  0.00    -0.131 C  
HETATM   11  C   UNL     1      -8.032   6.346  67.156  1.00  0.00    -0.112 C  
BRANCH   4  12
HETATM   12  C   UNL     1      -7.710   4.241  72.045  1.00  0.00    -0.080 C  
HETATM   13  C   UNL     1      -8.945   4.883  72.676  1.00  0.00    -0.135 C  
ENDBRANCH   4  12
BRANCH  10  14
HETATM   14  N   UNL     1     -10.124   8.081  67.477  1.00  0.00    -0.199 NA 
HETATM   15  H   UNL     1     -10.971   8.019  68.042  1.00  0.00     0.000 HD 
BRANCH  14  16
HETATM   16  C   UNL     1      -9.643   9.505  67.323  1.00  0.00    -0.150 C  
BRANCH  16  17
HETATM   17  C   UNL     1      -9.088   9.899  65.926  1.00  0.00    -0.162 C  
HETATM   18  H   UNL     1      -7.378  10.541  65.242  1.00  0.00     0.000 HD 
HETATM   19  O   UNL     1      -7.717  10.300  66.096  1.00  0.00    -0.112 OA 
BRANCH  17  20
HETATM   20  C   UNL     1      -9.874  11.009  65.199  1.00  0.00    -0.319 A  
HETATM   21  C   UNL     1     -10.188  12.250  65.804  1.00  0.00    -0.281 A  
HETATM   22  C   UNL     1      -9.634  12.671  67.098  1.00  0.00    -0.207 C  
HETATM   23  C   UNL     1      -9.999  13.822  67.677  1.00  0.00    -0.238 C  
HETATM   24  C   UNL     1     -11.011  14.709  67.046  1.00  0.00    -0.317 C  
HETATM   25  N   UNL     1     -11.470  14.340  65.814  1.00  0.00    -0.329 N  
HETATM   26  O   UNL     1     -11.395  15.722  67.607  1.00  0.00    -0.297 OA 
HETATM   27  H   UNL     1     -12.137  14.953  65.346  1.00  0.00     0.000 HD 
HETATM   28  C   UNL     1     -11.074  13.159  65.154  1.00  0.00    -0.287 A  
HETATM   29  C   UNL     1     -11.586  12.865  63.888  1.00  0.00    -0.453 A  
HETATM   30  C   UNL     1     -11.234  11.682  63.257  1.00  0.00    -0.305 A  
HETATM   31  O   UNL     1     -12.427  13.701  63.204  1.00  0.00    -1.033 OA 
HETATM   32  C   UNL     1     -10.385  10.771  63.899  1.00  0.00    -0.329 A  
HETATM   33  H   UNL     1     -12.776  13.501  62.343  1.00  0.00     0.000 HD 
ENDBRANCH  17  20
ENDBRANCH  16  17
ENDBRANCH  14  16
ENDBRANCH  10  14
ENDBRANCH   2   3
TORSDOF 6
ENDMDL
MODEL      323
REMARK 921   NORMALIZED FREE ENERGY PREDICTED BY IDOCK:   -3.20 KCAL/MOL
REMARK 922        TOTAL FREE ENERGY PREDICTED BY IDOCK:   -5.60 KCAL/MOL
REMARK 923 INTER-LIGAND FREE ENERGY PREDICTED BY IDOCK:   -4.95 KCAL/MOL
REMARK 924 INTRA-LIGAND FREE ENERGY PREDICTED BY IDOCK:   -0.65 KCAL/MOL
REMARK 927      BINDING AFFINITY PREDICTED BY RF-SCORE:    0.00 PKD
ROOT
HETATM    1  C   UNL     1     -13.123  13.982  65.565  1.00  0.00    -0.217 C  
HETATM    2  C   UNL     1     -11.616  13.788  65.588  1.00  0.00    -0.339 C  
ENDROOT
BRANCH   2   3
HETATM    3  C   UNL     1     -11.062  12.423  65.951  1.00  0.00    -0.349 A  
HETATM    4  C   UNL     1     -10.473  11.658  64.903  1.00  0.00    -0.339 A  
HETATM    5  C   UNL     1      -9.616  10.604  65.224  1.00  0.00    -0.293 A  
HETATM    6  C   UNL     1     -11.189  11.824  67.221  1.00  0.00    -0.364 A  
HETATM    7  C   UNL     1     -10.601  10.577  67.411  1.00  0.00    -0.313 A  
HETATM    8  C   UNL     1      -9.637  10.116  66.512  1.00  0.00    -0.236 A  
HETATM    9  C   UNL     1      -9.199   8.736  66.887  1.00  0.00    -0.195 C  
HETATM   10  C   UNL     1     -10.616   8.217  67.184  1.00  0.00    -0.285 C  
HETATM   11  C   UNL     1     -11.115   9.352  68.190  1.00  0.00    -0.000 C  
BRANCH   4  12
HETATM   12  C   UNL     1     -10.967  11.842  63.477  1.00  0.00    -0.505 C  
HETATM   13  C   UNL     1     -12.441  11.533  63.216  1.00  0.00    -0.060 C  
ENDBRANCH   4  12
BRANCH  10  14
HETATM   14  N   UNL     1     -10.696   6.760  67.418  1.00  0.00    -0.294 NA 
HETATM   15  H   UNL     1      -9.775   6.326  67.473  1.00  0.00     0.000 HD 
BRANCH  14  16
HETATM   16  C   UNL     1     -11.527   6.496  68.653  1.00  0.00     0.055 C  
BRANCH  16  17
HETATM   17  C   UNL     1     -11.028   5.362  69.591  1.00  0.00     0.098 C  
HETATM   18  H   UNL     1     -10.947   5.089  71.520  1.00  0.00     0.000 HD 
HETATM   19  O   UNL     1     -11.252   5.783  70.947  1.00  0.00    -0.245 OA 
BRANCH  17  20
HETATM   20  C   UNL     1      -9.552   4.959  69.403  1.00  0.00    -0.239 A  
HETATM   21  C   UNL     1      -8.474   5.814  69.738  1.00  0.00    -0.123 A  
HETATM   22  C   UNL     1      -8.653   7.076  70.470  1.00  0.00    -0.141 C  
HETATM   23  C   UNL     1      -7.623   7.896  70.716  1.00  0.00    -0.078 C  
HETATM   24  C   UNL     1      -6.256   7.578  70.228  1.00  0.00    -0.034 C  
HETATM   25  N   UNL     1      -6.090   6.374  69.606  1.00  0.00    -0.028 N  
HETATM   26  O   UNL     1      -5.334   8.359  70.392  1.00  0.00    -0.022 OA 
HETATM   27  H   UNL     1      -5.153   6.118  69.295  1.00  0.00     0.000 HD 
HETATM   28  C   UNL     1      -7.142   5.464  69.370  1.00  0.00    -0.063 A  
HETATM   29  C   UNL     1      -6.879   4.247  68.736  1.00  0.00    -0.047 A  
HETATM   30  C   UNL     1      -7.917   3.372  68.461  1.00  0.00    -0.066 A  
HETATM   31  O   UNL     1      -5.622   3.845  68.372  1.00  0.00    -0.016 OA 
HETATM   32  C   UNL     1      -9.233   3.719  68.796  1.00  0.00    -0.218 A  
HETATM   33  H   UNL     1      -5.443   3.017  67.940  1.00  0.00     0.000 HD 
ENDBRANCH  17  20
ENDBRANCH  16  17
ENDBRANCH  14  16
ENDBRANCH  10  14
ENDBRANCH   2   3
TORSDOF 6
ENDMDL
MODEL      324
REMARK 921   NORMALIZED FREE ENERGY PREDICTED BY IDOCK:   -3.17 KCAL/MOL
REMARK 922        TOTAL FREE ENERGY PREDICTED BY IDOCK:   -5.56 KCAL/MOL
REMARK 923 INTER-LIGAND FREE ENERGY PREDICTED BY IDOCK:   -5.46 KCAL/MOL
REMARK 924 INTRA-LIGAND FREE ENERGY PREDICTED BY IDOCK:   -0.10 KCAL/MOL
REMARK 927      BINDING AFFINITY PREDICTED BY RF-SCORE:    0.00 PKD
ROOT
HETATM    1  C   UNL     1     -10.350   8.025  72.714  1.00  0.00    -0.408 C  
HETATM    2  C   UNL     1     -10.015   6.612  72.264  1.00  0.00    -0.179 C  
ENDROOT
BRANCH   2   3
HETATM    3  C   UNL     1      -9.921   6.325  70.778  1.00  0.00    -0.220 A  
HETATM    4  C   UNL     1      -9.655   4.979  70.390  1.00  0.00    -0.260 A  
HETATM    5  C   UNL     1      -9.940   4.575  69.085  1.00  0.00    -0.169 A  
HETATM    6  C   UNL     1      -9.970   7.310  69.770  1.00  0.00    -0.183 A  
HETATM    7  C   UNL     1      -9.900   6.886  68.447  1.00  0.00    -0.143 A  
HETATM    8  C   UNL     1     -10.135   5.547  68.128  1.00  0.00    -0.221 A  
HETATM    9  C   UNL     1      -9.944   5.323  66.662  1.00  0.00    -0.227 C  
HETATM   10  C   UNL     1      -8.660   6.163  66.559  1.00  0.00    -0.126 C  
HETATM   11  C   UNL     1      -9.164   7.513  67.248  1.00  0.00    -0.152 C  
BRANCH   4  12
HETATM   12  C   UNL     1      -8.852   4.081  71.317  1.00  0.00    -0.143 C  
HETATM   13  C   UNL     1      -8.730   2.611  70.915  1.00  0.00    -0.121 C  
ENDBRANCH   4  12
BRANCH  10  14
HETATM   14  N   UNL     1      -7.968   6.065  65.257  1.00  0.00    -0.110 NA 
HETATM   15  H   UNL     1      -8.586   5.736  64.516  1.00  0.00     0.000 HD 
BRANCH  14  16
HETATM   16  C   UNL     1      -7.335   7.396  64.924  1.00  0.00    -0.080 C  
BRANCH  16  17
HETATM   17  C   UNL     1      -8.301   8.604  64.778  1.00  0.00    -0.157 C  
HETATM   18  H   UNL     1      -8.975   9.672  63.292  1.00  0.00     0.000 HD 
HETATM   19  O   UNL     1      -8.383   8.934  63.381  1.00  0.00    -0.184 OA 
BRANCH  17  20
HETATM   20  C   UNL     1      -7.913   9.855  65.592  1.00  0.00    -0.130 A  
HETATM   21  C   UNL     1      -8.805  10.931  65.819  1.00  0.00    -0.202 A  
HETATM   22  C   UNL     1     -10.232  10.873  65.471  1.00  0.00    -0.332 C  
HETATM   23  C   UNL     1     -11.038  11.929  65.637  1.00  0.00    -0.362 C  
HETATM   24  C   UNL     1     -10.513  13.220  66.152  1.00  0.00    -0.293 C  
HETATM   25  N   UNL     1      -9.201  13.243  66.532  1.00  0.00    -0.401 N  
HETATM   26  O   UNL     1     -11.232  14.202  66.237  1.00  0.00    -0.317 OA 
HETATM   27  H   UNL     1      -8.829  14.108  66.923  1.00  0.00     0.000 HD 
HETATM   28  C   UNL     1      -8.334  12.137  66.415  1.00  0.00     0.106 A  
HETATM   29  C   UNL     1      -7.008  12.246  66.841  1.00  0.00     0.057 A  
HETATM   30  C   UNL     1      -6.142  11.176  66.683  1.00  0.00    -0.133 A  
HETATM   31  O   UNL     1      -6.498  13.369  67.434  1.00  0.00    -0.274 OA 
HETATM   32  C   UNL     1      -6.588   9.996  66.075  1.00  0.00    -0.095 A  
HETATM   33  H   UNL     1      -5.596  13.443  67.723  1.00  0.00     0.000 HD 
ENDBRANCH  17  20
ENDBRANCH  16  17
ENDBRANCH  14  16
ENDBRANCH  10  14
ENDBRANCH   2   3
TORSDOF 6
ENDMDL
MODEL      325
REMARK 921   NORMALIZED FREE ENERGY PREDICTED BY IDOCK:   -3.17 KCAL/MOL
REMARK 922        TOTAL FREE ENERGY PREDICTED BY IDOCK:   -5.55 KCAL/MOL
REMARK 923 INTER-LIGAND FREE ENERGY PREDICTED BY IDOCK:   -3.90 KCAL/MOL
REMARK 924 INTRA-LIGAND FREE ENERGY PREDICTED BY IDOCK:   -1.65 KCAL/MOL
REMARK 927      BINDING AFFINITY PREDICTED BY RF-SCORE:    0.00 PKD
ROOT
HETATM    1  C   UNL     1     -11.407  14.850  66.814  1.00  0.00    -0.328 C  
HETATM    2  C   UNL     1     -10.735  13.651  66.165  1.00  0.00    -0.286 C  
ENDROOT
BRANCH   2   3
HETATM    3  C   UNL     1     -10.522  12.399  66.994  1.00  0.00    -0.238 A  
HETATM    4  C   UNL     1      -9.436  12.405  67.916  1.00  0.00    -0.198 A  
HETATM    5  C   UNL     1      -9.419  11.477  68.960  1.00  0.00     0.068 A  
HETATM    6  C   UNL     1     -11.254  11.204  66.835  1.00  0.00    -0.258 A  
HETATM    7  C   UNL     1     -10.962  10.148  67.693  1.00  0.00    -0.331 A  
HETATM    8  C   UNL     1     -10.249  10.380  68.871  1.00  0.00    -0.220 A  
HETATM    9  C   UNL     1     -10.006   9.093  69.592  1.00  0.00    -0.198 C  
HETATM   10  C   UNL     1      -9.622   8.298  68.332  1.00  0.00    -0.144 C  
HETATM   11  C   UNL     1     -10.877   8.637  67.405  1.00  0.00    -0.083 C  
BRANCH   4  12
HETATM   12  C   UNL     1      -8.207  13.248  67.615  1.00  0.00    -0.179 C  
HETATM   13  C   UNL     1      -7.414  13.762  68.817  1.00  0.00    -0.098 C  
ENDBRANCH   4  12
BRANCH  10  14
HETATM   14  N   UNL     1      -9.087   6.948  68.601  1.00  0.00    -0.132 NA 
HETATM   15  H   UNL     1      -8.916   6.423  67.744  1.00  0.00     0.000 HD 
BRANCH  14  16
HETATM   16  C   UNL     1      -7.848   7.060  69.459  1.00  0.00    -0.119 C  
BRANCH  16  17
HETATM   17  C   UNL     1      -6.517   7.359  68.714  1.00  0.00    -0.044 C  
HETATM   18  H   UNL     1      -4.830   8.221  69.177  1.00  0.00     0.000 HD 
HETATM   19  O   UNL     1      -5.644   8.038  69.633  1.00  0.00    -0.026 OA 
BRANCH  17  20
HETATM   20  C   UNL     1      -6.663   8.184  67.420  1.00  0.00    -0.066 A  
HETATM   21  C   UNL     1      -6.793   7.590  66.141  1.00  0.00    -0.061 A  
HETATM   22  C   UNL     1      -6.996   6.148  65.947  1.00  0.00    -0.061 C  
HETATM   23  C   UNL     1      -7.051   5.605  64.724  1.00  0.00    -0.060 C  
HETATM   24  C   UNL     1      -6.875   6.439  63.507  1.00  0.00    -0.045 C  
HETATM   25  N   UNL     1      -6.752   7.786  63.697  1.00  0.00    -0.061 N  
HETATM   26  O   UNL     1      -6.855   5.934  62.397  1.00  0.00    -0.038 OA 
HETATM   27  H   UNL     1      -6.668   8.383  62.874  1.00  0.00     0.000 HD 
HETATM   28  C   UNL     1      -6.736   8.398  64.968  1.00  0.00    -0.063 A  
HETATM   29  C   UNL     1      -6.619   9.787  65.069  1.00  0.00    -0.099 A  
HETATM   30  C   UNL     1      -6.556  10.386  66.317  1.00  0.00    -0.107 A  
HETATM   31  O   UNL     1      -6.575  10.619  63.983  1.00  0.00    -0.354 OA 
HETATM   32  C   UNL     1      -6.585   9.598  67.475  1.00  0.00    -0.070 A  
HETATM   33  H   UNL     1      -6.495  11.563  64.052  1.00  0.00     0.000 HD 
ENDBRANCH  17  20
ENDBRANCH  16  17
ENDBRANCH  14  16
ENDBRANCH  10  14
ENDBRANCH   2   3
TORSDOF 6
ENDMDL
MODEL      326
REMARK 921   NORMALIZED FREE ENERGY PREDICTED BY IDOCK:   -3.09 KCAL/MOL
REMARK 922        TOTAL FREE ENERGY PREDICTED BY IDOCK:   -5.45 KCAL/MOL
REMARK 923 INTER-LIGAND FREE ENERGY PREDICTED BY IDOCK:   -5.24 KCAL/MOL
REMARK 924 INTRA-LIGAND FREE ENERGY PREDICTED BY IDOCK:   -0.22 KCAL/MOL
REMARK 927      BINDING AFFINITY PREDICTED BY RF-SCORE:    0.00 PKD
ROOT
HETATM    1  C   UNL     1     -10.664  19.046  67.986  1.00  0.00    -0.297 C  
HETATM    2  C   UNL     1      -9.279  19.109  68.608  1.00  0.00    -0.429 C  
ENDROOT
BRANCH   2   3
HETATM    3  C   UNL     1      -8.334  17.940  68.404  1.00  0.00    -0.307 A  
HETATM    4  C   UNL     1      -7.694  17.834  67.135  1.00  0.00    -0.224 A  
HETATM    5  C   UNL     1      -6.550  17.044  67.010  1.00  0.00    -0.238 A  
HETATM    6  C   UNL     1      -8.135  16.903  69.338  1.00  0.00     0.206 A  
HETATM    7  C   UNL     1      -7.211  15.913  69.019  1.00  0.00    -0.177 A  
HETATM    8  C   UNL     1      -6.277  16.130  68.005  1.00  0.00    -0.139 A  
HETATM    9  C   UNL     1      -5.437  14.908  67.804  1.00  0.00    -0.060 C  
HETATM   10  C   UNL     1      -6.611  13.918  67.886  1.00  0.00    -0.161 C  
HETATM   11  C   UNL     1      -7.271  14.393  69.260  1.00  0.00    -0.107 C  
BRANCH   4  12
HETATM   12  C   UNL     1      -8.393  18.378  65.899  1.00  0.00     0.098 C  
HETATM   13  C   UNL     1      -8.470  19.899  65.766  1.00  0.00    -0.043 C  
ENDBRANCH   4  12
BRANCH  10  14
HETATM   14  N   UNL     1      -6.263  12.527  67.531  1.00  0.00    -0.143 NA 
HETATM   15  H   UNL     1      -5.981  11.980  68.344  1.00  0.00     0.000 HD 
BRANCH  14  16
HETATM   16  C   UNL     1      -7.418  11.894  66.789  1.00  0.00    -0.017 C  
BRANCH  16  17
HETATM   17  C   UNL     1      -8.769  11.816  67.552  1.00  0.00    -0.159 C  
HETATM   18  H   UNL     1     -10.026  10.397  68.008  1.00  0.00     0.000 HD 
HETATM   19  O   UNL     1      -9.200  10.444  67.542  1.00  0.00    -0.144 OA 
BRANCH  17  20
HETATM   20  C   UNL     1      -9.887  12.722  66.997  1.00  0.00    -0.231 A  
HETATM   21  C   UNL     1     -10.606  13.636  67.805  1.00  0.00    -0.247 A  
HETATM   22  C   UNL     1     -10.229  13.945  69.191  1.00  0.00     0.019 C  
HETATM   23  C   UNL     1     -10.966  14.764  69.953  1.00  0.00    -0.229 C  
HETATM   24  C   UNL     1     -12.220  15.371  69.434  1.00  0.00    -0.219 C  
HETATM   25  N   UNL     1     -12.525  15.128  68.125  1.00  0.00    -0.213 N  
HETATM   26  O   UNL     1     -12.927  16.060  70.150  1.00  0.00    -0.145 OA 
HETATM   27  H   UNL     1     -13.362  15.564  67.737  1.00  0.00     0.000 HD 
HETATM   28  C   UNL     1     -11.749  14.308  67.281  1.00  0.00    -0.395 A  
HETATM   29  C   UNL     1     -12.130  14.124  65.949  1.00  0.00    -0.426 A  
HETATM   30  C   UNL     1     -11.394  13.282  65.130  1.00  0.00    -0.318 A  
HETATM   31  O   UNL     1     -13.205  14.752  65.380  1.00  0.00    -0.200 OA 
HETATM   32  C   UNL     1     -10.286  12.597  65.643  1.00  0.00    -0.290 A  
HETATM   33  H   UNL     1     -13.465  14.626  64.475  1.00  0.00     0.000 HD 
ENDBRANCH  17  20
ENDBRANCH  16  17
ENDBRANCH  14  16
ENDBRANCH  10  14
ENDBRANCH   2   3
TORSDOF 6
ENDMDL
MODEL      327
REMARK 921   NORMALIZED FREE ENERGY PREDICTED BY IDOCK:   -3.08 KCAL/MOL
REMARK 922        TOTAL FREE ENERGY PREDICTED BY IDOCK:   -5.44 KCAL/MOL
REMARK 923 INTER-LIGAND FREE ENERGY PREDICTED BY IDOCK:   -5.64 KCAL/MOL
REMARK 924 INTRA-LIGAND FREE ENERGY PREDICTED BY IDOCK:    0.20 KCAL/MOL
REMARK 927      BINDING AFFINITY PREDICTED BY RF-SCORE:    0.00 PKD
ROOT
HETATM    1  C   UNL     1     -10.237  17.983  65.718  1.00  0.00    -0.115 C  
HETATM    2  C   UNL     1      -9.444  17.052  66.620  1.00  0.00    -0.279 C  
ENDROOT
BRANCH   2   3
HETATM    3  C   UNL     1      -9.733  15.564  66.566  1.00  0.00    -0.290 A  
HETATM    4  C   UNL     1      -9.023  14.728  67.476  1.00  0.00    -0.192 A  
HETATM    5  C   UNL     1      -9.508  13.449  67.752  1.00  0.00    -0.210 A  
HETATM    6  C   UNL     1     -10.570  14.948  65.612  1.00  0.00    -0.358 A  
HETATM    7  C   UNL     1     -10.761  13.574  65.711  1.00  0.00    -0.278 A  
HETATM    8  C   UNL     1     -10.441  12.906  66.895  1.00  0.00    -0.252 A  
HETATM    9  C   UNL     1     -10.674  11.437  66.740  1.00  0.00    -0.316 C  
HETATM   10  C   UNL     1     -10.045  11.343  65.340  1.00  0.00    -0.261 C  
HETATM   11  C   UNL     1     -10.852  12.508  64.602  1.00  0.00    -0.343 C  
BRANCH   4  12
HETATM   12  C   UNL     1      -7.636  15.143  67.941  1.00  0.00    -0.151 C  
HETATM   13  C   UNL     1      -6.793  14.070  68.632  1.00  0.00    -0.103 C  
ENDBRANCH   4  12
BRANCH  10  14
HETATM   14  N   UNL     1      -9.871   9.964  64.839  1.00  0.00    -0.400 NA 
HETATM   15  H   UNL     1      -9.036   9.865  64.263  1.00  0.00     0.000 HD 
BRANCH  14  16
HETATM   16  C   UNL     1      -9.878   9.003  66.006  1.00  0.00    -0.242 C  
BRANCH  16  17
HETATM   17  C   UNL     1      -8.569   8.202  66.248  1.00  0.00    -0.144 C  
HETATM   18  H   UNL     1      -6.970   7.806  65.205  1.00  0.00     0.000 HD 
HETATM   19  O   UNL     1      -7.770   8.296  65.056  1.00  0.00    -0.092 OA 
BRANCH  17  20
HETATM   20  C   UNL     1      -8.770   6.721  66.631  1.00  0.00    -0.128 A  
HETATM   21  C   UNL     1      -8.509   5.655  65.737  1.00  0.00    -0.140 A  
HETATM   22  C   UNL     1      -7.845   5.844  64.440  1.00  0.00    -0.112 C  
HETATM   23  C   UNL     1      -7.669   4.827  63.586  1.00  0.00    -0.071 C  
HETATM   24  C   UNL     1      -8.172   3.465  63.904  1.00  0.00    -0.090 C  
HETATM   25  N   UNL     1      -8.729   3.287  65.138  1.00  0.00    -0.113 N  
HETATM   26  O   UNL     1      -8.074   2.556  63.097  1.00  0.00    -0.068 OA 
HETATM   27  H   UNL     1      -9.047   2.352  65.392  1.00  0.00     0.000 HD 
HETATM   28  C   UNL     1      -8.889   4.324  66.080  1.00  0.00    -0.116 A  
HETATM   29  C   UNL     1      -9.460   4.050  67.326  1.00  0.00    -0.195 A  
HETATM   30  C   UNL     1      -9.660   5.075  68.235  1.00  0.00    -0.187 A  
HETATM   31  O   UNL     1      -9.831   2.793  67.723  1.00  0.00    -0.277 OA 
HETATM   32  C   UNL     1      -9.314   6.390  67.897  1.00  0.00    -0.114 A  
HETATM   33  H   UNL     1     -10.219   2.607  68.569  1.00  0.00     0.000 HD 
ENDBRANCH  17  20
ENDBRANCH  16  17
ENDBRANCH  14  16
ENDBRANCH  10  14
ENDBRANCH   2   3
TORSDOF 6
ENDMDL
MODEL      328
REMARK 921   NORMALIZED FREE ENERGY PREDICTED BY IDOCK:   -3.02 KCAL/MOL
REMARK 922        TOTAL FREE ENERGY PREDICTED BY IDOCK:   -5.36 KCAL/MOL
REMARK 923 INTER-LIGAND FREE ENERGY PREDICTED BY IDOCK:   -5.52 KCAL/MOL
REMARK 924 INTRA-LIGAND FREE ENERGY PREDICTED BY IDOCK:    0.16 KCAL/MOL
REMARK 927      BINDING AFFINITY PREDICTED BY RF-SCORE:    0.00 PKD
ROOT
HETATM    1  C   UNL     1      -7.527  19.575  69.025  1.00  0.00    -0.380 C  
HETATM    2  C   UNL     1      -7.804  18.990  67.649  1.00  0.00    -0.269 C  
ENDROOT
BRANCH   2   3
HETATM    3  C   UNL     1      -8.092  17.505  67.533  1.00  0.00    -0.213 A  
HETATM    4  C   UNL     1      -9.460  17.108  67.491  1.00  0.00    -0.247 A  
HETATM    5  C   UNL     1      -9.789  15.843  67.000  1.00  0.00    -0.236 A  
HETATM    6  C   UNL     1      -7.107  16.497  67.574  1.00  0.00    -0.169 A  
HETATM    7  C   UNL     1      -7.524  15.178  67.424  1.00  0.00    -0.239 A  
HETATM    8  C   UNL     1      -8.789  14.901  66.902  1.00  0.00    -0.284 A  
HETATM    9  C   UNL     1      -9.034  13.425  66.894  1.00  0.00    -0.216 C  
HETATM   10  C   UNL     1      -8.459  13.182  68.300  1.00  0.00    -0.161 C  
HETATM   11  C   UNL     1      -7.043  13.903  68.142  1.00  0.00    -0.118 C  
BRANCH   4  12
HETATM   12  C   UNL     1     -10.505  17.959  68.194  1.00  0.00    -0.380 C  
HETATM   13  C   UNL     1     -11.032  19.173  67.430  1.00  0.00    -0.419 C  
ENDBRANCH   4  12
BRANCH  10  14
HETATM   14  N   UNL     1      -8.679  11.818  68.823  1.00  0.00    -0.361 NA 
HETATM   15  H   UNL     1      -9.491  11.766  69.438  1.00  0.00     0.000 HD 
BRANCH  14  16
HETATM   16  C   UNL     1      -8.775  10.848  67.667  1.00  0.00    -0.127 C  
BRANCH  16  17
HETATM   17  C   UNL     1      -9.423   9.470  67.975  1.00  0.00    -0.132 C  
HETATM   18  H   UNL     1     -10.601   8.767  69.362  1.00  0.00     0.000 HD 
HETATM   19  O   UNL     1     -10.205   9.610  69.174  1.00  0.00    -0.184 OA 
BRANCH  17  20
HETATM   20  C   UNL     1      -8.431   8.299  68.128  1.00  0.00    -0.132 A  
HETATM   21  C   UNL     1      -8.733   7.128  68.864  1.00  0.00    -0.128 A  
HETATM   22  C   UNL     1     -10.076   6.834  69.382  1.00  0.00    -0.183 C  
HETATM   23  C   UNL     1     -10.318   5.750  70.130  1.00  0.00    -0.324 C  
HETATM   24  C   UNL     1      -9.225   4.812  70.496  1.00  0.00    -0.137 C  
HETATM   25  N   UNL     1      -7.995   5.060  69.956  1.00  0.00    -0.073 N  
HETATM   26  O   UNL     1      -9.432   3.864  71.235  1.00  0.00    -0.134 OA 
HETATM   27  H   UNL     1      -7.238   4.409  70.163  1.00  0.00     0.000 HD 
HETATM   28  C   UNL     1      -7.714   6.166  69.127  1.00  0.00    -0.100 A  
HETATM   29  C   UNL     1      -6.428   6.336  68.607  1.00  0.00    -0.049 A  
HETATM   30  C   UNL     1      -6.138   7.446  67.831  1.00  0.00    -0.035 A  
HETATM   31  O   UNL     1      -5.411   5.442  68.809  1.00  0.00    -0.006 OA 
HETATM   32  C   UNL     1      -7.125   8.410  67.589  1.00  0.00    -0.083 A  
HETATM   33  H   UNL     1      -4.537   5.558  68.456  1.00  0.00     0.000 HD 
ENDBRANCH  17  20
ENDBRANCH  16  17
ENDBRANCH  14  16
ENDBRANCH  10  14
ENDBRANCH   2   3
TORSDOF 6
ENDMDL
MODEL      329
REMARK 921   NORMALIZED FREE ENERGY PREDICTED BY IDOCK:   -3.01 KCAL/MOL
REMARK 922        TOTAL FREE ENERGY PREDICTED BY IDOCK:   -5.35 KCAL/MOL
REMARK 923 INTER-LIGAND FREE ENERGY PREDICTED BY IDOCK:   -6.33 KCAL/MOL
REMARK 924 INTRA-LIGAND FREE ENERGY PREDICTED BY IDOCK:    0.99 KCAL/MOL
REMARK 927      BINDING AFFINITY PREDICTED BY RF-SCORE:    0.00 PKD
ROOT
HETATM    1  C   UNL     1      -8.704  20.445  66.577  1.00  0.00    -0.202 C  
HETATM    2  C   UNL     1      -9.978  19.891  67.194  1.00  0.00    -0.557 C  
ENDROOT
BRANCH   2   3
HETATM    3  C   UNL     1     -10.040  18.415  67.537  1.00  0.00    -0.373 A  
HETATM    4  C   UNL     1      -8.965  17.878  68.303  1.00  0.00    -0.277 A  
HETATM    5  C   UNL     1      -9.141  16.666  68.973  1.00  0.00    -0.209 A  
HETATM    6  C   UNL     1     -11.026  17.527  67.059  1.00  0.00     0.079 A  
HETATM    7  C   UNL     1     -10.966  16.204  67.486  1.00  0.00    -0.238 A  
HETATM    8  C   UNL     1     -10.199  15.864  68.602  1.00  0.00    -0.223 A  
HETATM    9  C   UNL     1     -10.241  14.386  68.829  1.00  0.00    -0.239 C  
HETATM   10  C   UNL     1     -10.068  14.013  67.347  1.00  0.00    -0.244 C  
HETATM   11  C   UNL     1     -11.230  14.902  66.707  1.00  0.00    -0.338 C  
BRANCH   4  12
HETATM   12  C   UNL     1      -7.582  18.499  68.185  1.00  0.00    -0.291 C  
HETATM   13  C   UNL     1      -6.804  18.696  69.486  1.00  0.00    -0.123 C  
ENDBRANCH   4  12
BRANCH  10  14
HETATM   14  N   UNL     1      -9.849  12.573  67.101  1.00  0.00    -0.207 NA 
HETATM   15  H   UNL     1      -9.156  12.174  67.734  1.00  0.00     0.000 HD 
BRANCH  14  16
HETATM   16  C   UNL     1     -11.172  11.845  67.172  1.00  0.00    -0.319 C  
BRANCH  16  17
HETATM   17  C   UNL     1     -11.237  10.622  68.128  1.00  0.00    -0.302 C  
HETATM   18  H   UNL     1     -11.111  10.359  70.057  1.00  0.00     0.000 HD 
HETATM   19  O   UNL     1     -11.072  11.107  69.472  1.00  0.00    -0.243 OA 
BRANCH  17  20
HETATM   20  C   UNL     1     -10.207   9.511  67.840  1.00  0.00    -0.251 A  
HETATM   21  C   UNL     1      -9.364   8.968  68.840  1.00  0.00    -0.143 A  
HETATM   22  C   UNL     1      -9.521   9.271  70.269  1.00  0.00    -0.277 C  
HETATM   23  C   UNL     1      -8.668   8.795  71.186  1.00  0.00    -0.265 C  
HETATM   24  C   UNL     1      -7.502   7.964  70.788  1.00  0.00    -0.072 C  
HETATM   25  N   UNL     1      -7.402   7.636  69.466  1.00  0.00    -0.084 N  
HETATM   26  O   UNL     1      -6.687   7.589  71.615  1.00  0.00    -0.049 OA 
HETATM   27  H   UNL     1      -6.631   7.036  69.176  1.00  0.00     0.000 HD 
HETATM   28  C   UNL     1      -8.307   8.081  68.480  1.00  0.00    -0.127 A  
HETATM   29  C   UNL     1      -8.136   7.686  67.151  1.00  0.00    -0.118 A  
HETATM   30  C   UNL     1      -8.996   8.159  66.173  1.00  0.00    -0.218 A  
HETATM   31  O   UNL     1      -7.153   6.825  66.742  1.00  0.00    -0.068 OA 
HETATM   32  C   UNL     1     -10.020   9.052  66.513  1.00  0.00    -0.355 A  
HETATM   33  H   UNL     1      -7.036   6.557  65.838  1.00  0.00     0.000 HD 
ENDBRANCH  17  20
ENDBRANCH  16  17
ENDBRANCH  14  16
ENDBRANCH  10  14
ENDBRANCH   2   3
TORSDOF 6
ENDMDL
MODEL      330
REMARK 921   NORMALIZED FREE ENERGY PREDICTED BY IDOCK:   -2.96 KCAL/MOL
REMARK 922        TOTAL FREE ENERGY PREDICTED BY IDOCK:   -5.28 KCAL/MOL
REMARK 923 INTER-LIGAND FREE ENERGY PREDICTED BY IDOCK:   -3.34 KCAL/MOL
REMARK 924 INTRA-LIGAND FREE ENERGY PREDICTED BY IDOCK:   -1.94 KCAL/MOL
REMARK 927      BINDING AFFINITY PREDICTED BY RF-SCORE:    0.00 PKD
ROOT
HETATM    1  C   UNL     1      -7.216   4.921  74.008  1.00  0.00    -0.082 C  
HETATM    2  C   UNL     1      -6.732   5.791  72.860  1.00  0.00    -0.074 C  
ENDROOT
BRANCH   2   3
HETATM    3  C   UNL     1      -6.603   5.172  71.481  1.00  0.00    -0.036 A  
HETATM    4  C   UNL     1      -7.123   5.915  70.381  1.00  0.00    -0.070 A  
HETATM    5  C   UNL     1      -6.700   5.607  69.087  1.00  0.00    -0.060 A  
HETATM    6  C   UNL     1      -6.105   3.877  71.233  1.00  0.00    -0.014 A  
HETATM    7  C   UNL     1      -6.020   3.459  69.908  1.00  0.00    -0.023 A  
HETATM    8  C   UNL     1      -6.078   4.397  68.875  1.00  0.00    -0.030 A  
HETATM    9  C   UNL     1      -6.027   3.708  67.548  1.00  0.00    -0.024 C  
HETATM   10  C   UNL     1      -7.007   2.588  67.936  1.00  0.00    -0.048 C  
HETATM   11  C   UNL     1      -6.320   2.082  69.286  1.00  0.00    -0.025 C  
BRANCH   4  12
HETATM   12  C   UNL     1      -8.296   6.856  70.606  1.00  0.00    -0.128 C  
HETATM   13  C   UNL     1      -8.134   8.289  70.099  1.00  0.00    -0.112 C  
ENDBRANCH   4  12
BRANCH  10  14
HETATM   14  N   UNL     1      -7.430   1.730  66.810  1.00  0.00    -0.059 NA 
HETATM   15  H   UNL     1      -7.199   0.749  66.964  1.00  0.00     0.000 HD 
BRANCH  14  16
HETATM   16  C   UNL     1      -8.905   1.935  66.550  1.00  0.00    -0.121 C  
BRANCH  16  17
HETATM   17  C   UNL     1      -9.277   2.710  65.256  1.00  0.00    -0.124 C  
HETATM   18  H   UNL     1      -9.118   2.373  63.341  1.00  0.00     0.000 HD 
HETATM   19  O   UNL     1      -8.891   1.899  64.133  1.00  0.00    -0.093 OA 
BRANCH  17  20
HETATM   20  C   UNL     1      -8.651   4.113  65.131  1.00  0.00    -0.116 A  
HETATM   21  C   UNL     1      -9.175   5.250  65.792  1.00  0.00    -0.159 A  
HETATM   22  C   UNL     1     -10.239   5.166  66.803  1.00  0.00    -0.289 C  
HETATM   23  C   UNL     1     -10.761   6.264  67.365  1.00  0.00    -0.409 C  
HETATM   24  C   UNL     1     -10.308   7.621  66.962  1.00  0.00    -0.330 C  
HETATM   25  N   UNL     1      -9.275   7.685  66.069  1.00  0.00    -0.355 N  
HETATM   26  O   UNL     1     -10.832   8.621  67.422  1.00  0.00    -0.211 OA 
HETATM   27  H   UNL     1      -8.923   8.605  65.806  1.00  0.00     0.000 HD 
HETATM   28  C   UNL     1      -8.670   6.549  65.492  1.00  0.00    -0.051 A  
HETATM   29  C   UNL     1      -7.610   6.707  64.595  1.00  0.00    -0.105 A  
HETATM   30  C   UNL     1      -7.045   5.595  63.992  1.00  0.00    -0.052 A  
HETATM   31  O   UNL     1      -7.068   7.923  64.277  1.00  0.00    -0.069 OA 
HETATM   32  C   UNL     1      -7.552   4.318  64.260  1.00  0.00    -0.072 A  
HETATM   33  H   UNL     1      -6.348   8.031  63.668  1.00  0.00     0.000 HD 
ENDBRANCH  17  20
ENDBRANCH  16  17
ENDBRANCH  14  16
ENDBRANCH  10  14
ENDBRANCH   2   3
TORSDOF 6
ENDMDL
MODEL      331
REMARK 921   NORMALIZED FREE ENERGY PREDICTED BY IDOCK:   -2.95 KCAL/MOL
REMARK 922        TOTAL FREE ENERGY PREDICTED BY IDOCK:   -5.27 KCAL/MOL
REMARK 923 INTER-LIGAND FREE ENERGY PREDICTED BY IDOCK:   -5.24 KCAL/MOL
REMARK 924 INTRA-LIGAND FREE ENERGY PREDICTED BY IDOCK:   -0.02 KCAL/MOL
REMARK 927      BINDING AFFINITY PREDICTED BY RF-SCORE:    0.00 PKD
ROOT
HETATM    1  C   UNL     1      -8.716   2.525  70.547  1.00  0.00    -0.119 C  
HETATM    2  C   UNL     1      -8.240   3.767  71.282  1.00  0.00    -0.078 C  
ENDROOT
BRANCH   2   3
HETATM    3  C   UNL     1      -7.814   4.976  70.470  1.00  0.00    -0.074 A  
HETATM    4  C   UNL     1      -8.749   6.045  70.353  1.00  0.00    -0.144 A  
HETATM    5  C   UNL     1      -8.298   7.310  69.973  1.00  0.00    -0.137 A  
HETATM    6  C   UNL     1      -6.610   5.063  69.742  1.00  0.00    -0.036 A  
HETATM    7  C   UNL     1      -6.345   6.251  69.069  1.00  0.00    -0.041 A  
HETATM    8  C   UNL     1      -7.052   7.411  69.393  1.00  0.00    -0.070 A  
HETATM    9  C   UNL     1      -6.638   8.536  68.499  1.00  0.00    -0.059 C  
HETATM   10  C   UNL     1      -6.636   7.697  67.211  1.00  0.00    -0.063 C  
HETATM   11  C   UNL     1      -5.714   6.480  67.682  1.00  0.00    -0.012 C  
BRANCH   4  12
HETATM   12  C   UNL     1     -10.238   5.742  70.406  1.00  0.00    -0.288 C  
HETATM   13  C   UNL     1     -10.984   5.724  69.072  1.00  0.00    -0.280 C  
ENDBRANCH   4  12
BRANCH  10  14
HETATM   14  N   UNL     1      -6.462   8.481  65.971  1.00  0.00    -0.053 NA 
HETATM   15  H   UNL     1      -6.291   7.887  65.160  1.00  0.00     0.000 HD 
BRANCH  14  16
HETATM   16  C   UNL     1      -7.658   9.384  65.777  1.00  0.00    -0.099 C  
BRANCH  16  17
HETATM   17  C   UNL     1      -8.787   9.273  66.839  1.00  0.00    -0.127 C  
HETATM   18  H   UNL     1     -10.437   8.247  67.008  1.00  0.00     0.000 HD 
HETATM   19  O   UNL     1      -9.747   8.315  66.359  1.00  0.00    -0.236 OA 
BRANCH  17  20
HETATM   20  C   UNL     1      -9.494  10.599  67.183  1.00  0.00    -0.177 A  
HETATM   21  C   UNL     1     -10.252  11.332  66.239  1.00  0.00    -0.280 A  
HETATM   22  C   UNL     1     -10.596  10.809  64.910  1.00  0.00    -0.258 C  
HETATM   23  C   UNL     1     -11.259  11.550  64.012  1.00  0.00    -0.414 C  
HETATM   24  C   UNL     1     -11.647  12.952  64.315  1.00  0.00    -0.378 C  
HETATM   25  N   UNL     1     -11.380  13.407  65.575  1.00  0.00    -0.291 N  
HETATM   26  O   UNL     1     -12.189  13.650  63.473  1.00  0.00    -0.618 OA 
HETATM   27  H   UNL     1     -11.671  14.354  65.817  1.00  0.00     0.000 HD 
HETATM   28  C   UNL     1     -10.725  12.639  66.560  1.00  0.00    -0.250 A  
HETATM   29  C   UNL     1     -10.503  13.180  67.829  1.00  0.00    -0.228 A  
HETATM   30  C   UNL     1      -9.819  12.445  68.784  1.00  0.00    -0.005 A  
HETATM   31  O   UNL     1     -10.944  14.420  68.206  1.00  0.00    -0.236 OA 
HETATM   32  C   UNL     1      -9.328  11.171  68.469  1.00  0.00    -0.190 A  
HETATM   33  H   UNL     1     -10.793  14.788  69.069  1.00  0.00     0.000 HD 
ENDBRANCH  17  20
ENDBRANCH  16  17
ENDBRANCH  14  16
ENDBRANCH  10  14
ENDBRANCH   2   3
TORSDOF 6
ENDMDL
MODEL      332
REMARK 921   NORMALIZED FREE ENERGY PREDICTED BY IDOCK:   -2.90 KCAL/MOL
REMARK 922        TOTAL FREE ENERGY PREDICTED BY IDOCK:   -5.20 KCAL/MOL
REMARK 923 INTER-LIGAND FREE ENERGY PREDICTED BY IDOCK:   -4.66 KCAL/MOL
REMARK 924 INTRA-LIGAND FREE ENERGY PREDICTED BY IDOCK:   -0.54 KCAL/MOL
REMARK 927      BINDING AFFINITY PREDICTED BY RF-SCORE:    0.00 PKD
ROOT
HETATM    1  C   UNL     1      -7.953  17.529  67.782  1.00  0.00    -0.210 C  
HETATM    2  C   UNL     1      -7.823  16.549  66.627  1.00  0.00    -0.321 C  
ENDROOT
BRANCH   2   3
HETATM    3  C   UNL     1      -8.042  15.073  66.897  1.00  0.00    -0.161 A  
HETATM    4  C   UNL     1      -9.314  14.529  66.556  1.00  0.00    -0.307 A  
HETATM    5  C   UNL     1      -9.450  13.147  66.408  1.00  0.00    -0.226 A  
HETATM    6  C   UNL     1      -7.116  14.238  67.557  1.00  0.00    -0.189 A  
HETATM    7  C   UNL     1      -7.448  12.894  67.704  1.00  0.00    -0.148 A  
HETATM    8  C   UNL     1      -8.464  12.336  66.927  1.00  0.00    -0.159 A  
HETATM    9  C   UNL     1      -8.678  10.905  67.305  1.00  0.00    -0.131 C  
HETATM   10  C   UNL     1      -8.600  11.149  68.822  1.00  0.00    -0.132 C  
HETATM   11  C   UNL     1      -7.219  11.947  68.897  1.00  0.00    -0.098 C  
BRANCH   4  12
HETATM   12  C   UNL     1     -10.542  15.424  66.595  1.00  0.00    -0.306 C  
HETATM   13  C   UNL     1     -11.663  15.012  67.549  1.00  0.00    -0.270 C  
ENDBRANCH   4  12
BRANCH  10  14
HETATM   14  N   UNL     1      -8.968   9.980  69.648  1.00  0.00    -0.244 NA 
HETATM   15  H   UNL     1      -9.897  10.074  70.057  1.00  0.00     0.000 HD 
BRANCH  14  16
HETATM   16  C   UNL     1      -8.830   8.720  68.825  1.00  0.00    -0.134 C  
BRANCH  16  17
HETATM   17  C   UNL     1      -9.379   7.415  69.463  1.00  0.00    -0.156 C  
HETATM   18  H   UNL     1     -10.973   6.928  70.477  1.00  0.00     0.000 HD 
HETATM   19  O   UNL     1     -10.637   7.726  70.086  1.00  0.00    -0.227 OA 
BRANCH  17  20
HETATM   20  C   UNL     1      -8.440   6.741  70.484  1.00  0.00    -0.138 A  
HETATM   21  C   UNL     1      -8.698   5.463  71.037  1.00  0.00    -0.141 A  
HETATM   22  C   UNL     1      -9.771   4.584  70.552  1.00  0.00    -0.290 C  
HETATM   23  C   UNL     1     -10.033   3.408  71.138  1.00  0.00    -0.054 C  
HETATM   24  C   UNL     1      -9.268   2.958  72.329  1.00  0.00    -0.100 C  
HETATM   25  N   UNL     1      -8.232   3.752  72.731  1.00  0.00    -0.088 N  
HETATM   26  O   UNL     1      -9.553   1.920  72.904  1.00  0.00    -0.079 OA 
HETATM   27  H   UNL     1      -7.669   3.444  73.524  1.00  0.00     0.000 HD 
HETATM   28  C   UNL     1      -7.897   4.974  72.111  1.00  0.00    -0.110 A  
HETATM   29  C   UNL     1      -6.812   5.718  72.582  1.00  0.00    -0.078 A  
HETATM   30  C   UNL     1      -6.510   6.940  72.004  1.00  0.00    -0.053 A  
HETATM   31  O   UNL     1      -5.995   5.298  73.596  1.00  0.00    -0.039 OA 
HETATM   32  C   UNL     1      -7.307   7.441  70.966  1.00  0.00    -0.073 A  
HETATM   33  H   UNL     1      -5.258   5.804  73.917  1.00  0.00     0.000 HD 
ENDBRANCH  17  20
ENDBRANCH  16  17
ENDBRANCH  14  16
ENDBRANCH  10  14
ENDBRANCH   2   3
TORSDOF 6
ENDMDL
MODEL      333
REMARK 921   NORMALIZED FREE ENERGY PREDICTED BY IDOCK:   -2.88 KCAL/MOL
REMARK 922        TOTAL FREE ENERGY PREDICTED BY IDOCK:   -5.17 KCAL/MOL
REMARK 923 INTER-LIGAND FREE ENERGY PREDICTED BY IDOCK:   -5.17 KCAL/MOL
REMARK 924 INTRA-LIGAND FREE ENERGY PREDICTED BY IDOCK:   -0.00 KCAL/MOL
REMARK 927      BINDING AFFINITY PREDICTED BY RF-SCORE:    0.00 PKD
ROOT
HETATM    1  C   UNL     1      -7.270   2.481  68.719  1.00  0.00    -0.044 C  
HETATM    2  C   UNL     1      -6.468   3.667  68.209  1.00  0.00    -0.037 C  
ENDROOT
BRANCH   2   3
HETATM    3  C   UNL     1      -6.607   5.000  68.918  1.00  0.00    -0.048 A  
HETATM    4  C   UNL     1      -7.700   5.147  69.821  1.00  0.00    -0.071 A  
HETATM    5  C   UNL     1      -7.666   6.165  70.776  1.00  0.00    -0.102 A  
HETATM    6  C   UNL     1      -5.799   6.127  68.663  1.00  0.00    -0.016 A  
HETATM    7  C   UNL     1      -6.030   7.273  69.417  1.00  0.00    -0.030 A  
HETATM    8  C   UNL     1      -6.767   7.194  70.600  1.00  0.00    -0.052 A  
HETATM    9  C   UNL     1      -6.933   8.555  71.199  1.00  0.00    -0.070 C  
HETATM   10  C   UNL     1      -7.255   9.254  69.867  1.00  0.00    -0.071 C  
HETATM   11  C   UNL     1      -6.015   8.754  68.993  1.00  0.00    -0.043 C  
BRANCH   4  12
HETATM   12  C   UNL     1      -8.977   4.359  69.580  1.00  0.00    -0.148 C  
HETATM   13  C   UNL     1      -9.805   3.996  70.813  1.00  0.00    -0.233 C  
ENDBRANCH   4  12
BRANCH  10  14
HETATM   14  N   UNL     1      -7.704  10.655  70.005  1.00  0.00    -0.398 NA 
HETATM   15  H   UNL     1      -7.068  11.210  70.577  1.00  0.00     0.000 HD 
BRANCH  14  16
HETATM   16  C   UNL     1      -7.908  11.253  68.632  1.00  0.00    -0.139 C  
BRANCH  16  17
HETATM   17  C   UNL     1      -9.354  11.207  68.066  1.00  0.00    -0.166 C  
HETATM   18  H   UNL     1     -11.087  11.906  68.623  1.00  0.00     0.000 HD 
HETATM   19  O   UNL     1     -10.203  11.935  68.970  1.00  0.00    -0.128 OA 
BRANCH  17  20
HETATM   20  C   UNL     1      -9.921   9.791  67.837  1.00  0.00    -0.196 A  
HETATM   21  C   UNL     1     -10.565   9.048  68.856  1.00  0.00    -0.203 A  
HETATM   22  C   UNL     1     -10.924   9.624  70.160  1.00  0.00    -0.320 C  
HETATM   23  C   UNL     1     -11.474   8.881  71.128  1.00  0.00    -0.364 C  
HETATM   24  C   UNL     1     -11.715   7.427  70.935  1.00  0.00    -0.296 C  
HETATM   25  N   UNL     1     -11.438   6.917  69.699  1.00  0.00    -0.555 N  
HETATM   26  O   UNL     1     -12.150   6.737  71.841  1.00  0.00    -0.315 OA 
HETATM   27  H   UNL     1     -11.630   5.929  69.531  1.00  0.00     0.000 HD 
HETATM   28  C   UNL     1     -10.901   7.679  68.640  1.00  0.00     0.028 A  
HETATM   29  C   UNL     1     -10.659   7.077  67.403  1.00  0.00    -0.302 A  
HETATM   30  C   UNL     1     -10.089   7.813  66.376  1.00  0.00    -0.124 A  
HETATM   31  O   UNL     1     -10.973   5.774  67.126  1.00  0.00    -0.435 OA 
HETATM   32  C   UNL     1      -9.732   9.151  66.587  1.00  0.00    -0.287 A  
HETATM   33  H   UNL     1     -10.808   5.364  66.285  1.00  0.00     0.000 HD 
ENDBRANCH  17  20
ENDBRANCH  16  17
ENDBRANCH  14  16
ENDBRANCH  10  14
ENDBRANCH   2   3
TORSDOF 6
ENDMDL
MODEL      334
REMARK 921   NORMALIZED FREE ENERGY PREDICTED BY IDOCK:   -2.88 KCAL/MOL
REMARK 922        TOTAL FREE ENERGY PREDICTED BY IDOCK:   -5.17 KCAL/MOL
REMARK 923 INTER-LIGAND FREE ENERGY PREDICTED BY IDOCK:   -6.78 KCAL/MOL
REMARK 924 INTRA-LIGAND FREE ENERGY PREDICTED BY IDOCK:    1.61 KCAL/MOL
REMARK 927      BINDING AFFINITY PREDICTED BY RF-SCORE:    0.00 PKD
ROOT
HETATM    1  C   UNL     1     -10.511   4.115  72.650  1.00  0.00    -0.228 C  
HETATM    2  C   UNL     1      -9.260   4.951  72.437  1.00  0.00    -0.151 C  
ENDROOT
BRANCH   2   3
HETATM    3  C   UNL     1      -9.346   6.179  71.550  1.00  0.00    -0.158 A  
HETATM    4  C   UNL     1      -9.560   7.433  72.192  1.00  0.00    -0.177 A  
HETATM    5  C   UNL     1      -9.262   8.612  71.506  1.00  0.00    -0.316 A  
HETATM    6  C   UNL     1      -9.339   6.146  70.140  1.00  0.00    -0.167 A  
HETATM    7  C   UNL     1      -9.395   7.360  69.464  1.00  0.00    -0.156 A  
HETATM    8  C   UNL     1      -9.108   8.549  70.138  1.00  0.00    -0.154 A  
HETATM    9  C   UNL     1      -9.294   9.720  69.225  1.00  0.00    -0.198 C  
HETATM   10  C   UNL     1     -10.610   9.211  68.614  1.00  0.00    -0.174 C  
HETATM   11  C   UNL     1     -10.159   7.742  68.182  1.00  0.00    -0.220 C  
BRANCH   4  12
HETATM   12  C   UNL     1     -10.325   7.478  73.505  1.00  0.00    -0.373 C  
HETATM   13  C   UNL     1     -10.098   6.316  74.473  1.00  0.00    -0.353 C  
ENDBRANCH   4  12
BRANCH  10  14
HETATM   14  N   UNL     1     -11.301  10.191  67.750  1.00  0.00    -0.565 NA 
HETATM   15  H   UNL     1     -12.139  10.570  68.189  1.00  0.00     0.000 HD 
BRANCH  14  16
HETATM   16  C   UNL     1     -10.328  11.274  67.343  1.00  0.00    -0.200 C  
BRANCH  16  17
HETATM   17  C   UNL     1     -10.607  12.697  67.901  1.00  0.00    -0.220 C  
HETATM   18  H   UNL     1     -11.794  14.169  67.424  1.00  0.00     0.000 HD 
HETATM   19  O   UNL     1     -11.624  13.298  67.082  1.00  0.00    -0.319 OA 
BRANCH  17  20
HETATM   20  C   UNL     1      -9.376  13.623  67.975  1.00  0.00    -0.208 A  
HETATM   21  C   UNL     1      -9.479  15.025  68.143  1.00  0.00    -0.196 A  
HETATM   22  C   UNL     1     -10.746  15.702  68.455  1.00  0.00    -0.264 C  
HETATM   23  C   UNL     1     -10.826  17.036  68.544  1.00  0.00    -0.310 C  
HETATM   24  C   UNL     1      -9.638  17.893  68.297  1.00  0.00    -0.312 C  
HETATM   25  N   UNL     1      -8.453  17.252  68.072  1.00  0.00    -0.223 N  
HETATM   26  O   UNL     1      -9.727  19.109  68.310  1.00  0.00    -0.327 OA 
HETATM   27  H   UNL     1      -7.617  17.819  67.936  1.00  0.00     0.000 HD 
HETATM   28  C   UNL     1      -8.322  15.849  68.016  1.00  0.00    -0.160 A  
HETATM   29  C   UNL     1      -7.067  15.276  67.792  1.00  0.00    -0.160 A  
HETATM   30  C   UNL     1      -6.943  13.900  67.691  1.00  0.00    -0.189 A  
HETATM   31  O   UNL     1      -5.916  16.008  67.678  1.00  0.00    -0.131 OA 
HETATM   32  C   UNL     1      -8.078  13.085  67.788  1.00  0.00    -0.168 A  
HETATM   33  H   UNL     1      -5.063  15.619  67.524  1.00  0.00     0.000 HD 
ENDBRANCH  17  20
ENDBRANCH  16  17
ENDBRANCH  14  16
ENDBRANCH  10  14
ENDBRANCH   2   3
TORSDOF 6
ENDMDL
MODEL      335
REMARK 921   NORMALIZED FREE ENERGY PREDICTED BY IDOCK:   -2.78 KCAL/MOL
REMARK 922        TOTAL FREE ENERGY PREDICTED BY IDOCK:   -5.03 KCAL/MOL
REMARK 923 INTER-LIGAND FREE ENERGY PREDICTED BY IDOCK:   -3.21 KCAL/MOL
REMARK 924 INTRA-LIGAND FREE ENERGY PREDICTED BY IDOCK:   -1.82 KCAL/MOL
REMARK 927      BINDING AFFINITY PREDICTED BY RF-SCORE:    0.00 PKD
ROOT
HETATM    1  C   UNL     1      -7.023   8.263  73.617  1.00  0.00    -0.157 C  
HETATM    2  C   UNL     1      -6.070   8.391  72.440  1.00  0.00    -0.067 C  
ENDROOT
BRANCH   2   3
HETATM    3  C   UNL     1      -6.292   7.512  71.224  1.00  0.00    -0.035 A  
HETATM    4  C   UNL     1      -6.692   8.158  70.018  1.00  0.00    -0.040 A  
HETATM    5  C   UNL     1      -6.533   7.492  68.801  1.00  0.00    -0.048 A  
HETATM    6  C   UNL     1      -6.235   6.104  71.238  1.00  0.00    -0.043 A  
HETATM    7  C   UNL     1      -6.432   5.436  70.033  1.00  0.00    -0.031 A  
HETATM    8  C   UNL     1      -6.329   6.129  68.825  1.00  0.00    -0.041 A  
HETATM    9  C   UNL     1      -6.641   5.221  67.678  1.00  0.00    -0.053 C  
HETATM   10  C   UNL     1      -7.857   4.562  68.350  1.00  0.00    -0.079 C  
HETATM   11  C   UNL     1      -7.199   4.132  69.741  1.00  0.00    -0.049 C  
BRANCH   4  12
HETATM   12  C   UNL     1      -7.498   9.445  70.093  1.00  0.00    -0.120 C  
HETATM   13  C   UNL     1      -6.891  10.676  69.419  1.00  0.00    -0.095 C  
ENDBRANCH   4  12
BRANCH  10  14
HETATM   14  N   UNL     1      -8.645   3.683  67.461  1.00  0.00    -0.096 NA 
HETATM   15  H   UNL     1      -8.885   2.798  67.907  1.00  0.00     0.000 HD 
BRANCH  14  16
HETATM   16  C   UNL     1      -9.866   4.429  66.974  1.00  0.00    -0.194 C  
BRANCH  16  17
HETATM   17  C   UNL     1      -9.758   5.090  65.572  1.00  0.00    -0.063 C  
HETATM   18  H   UNL     1      -9.229   4.493  63.792  1.00  0.00     0.000 HD 
HETATM   19  O   UNL     1      -9.296   4.088  64.649  1.00  0.00    -0.143 OA 
BRANCH  17  20
HETATM   20  C   UNL     1      -8.844   6.330  65.503  1.00  0.00    -0.042 A  
HETATM   21  C   UNL     1      -9.180   7.566  66.106  1.00  0.00    -0.156 A  
HETATM   22  C   UNL     1     -10.327   7.728  67.010  1.00  0.00    -0.405 C  
HETATM   23  C   UNL     1     -10.660   8.923  67.515  1.00  0.00    -0.307 C  
HETATM   24  C   UNL     1      -9.898  10.147  67.153  1.00  0.00    -0.187 C  
HETATM   25  N   UNL     1      -8.797   9.975  66.364  1.00  0.00    -0.141 N  
HETATM   26  O   UNL     1     -10.244  11.244  67.557  1.00  0.00    -0.183 OA 
HETATM   27  H   UNL     1      -8.237  10.795  66.133  1.00  0.00     0.000 HD 
HETATM   28  C   UNL     1      -8.390   8.725  65.852  1.00  0.00    -0.126 A  
HETATM   29  C   UNL     1      -7.241   8.639  65.061  1.00  0.00    -0.084 A  
HETATM   30  C   UNL     1      -6.865   7.421  64.518  1.00  0.00    -0.047 A  
HETATM   31  O   UNL     1      -6.431   9.709  64.792  1.00  0.00    -0.080 OA 
HETATM   32  C   UNL     1      -7.650   6.282  64.741  1.00  0.00    -0.093 A  
HETATM   33  H   UNL     1      -5.650   9.651  64.254  1.00  0.00     0.000 HD 
ENDBRANCH  17  20
ENDBRANCH  16  17
ENDBRANCH  14  16
ENDBRANCH  10  14
ENDBRANCH   2   3
TORSDOF 6
ENDMDL
MODEL      336
REMARK 921   NORMALIZED FREE ENERGY PREDICTED BY IDOCK:   -2.77 KCAL/MOL
REMARK 922        TOTAL FREE ENERGY PREDICTED BY IDOCK:   -5.02 KCAL/MOL
REMARK 923 INTER-LIGAND FREE ENERGY PREDICTED BY IDOCK:   -5.88 KCAL/MOL
REMARK 924 INTRA-LIGAND FREE ENERGY PREDICTED BY IDOCK:    0.87 KCAL/MOL
REMARK 927      BINDING AFFINITY PREDICTED BY RF-SCORE:    0.00 PKD
ROOT
HETATM    1  C   UNL     1     -10.675  16.056  65.440  1.00  0.00    -0.399 C  
HETATM    2  C   UNL     1     -10.541  15.518  66.855  1.00  0.00    -0.307 C  
ENDROOT
BRANCH   2   3
HETATM    3  C   UNL     1     -10.600  14.018  67.072  1.00  0.00    -0.279 A  
HETATM    4  C   UNL     1     -11.254  13.555  68.251  1.00  0.00    -0.305 A  
HETATM    5  C   UNL     1     -11.684  12.229  68.319  1.00  0.00    -0.392 A  
HETATM    6  C   UNL     1      -9.963  13.067  66.248  1.00  0.00    -0.283 A  
HETATM    7  C   UNL     1     -10.134  11.722  66.560  1.00  0.00    -0.232 A  
HETATM    8  C   UNL     1     -11.168  11.329  67.413  1.00  0.00    -0.370 A  
HETATM    9  C   UNL     1     -11.113   9.852  67.646  1.00  0.00    -0.170 C  
HETATM   10  C   UNL     1      -9.587   9.798  67.835  1.00  0.00    -0.138 C  
HETATM   11  C   UNL     1      -9.123  10.561  66.510  1.00  0.00    -0.175 C  
BRANCH   4  12
HETATM   12  C   UNL     1     -11.257  14.432  69.494  1.00  0.00    -0.294 C  
HETATM   13  C   UNL     1     -11.676  15.889  69.306  1.00  0.00    -0.360 C  
ENDBRANCH   4  12
BRANCH  10  14
HETATM   14  N   UNL     1      -9.076   8.493  68.303  1.00  0.00    -0.139 NA 
HETATM   15  H   UNL     1      -9.315   8.312  69.277  1.00  0.00     0.000 HD 
BRANCH  14  16
HETATM   16  C   UNL     1      -9.568   7.401  67.381  1.00  0.00    -0.148 C  
BRANCH  16  17
HETATM   17  C   UNL     1     -10.321   6.219  68.052  1.00  0.00    -0.192 C  
HETATM   18  H   UNL     1     -12.014   6.007  68.996  1.00  0.00     0.000 HD 
HETATM   19  O   UNL     1     -11.554   6.731  68.586  1.00  0.00     0.023 OA 
BRANCH  17  20
HETATM   20  C   UNL     1      -9.533   5.485  69.156  1.00  0.00    -0.169 A  
HETATM   21  C   UNL     1      -9.546   5.896  70.511  1.00  0.00    -0.208 A  
HETATM   22  C   UNL     1     -10.454   6.933  71.023  1.00  0.00    -0.235 C  
HETATM   23  C   UNL     1     -10.399   7.348  72.295  1.00  0.00    -0.251 C  
HETATM   24  C   UNL     1      -9.390   6.798  73.237  1.00  0.00    -0.136 C  
HETATM   25  N   UNL     1      -8.596   5.790  72.769  1.00  0.00    -0.119 N  
HETATM   26  O   UNL     1      -9.295   7.226  74.375  1.00  0.00    -0.210 OA 
HETATM   27  H   UNL     1      -7.921   5.372  73.409  1.00  0.00     0.000 HD 
HETATM   28  C   UNL     1      -8.656   5.296  71.449  1.00  0.00    -0.129 A  
HETATM   29  C   UNL     1      -7.812   4.253  71.058  1.00  0.00    -0.067 A  
HETATM   30  C   UNL     1      -7.838   3.798  69.750  1.00  0.00    -0.051 A  
HETATM   31  O   UNL     1      -6.948   3.624  71.913  1.00  0.00    -0.029 OA 
HETATM   32  C   UNL     1      -8.690   4.399  68.815  1.00  0.00    -0.120 A  
HETATM   33  H   UNL     1      -6.374   2.916  71.647  1.00  0.00     0.000 HD 
ENDBRANCH  17  20
ENDBRANCH  16  17
ENDBRANCH  14  16
ENDBRANCH  10  14
ENDBRANCH   2   3
TORSDOF 6
ENDMDL
MODEL      337
REMARK 921   NORMALIZED FREE ENERGY PREDICTED BY IDOCK:   -2.74 KCAL/MOL
REMARK 922        TOTAL FREE ENERGY PREDICTED BY IDOCK:   -4.98 KCAL/MOL
REMARK 923 INTER-LIGAND FREE ENERGY PREDICTED BY IDOCK:   -4.81 KCAL/MOL
REMARK 924 INTRA-LIGAND FREE ENERGY PREDICTED BY IDOCK:   -0.17 KCAL/MOL
REMARK 927      BINDING AFFINITY PREDICTED BY RF-SCORE:    0.00 PKD
ROOT
HETATM    1  C   UNL     1      -8.645   2.437  70.643  1.00  0.00    -0.100 C  
HETATM    2  C   UNL     1      -8.223   3.187  71.896  1.00  0.00    -0.060 C  
ENDROOT
BRANCH   2   3
HETATM    3  C   UNL     1      -7.835   4.649  71.774  1.00  0.00    -0.098 A  
HETATM    4  C   UNL     1      -8.870   5.614  71.943  1.00  0.00    -0.137 A  
HETATM    5  C   UNL     1      -8.531   6.937  72.232  1.00  0.00    -0.111 A  
HETATM    6  C   UNL     1      -6.555   5.105  71.399  1.00  0.00    -0.036 A  
HETATM    7  C   UNL     1      -6.344   6.480  71.360  1.00  0.00    -0.042 A  
HETATM    8  C   UNL     1      -7.234   7.342  72.003  1.00  0.00    -0.067 A  
HETATM    9  C   UNL     1      -6.836   8.765  71.770  1.00  0.00    -0.073 C  
HETATM   10  C   UNL     1      -6.529   8.581  70.275  1.00  0.00    -0.038 C  
HETATM   11  C   UNL     1      -5.543   7.327  70.353  1.00  0.00    -0.024 C  
BRANCH   4  12
HETATM   12  C   UNL     1     -10.299   5.248  71.574  1.00  0.00    -0.287 C  
HETATM   13  C   UNL     1     -11.412   5.999  72.304  1.00  0.00    -0.364 C  
ENDBRANCH   4  12
BRANCH  10  14
HETATM   14  N   UNL     1      -6.269   9.839  69.545  1.00  0.00    -0.043 NA 
HETATM   15  H   UNL     1      -5.816   9.677  68.646  1.00  0.00     0.000 HD 
BRANCH  14  16
HETATM   16  C   UNL     1      -7.560  10.613  69.403  1.00  0.00    -0.134 C  
BRANCH  16  17
HETATM   17  C   UNL     1      -8.240  10.571  68.007  1.00  0.00    -0.112 C  
HETATM   18  H   UNL     1      -7.627  10.678  66.159  1.00  0.00     0.000 HD 
HETATM   19  O   UNL     1      -7.210  10.703  67.013  1.00  0.00    -0.093 OA 
BRANCH  17  20
HETATM   20  C   UNL     1      -9.331  11.638  67.779  1.00  0.00    -0.178 A  
HETATM   21  C   UNL     1      -9.135  13.010  68.072  1.00  0.00    -0.210 A  
HETATM   22  C   UNL     1      -7.826  13.571  68.433  1.00  0.00    -0.143 C  
HETATM   23  C   UNL     1      -7.684  14.861  68.768  1.00  0.00    -0.139 C  
HETATM   24  C   UNL     1      -8.856  15.772  68.820  1.00  0.00    -0.207 C  
HETATM   25  N   UNL     1     -10.056  15.256  68.421  1.00  0.00    -0.217 N  
HETATM   26  O   UNL     1      -8.737  16.928  69.192  1.00  0.00    -0.193 OA 
HETATM   27  H   UNL     1     -10.867  15.874  68.413  1.00  0.00     0.000 HD 
HETATM   28  C   UNL     1     -10.235  13.916  68.018  1.00  0.00    -0.246 A  
HETATM   29  C   UNL     1     -11.497  13.475  67.613  1.00  0.00    -0.318 A  
HETATM   30  C   UNL     1     -11.685  12.148  67.261  1.00  0.00    -0.369 A  
HETATM   31  O   UNL     1     -12.588  14.296  67.524  1.00  0.00    -0.513 OA 
HETATM   32  C   UNL     1     -10.617  11.245  67.336  1.00  0.00    -0.262 A  
HETATM   33  H   UNL     1     -13.447  13.997  67.249  1.00  0.00     0.000 HD 
ENDBRANCH  17  20
ENDBRANCH  16  17
ENDBRANCH  14  16
ENDBRANCH  10  14
ENDBRANCH   2   3
TORSDOF 6
ENDMDL
MODEL      338
REMARK 921   NORMALIZED FREE ENERGY PREDICTED BY IDOCK:   -2.64 KCAL/MOL
REMARK 922        TOTAL FREE ENERGY PREDICTED BY IDOCK:   -4.84 KCAL/MOL
REMARK 923 INTER-LIGAND FREE ENERGY PREDICTED BY IDOCK:   -3.82 KCAL/MOL
REMARK 924 INTRA-LIGAND FREE ENERGY PREDICTED BY IDOCK:   -1.02 KCAL/MOL
REMARK 927      BINDING AFFINITY PREDICTED BY RF-SCORE:    0.00 PKD
ROOT
HETATM    1  C   UNL     1      -7.891   2.193  68.550  1.00  0.00    -0.057 C  
HETATM    2  C   UNL     1      -6.842   3.266  68.310  1.00  0.00    -0.049 C  
ENDROOT
BRANCH   2   3
HETATM    3  C   UNL     1      -7.208   4.715  68.571  1.00  0.00    -0.057 A  
HETATM    4  C   UNL     1      -7.397   5.554  67.434  1.00  0.00    -0.076 A  
HETATM    5  C   UNL     1      -8.100   6.751  67.577  1.00  0.00    -0.115 A  
HETATM    6  C   UNL     1      -7.267   5.305  69.850  1.00  0.00    -0.063 A  
HETATM    7  C   UNL     1      -7.648   6.641  69.930  1.00  0.00    -0.100 A  
HETATM    8  C   UNL     1      -8.285   7.252  68.848  1.00  0.00    -0.125 A  
HETATM    9  C   UNL     1      -8.540   8.695  69.145  1.00  0.00    -0.129 C  
HETATM   10  C   UNL     1      -7.157   8.955  69.766  1.00  0.00    -0.054 C  
HETATM   11  C   UNL     1      -7.112   7.768  70.833  1.00  0.00    -0.053 C  
BRANCH   4  12
HETATM   12  C   UNL     1      -6.634   5.257  66.153  1.00  0.00    -0.048 C  
HETATM   13  C   UNL     1      -7.422   4.602  65.019  1.00  0.00    -0.076 C  
ENDBRANCH   4  12
BRANCH  10  14
HETATM   14  N   UNL     1      -6.871  10.378  70.046  1.00  0.00    -0.141 NA 
HETATM   15  H   UNL     1      -6.804  10.569  71.045  1.00  0.00     0.000 HD 
BRANCH  14  16
HETATM   16  C   UNL     1      -5.625  10.794  69.300  1.00  0.00    -0.041 C  
BRANCH  16  17
HETATM   17  C   UNL     1      -5.839  11.654  68.023  1.00  0.00    -0.044 C  
HETATM   18  H   UNL     1      -6.342  13.504  67.663  1.00  0.00     0.000 HD 
HETATM   19  O   UNL     1      -6.211  12.978  68.444  1.00  0.00    -0.070 OA 
BRANCH  17  20
HETATM   20  C   UNL     1      -6.885  11.104  67.033  1.00  0.00    -0.119 A  
HETATM   21  C   UNL     1      -8.215  11.585  66.975  1.00  0.00    -0.167 A  
HETATM   22  C   UNL     1      -8.668  12.774  67.711  1.00  0.00    -0.184 C  
HETATM   23  C   UNL     1      -9.948  13.168  67.690  1.00  0.00    -0.219 C  
HETATM   24  C   UNL     1     -10.975  12.396  66.943  1.00  0.00    -0.265 C  
HETATM   25  N   UNL     1     -10.532  11.331  66.211  1.00  0.00    -0.251 N  
HETATM   26  O   UNL     1     -12.151  12.716  66.981  1.00  0.00    -0.480 OA 
HETATM   27  H   UNL     1     -11.213  10.809  65.661  1.00  0.00     0.000 HD 
HETATM   28  C   UNL     1      -9.185  10.915  66.173  1.00  0.00    -0.184 A  
HETATM   29  C   UNL     1      -8.818   9.819  65.387  1.00  0.00    -0.169 A  
HETATM   30  C   UNL     1      -7.504   9.380  65.384  1.00  0.00    -0.099 A  
HETATM   31  O   UNL     1      -9.696   9.143  64.583  1.00  0.00    -0.299 OA 
HETATM   32  C   UNL     1      -6.551  10.016  66.189  1.00  0.00    -0.088 A  
HETATM   33  H   UNL     1      -9.447   8.398  64.049  1.00  0.00     0.000 HD 
ENDBRANCH  17  20
ENDBRANCH  16  17
ENDBRANCH  14  16
ENDBRANCH  10  14
ENDBRANCH   2   3
TORSDOF 6
ENDMDL
MODEL      339
REMARK 921   NORMALIZED FREE ENERGY PREDICTED BY IDOCK:   -2.48 KCAL/MOL
REMARK 922        TOTAL FREE ENERGY PREDICTED BY IDOCK:   -4.63 KCAL/MOL
REMARK 923 INTER-LIGAND FREE ENERGY PREDICTED BY IDOCK:   -5.28 KCAL/MOL
REMARK 924 INTRA-LIGAND FREE ENERGY PREDICTED BY IDOCK:    0.65 KCAL/MOL
REMARK 927      BINDING AFFINITY PREDICTED BY RF-SCORE:    0.00 PKD
ROOT
HETATM    1  C   UNL     1     -10.354  18.988  68.129  1.00  0.00    -0.446 C  
HETATM    2  C   UNL     1      -8.849  19.106  68.310  1.00  0.00    -0.377 C  
ENDROOT
BRANCH   2   3
HETATM    3  C   UNL     1      -8.013  17.841  68.304  1.00  0.00    -0.282 A  
HETATM    4  C   UNL     1      -6.801  17.865  67.555  1.00  0.00    -0.192 A  
HETATM    5  C   UNL     1      -5.817  16.910  67.816  1.00  0.00    -0.148 A  
HETATM    6  C   UNL     1      -8.407  16.622  68.894  1.00  0.00    -0.230 A  
HETATM    7  C   UNL     1      -7.516  15.555  68.830  1.00  0.00    -0.158 A  
HETATM    8  C   UNL     1      -6.173  15.783  68.525  1.00  0.00    -0.105 A  
HETATM    9  C   UNL     1      -5.431  14.487  68.455  1.00  0.00    -0.099 C  
HETATM   10  C   UNL     1      -6.522  13.744  67.666  1.00  0.00    -0.150 C  
HETATM   11  C   UNL     1      -7.786  14.058  68.590  1.00  0.00    -0.135 C  
BRANCH   4  12
HETATM   12  C   UNL     1      -6.696  18.765  66.334  1.00  0.00    -0.234 C  
HETATM   13  C   UNL     1      -7.966  19.507  65.917  1.00  0.00    -0.233 C  
ENDBRANCH   4  12
BRANCH  10  14
HETATM   14  N   UNL     1      -6.121  12.409  67.177  1.00  0.00    -0.312 NA 
HETATM   15  H   UNL     1      -5.653  11.858  67.896  1.00  0.00     0.000 HD 
BRANCH  14  16
HETATM   16  C   UNL     1      -7.328  11.700  66.608  1.00  0.00    -0.028 C  
BRANCH  16  17
HETATM   17  C   UNL     1      -7.185  10.170  66.378  1.00  0.00    -0.108 C  
HETATM   18  H   UNL     1      -7.168   8.995  64.821  1.00  0.00     0.000 HD 
HETATM   19  O   UNL     1      -7.255   9.931  64.962  1.00  0.00    -0.121 OA 
BRANCH  17  20
HETATM   20  C   UNL     1      -8.226   9.298  67.110  1.00  0.00    -0.117 A  
HETATM   21  C   UNL     1      -8.012   8.773  68.407  1.00  0.00    -0.109 A  
HETATM   22  C   UNL     1      -6.873   9.165  69.250  1.00  0.00    -0.049 C  
HETATM   23  C   UNL     1      -6.660   8.603  70.447  1.00  0.00    -0.037 C  
HETATM   24  C   UNL     1      -7.553   7.532  70.961  1.00  0.00    -0.084 C  
HETATM   25  N   UNL     1      -8.643   7.222  70.199  1.00  0.00    -0.138 N  
HETATM   26  O   UNL     1      -7.318   6.973  72.019  1.00  0.00    -0.080 OA 
HETATM   27  H   UNL     1      -9.290   6.516  70.549  1.00  0.00     0.000 HD 
HETATM   28  C   UNL     1      -8.925   7.825  68.955  1.00  0.00    -0.145 A  
HETATM   29  C   UNL     1     -10.072   7.455  68.248  1.00  0.00    -0.177 A  
HETATM   30  C   UNL     1     -10.326   8.012  67.004  1.00  0.00    -0.414 A  
HETATM   31  O   UNL     1     -10.995   6.564  68.724  1.00  0.00    -0.292 OA 
HETATM   32  C   UNL     1      -9.421   8.925  66.447  1.00  0.00    -0.283 A  
HETATM   33  H   UNL     1     -11.774   6.312  68.243  1.00  0.00     0.000 HD 
ENDBRANCH  17  20
ENDBRANCH  16  17
ENDBRANCH  14  16
ENDBRANCH  10  14
ENDBRANCH   2   3
TORSDOF 6
ENDMDL
MODEL      340
REMARK 921   NORMALIZED FREE ENERGY PREDICTED BY IDOCK:   -2.45 KCAL/MOL
REMARK 922        TOTAL FREE ENERGY PREDICTED BY IDOCK:   -4.59 KCAL/MOL
REMARK 923 INTER-LIGAND FREE ENERGY PREDICTED BY IDOCK:   -5.07 KCAL/MOL
REMARK 924 INTRA-LIGAND FREE ENERGY PREDICTED BY IDOCK:    0.48 KCAL/MOL
REMARK 927      BINDING AFFINITY PREDICTED BY RF-SCORE:    0.00 PKD
ROOT
HETATM    1  C   UNL     1      -9.363  17.280  66.505  1.00  0.00    -0.283 C  
HETATM    2  C   UNL     1     -10.080  16.744  67.733  1.00  0.00    -0.281 C  
ENDROOT
BRANCH   2   3
HETATM    3  C   UNL     1     -10.381  15.259  67.810  1.00  0.00    -0.244 A  
HETATM    4  C   UNL     1     -10.926  14.768  69.032  1.00  0.00    -0.257 A  
HETATM    5  C   UNL     1     -11.578  13.533  69.042  1.00  0.00    -0.356 A  
HETATM    6  C   UNL     1     -10.059  14.327  66.803  1.00  0.00    -0.264 A  
HETATM    7  C   UNL     1     -10.426  13.001  67.007  1.00  0.00    -0.249 A  
HETATM    8  C   UNL     1     -11.376  12.680  67.979  1.00  0.00    -0.337 A  
HETATM    9  C   UNL     1     -11.560  11.198  68.055  1.00  0.00    -0.337 C  
HETATM   10  C   UNL     1     -10.060  10.868  67.978  1.00  0.00    -0.177 C  
HETATM   11  C   UNL     1      -9.665  11.703  66.675  1.00  0.00    -0.221 C  
BRANCH   4  12
HETATM   12  C   UNL     1     -10.584  15.469  70.337  1.00  0.00    -0.294 C  
HETATM   13  C   UNL     1     -11.637  15.414  71.444  1.00  0.00    -0.461 C  
ENDBRANCH   4  12
BRANCH  10  14
HETATM   14  N   UNL     1      -9.733   9.449  68.225  1.00  0.00    -0.143 NA 
HETATM   15  H   UNL     1      -8.975   9.338  68.898  1.00  0.00     0.000 HD 
BRANCH  14  16
HETATM   16  C   UNL     1     -10.984   8.712  68.647  1.00  0.00     0.163 C  
BRANCH  16  17
HETATM   17  C   UNL     1     -11.123   7.247  68.149  1.00  0.00     0.111 C  
HETATM   18  H   UNL     1     -11.925   5.612  68.849  1.00  0.00     0.000 HD 
HETATM   19  O   UNL     1     -11.840   6.508  69.154  1.00  0.00    -0.065 OA 
BRANCH  17  20
HETATM   20  C   UNL     1      -9.793   6.537  67.824  1.00  0.00    -0.139 A  
HETATM   21  C   UNL     1      -9.212   5.567  68.677  1.00  0.00    -0.140 A  
HETATM   22  C   UNL     1      -9.909   5.009  69.844  1.00  0.00    -0.296 C  
HETATM   23  C   UNL     1      -9.311   4.141  70.671  1.00  0.00    -0.218 C  
HETATM   24  C   UNL     1      -7.898   3.731  70.459  1.00  0.00    -0.050 C  
HETATM   25  N   UNL     1      -7.282   4.206  69.337  1.00  0.00    -0.050 N  
HETATM   26  O   UNL     1      -7.332   2.996  71.251  1.00  0.00    -0.032 OA 
HETATM   27  H   UNL     1      -6.324   3.908  69.151  1.00  0.00     0.000 HD 
HETATM   28  C   UNL     1      -7.895   5.084  68.420  1.00  0.00    -0.082 A  
HETATM   29  C   UNL     1      -7.193   5.511  67.290  1.00  0.00    -0.075 A  
HETATM   30  C   UNL     1      -7.777   6.410  66.412  1.00  0.00    -0.099 A  
HETATM   31  O   UNL     1      -5.934   5.074  66.976  1.00  0.00    -0.025 OA 
HETATM   32  C   UNL     1      -9.060   6.910  66.671  1.00  0.00    -0.172 A  
HETATM   33  H   UNL     1      -5.456   5.364  66.209  1.00  0.00     0.000 HD 
ENDBRANCH  17  20
ENDBRANCH  16  17
ENDBRANCH  14  16
ENDBRANCH  10  14
ENDBRANCH   2   3
TORSDOF 6
ENDMDL
MODEL      341
REMARK 921   NORMALIZED FREE ENERGY PREDICTED BY IDOCK:   -2.37 KCAL/MOL
REMARK 922        TOTAL FREE ENERGY PREDICTED BY IDOCK:   -4.49 KCAL/MOL
REMARK 923 INTER-LIGAND FREE ENERGY PREDICTED BY IDOCK:   -3.87 KCAL/MOL
REMARK 924 INTRA-LIGAND FREE ENERGY PREDICTED BY IDOCK:   -0.62 KCAL/MOL
REMARK 927      BINDING AFFINITY PREDICTED BY RF-SCORE:    0.00 PKD
ROOT
HETATM    1  C   UNL     1     -10.146  15.696  64.896  1.00  0.00     0.086 C  
HETATM    2  C   UNL     1      -9.808  15.090  66.248  1.00  0.00    -0.307 C  
ENDROOT
BRANCH   2   3
HETATM    3  C   UNL     1      -9.479  13.611  66.322  1.00  0.00    -0.209 A  
HETATM    4  C   UNL     1     -10.574  12.702  66.387  1.00  0.00    -0.272 A  
HETATM    5  C   UNL     1     -10.369  11.359  66.065  1.00  0.00    -0.297 A  
HETATM    6  C   UNL     1      -8.174  13.090  66.439  1.00  0.00     0.610 A  
HETATM    7  C   UNL     1      -8.030  11.706  66.466  1.00  0.00    -0.053 A  
HETATM    8  C   UNL     1      -9.075  10.886  66.036  1.00  0.00    -0.208 A  
HETATM    9  C   UNL     1      -8.711   9.447  66.214  1.00  0.00    -0.157 C  
HETATM   10  C   UNL     1      -8.097   9.631  67.612  1.00  0.00    -0.113 C  
HETATM   11  C   UNL     1      -7.085  10.829  67.308  1.00  0.00    -0.091 C  
BRANCH   4  12
HETATM   12  C   UNL     1     -11.878  13.149  67.029  1.00  0.00    -0.435 C  
HETATM   13  C   UNL     1     -12.039  12.868  68.523  1.00  0.00    -0.158 C  
ENDBRANCH   4  12
BRANCH  10  14
HETATM   14  N   UNL     1      -7.759   8.369  68.303  1.00  0.00    -0.104 NA 
HETATM   15  H   UNL     1      -8.048   8.374  69.280  1.00  0.00     0.000 HD 
BRANCH  14  16
HETATM   16  C   UNL     1      -8.347   7.206  67.538  1.00  0.00    -0.116 C  
BRANCH  16  17
HETATM   17  C   UNL     1      -9.257   6.239  68.345  1.00  0.00    -0.112 C  
HETATM   18  H   UNL     1     -11.145   5.748  68.302  1.00  0.00     0.000 HD 
HETATM   19  O   UNL     1     -10.588   6.339  67.808  1.00  0.00    -0.197 OA 
BRANCH  17  20
HETATM   20  C   UNL     1      -9.285   6.484  69.867  1.00  0.00    -0.149 A  
HETATM   21  C   UNL     1     -10.195   7.376  70.485  1.00  0.00    -0.196 A  
HETATM   22  C   UNL     1     -11.316   7.999  69.766  1.00  0.00     0.120 C  
HETATM   23  C   UNL     1     -12.122   8.889  70.360  1.00  0.00     0.184 C  
HETATM   24  C   UNL     1     -11.895   9.310  71.767  1.00  0.00    -0.384 C  
HETATM   25  N   UNL     1     -10.891   8.677  72.443  1.00  0.00    -0.311 N  
HETATM   26  O   UNL     1     -12.586  10.172  72.284  1.00  0.00    -0.255 OA 
HETATM   27  H   UNL     1     -10.740   8.924  73.422  1.00  0.00     0.000 HD 
HETATM   28  C   UNL     1     -10.052   7.703  71.865  1.00  0.00    -0.178 A  
HETATM   29  C   UNL     1      -9.056   7.097  72.636  1.00  0.00    -0.134 A  
HETATM   30  C   UNL     1      -8.200   6.173  72.058  1.00  0.00    -0.110 A  
HETATM   31  O   UNL     1      -8.875   7.354  73.968  1.00  0.00    -0.196 OA 
HETATM   32  C   UNL     1      -8.317   5.866  70.696  1.00  0.00    -0.124 A  
HETATM   33  H   UNL     1      -8.198   6.943  74.493  1.00  0.00     0.000 HD 
ENDBRANCH  17  20
ENDBRANCH  16  17
ENDBRANCH  14  16
ENDBRANCH  10  14
ENDBRANCH   2   3
TORSDOF 6
ENDMDL
MODEL      342
REMARK 921   NORMALIZED FREE ENERGY PREDICTED BY IDOCK:   -2.18 KCAL/MOL
REMARK 922        TOTAL FREE ENERGY PREDICTED BY IDOCK:   -4.22 KCAL/MOL
REMARK 923 INTER-LIGAND FREE ENERGY PREDICTED BY IDOCK:   -4.30 KCAL/MOL
REMARK 924 INTRA-LIGAND FREE ENERGY PREDICTED BY IDOCK:    0.07 KCAL/MOL
REMARK 927      BINDING AFFINITY PREDICTED BY RF-SCORE:    0.00 PKD
ROOT
HETATM    1  C   UNL     1     -10.660  15.955  65.450  1.00  0.00    -0.439 C  
HETATM    2  C   UNL     1     -10.554  15.381  66.853  1.00  0.00    -0.309 C  
ENDROOT
BRANCH   2   3
HETATM    3  C   UNL     1     -10.677  13.881  67.038  1.00  0.00    -0.283 A  
HETATM    4  C   UNL     1     -11.383  13.421  68.187  1.00  0.00    -0.321 A  
HETATM    5  C   UNL     1     -11.866  12.111  68.215  1.00  0.00    -0.361 A  
HETATM    6  C   UNL     1     -10.052  12.922  66.213  1.00  0.00    -0.281 A  
HETATM    7  C   UNL     1     -10.284  11.579  66.492  1.00  0.00    -0.253 A  
HETATM    8  C   UNL     1     -11.357  11.209  67.306  1.00  0.00    -0.302 A  
HETATM    9  C   UNL     1     -11.366   9.728  67.510  1.00  0.00     0.353 C  
HETATM   10  C   UNL     1      -9.850   9.611  67.742  1.00  0.00    -0.159 C  
HETATM   11  C   UNL     1      -9.317  10.381  66.448  1.00  0.00    -0.197 C  
BRANCH   4  12
HETATM   12  C   UNL     1     -11.391  14.272  69.447  1.00  0.00    -0.325 C  
HETATM   13  C   UNL     1     -12.256  15.532  69.420  1.00  0.00    -0.233 C  
ENDBRANCH   4  12
BRANCH  10  14
HETATM   14  N   UNL     1      -9.403   8.278  68.198  1.00  0.00    -0.134 NA 
HETATM   15  H   UNL     1      -9.287   7.624  67.425  1.00  0.00     0.000 HD 
BRANCH  14  16
HETATM   16  C   UNL     1      -8.140   8.426  69.016  1.00  0.00    -0.116 C  
BRANCH  16  17
HETATM   17  C   UNL     1      -6.938   7.534  68.598  1.00  0.00    -0.079 C  
HETATM   18  H   UNL     1      -5.003   7.762  68.512  1.00  0.00     0.000 HD 
HETATM   19  O   UNL     1      -5.738   8.307  68.768  1.00  0.00    -0.038 OA 
BRANCH  17  20
HETATM   20  C   UNL     1      -7.006   6.977  67.161  1.00  0.00    -0.078 A  
HETATM   21  C   UNL     1      -6.462   7.661  66.047  1.00  0.00    -0.042 A  
HETATM   22  C   UNL     1      -5.621   8.859  66.176  1.00  0.00    -0.042 C  
HETATM   23  C   UNL     1      -5.174   9.523  65.102  1.00  0.00    -0.044 C  
HETATM   24  C   UNL     1      -5.541   9.092  63.728  1.00  0.00    -0.066 C  
HETATM   25  N   UNL     1      -6.269   7.941  63.618  1.00  0.00    -0.062 N  
HETATM   26  O   UNL     1      -5.192   9.737  62.753  1.00  0.00    -0.083 OA 
HETATM   27  H   UNL     1      -6.501   7.606  62.683  1.00  0.00     0.000 HD 
HETATM   28  C   UNL     1      -6.718   7.191  64.725  1.00  0.00    -0.046 A  
HETATM   29  C   UNL     1      -7.448   6.018  64.519  1.00  0.00    -0.081 A  
HETATM   30  C   UNL     1      -7.929   5.304  65.605  1.00  0.00    -0.106 A  
HETATM   31  O   UNL     1      -7.714   5.505  63.278  1.00  0.00    -0.070 OA 
HETATM   32  C   UNL     1      -7.706   5.772  66.906  1.00  0.00    -0.101 A  
HETATM   33  H   UNL     1      -8.211   4.708  63.138  1.00  0.00     0.000 HD 
ENDBRANCH  17  20
ENDBRANCH  16  17
ENDBRANCH  14  16
ENDBRANCH  10  14
ENDBRANCH   2   3
TORSDOF 6
ENDMDL
MODEL      343
REMARK 921   NORMALIZED FREE ENERGY PREDICTED BY IDOCK:   -2.05 KCAL/MOL
REMARK 922        TOTAL FREE ENERGY PREDICTED BY IDOCK:   -4.05 KCAL/MOL
REMARK 923 INTER-LIGAND FREE ENERGY PREDICTED BY IDOCK:   -4.22 KCAL/MOL
REMARK 924 INTRA-LIGAND FREE ENERGY PREDICTED BY IDOCK:    0.17 KCAL/MOL
REMARK 927      BINDING AFFINITY PREDICTED BY RF-SCORE:    0.00 PKD
ROOT
HETATM    1  C   UNL     1      -9.693  16.980  66.743  1.00  0.00    -0.276 C  
HETATM    2  C   UNL     1     -10.374  16.123  67.797  1.00  0.00    -0.283 C  
ENDROOT
BRANCH   2   3
HETATM    3  C   UNL     1     -10.348  14.614  67.638  1.00  0.00    -0.233 A  
HETATM    4  C   UNL     1     -10.847  13.835  68.722  1.00  0.00    -0.281 A  
HETATM    5  C   UNL     1     -11.212  12.507  68.499  1.00  0.00    -0.322 A  
HETATM    6  C   UNL     1      -9.768  13.938  66.544  1.00  0.00    -0.303 A  
HETATM    7  C   UNL     1      -9.849  12.550  66.526  1.00  0.00    -0.251 A  
HETATM    8  C   UNL     1     -10.764  11.891  67.350  1.00  0.00    -0.271 A  
HETATM    9  C   UNL     1     -10.624  10.410  67.200  1.00  0.00    -0.319 C  
HETATM   10  C   UNL     1      -9.086  10.414  67.219  1.00  0.00    -0.135 C  
HETATM   11  C   UNL     1      -8.804  11.506  66.088  1.00  0.00    -0.167 C  
BRANCH   4  12
HETATM   12  C   UNL     1     -10.747  14.380  70.138  1.00  0.00     0.203 C  
HETATM   13  C   UNL     1     -11.605  13.693  71.201  1.00  0.00     0.664 C  
ENDBRANCH   4  12
BRANCH  10  14
HETATM   14  N   UNL     1      -8.473   9.072  67.294  1.00  0.00    -0.114 NA 
HETATM   15  H   UNL     1      -7.547   9.093  67.722  1.00  0.00     0.000 HD 
BRANCH  14  16
HETATM   16  C   UNL     1      -9.412   8.130  68.013  1.00  0.00    -0.143 C  
BRANCH  16  17
HETATM   17  C   UNL     1      -8.774   6.855  68.630  1.00  0.00    -0.122 C  
HETATM   18  H   UNL     1      -9.246   4.964  68.707  1.00  0.00     0.000 HD 
HETATM   19  O   UNL     1      -9.636   5.744  68.330  1.00  0.00    -0.115 OA 
BRANCH  17  20
HETATM   20  C   UNL     1      -8.513   6.923  70.148  1.00  0.00    -0.140 A  
HETATM   21  C   UNL     1      -9.001   5.952  71.055  1.00  0.00    -0.148 A  
HETATM   22  C   UNL     1      -9.630   4.697  70.620  1.00  0.00    -0.261 C  
HETATM   23  C   UNL     1     -10.142   3.826  71.500  1.00  0.00    -0.126 C  
HETATM   24  C   UNL     1     -10.124   4.111  72.958  1.00  0.00    -0.154 C  
HETATM   25  N   UNL     1      -9.480   5.248  73.355  1.00  0.00    -0.137 N  
HETATM   26  O   UNL     1     -10.651   3.351  73.753  1.00  0.00    -0.159 OA 
HETATM   27  H   UNL     1      -9.423   5.445  74.354  1.00  0.00     0.000 HD 
HETATM   28  C   UNL     1      -8.890   6.165  72.460  1.00  0.00    -0.124 A  
HETATM   29  C   UNL     1      -8.241   7.299  72.955  1.00  0.00    -0.109 A  
HETATM   30  C   UNL     1      -7.701   8.225  72.077  1.00  0.00    -0.153 A  
HETATM   31  O   UNL     1      -8.086   7.554  74.291  1.00  0.00    -0.151 OA 
HETATM   32  C   UNL     1      -7.829   8.037  70.695  1.00  0.00    -0.091 A  
HETATM   33  H   UNL     1      -7.645   8.326  74.628  1.00  0.00     0.000 HD 
ENDBRANCH  17  20
ENDBRANCH  16  17
ENDBRANCH  14  16
ENDBRANCH  10  14
ENDBRANCH   2   3
TORSDOF 6
ENDMDL
MODEL      344
REMARK 921   NORMALIZED FREE ENERGY PREDICTED BY IDOCK:   -2.05 KCAL/MOL
REMARK 922        TOTAL FREE ENERGY PREDICTED BY IDOCK:   -4.04 KCAL/MOL
REMARK 923 INTER-LIGAND FREE ENERGY PREDICTED BY IDOCK:   -3.77 KCAL/MOL
REMARK 924 INTRA-LIGAND FREE ENERGY PREDICTED BY IDOCK:   -0.27 KCAL/MOL
REMARK 927      BINDING AFFINITY PREDICTED BY RF-SCORE:    0.00 PKD
ROOT
HETATM    1  C   UNL     1      -6.769  12.272  67.388  1.00  0.00    -0.150 C  
HETATM    2  C   UNL     1      -6.218  11.028  68.064  1.00  0.00    -0.053 C  
ENDROOT
BRANCH   2   3
HETATM    3  C   UNL     1      -6.525   9.672  67.457  1.00  0.00    -0.069 A  
HETATM    4  C   UNL     1      -7.691   9.571  66.643  1.00  0.00    -0.098 A  
HETATM    5  C   UNL     1      -7.817   8.499  65.758  1.00  0.00    -0.100 A  
HETATM    6  C   UNL     1      -5.801   8.494  67.730  1.00  0.00    -0.043 A  
HETATM    7  C   UNL     1      -6.186   7.330  67.072  1.00  0.00    -0.046 A  
HETATM    8  C   UNL     1      -7.000   7.404  65.940  1.00  0.00    -0.061 A  
HETATM    9  C   UNL     1      -7.328   6.031  65.447  1.00  0.00    -0.076 C  
HETATM   10  C   UNL     1      -7.608   5.446  66.841  1.00  0.00    -0.089 C  
HETATM   11  C   UNL     1      -6.268   5.882  67.592  1.00  0.00    -0.033 C  
BRANCH   4  12
HETATM   12  C   UNL     1      -8.874  10.485  66.919  1.00  0.00    -0.143 C  
HETATM   13  C   UNL     1     -10.211  10.089  66.292  1.00  0.00    -0.285 C  
ENDBRANCH   4  12
BRANCH  10  14
HETATM   14  N   UNL     1      -8.186   4.086  66.829  1.00  0.00    -0.100 NA 
HETATM   15  H   UNL     1      -7.889   3.533  67.632  1.00  0.00     0.000 HD 
BRANCH  14  16
HETATM   16  C   UNL     1      -9.691   4.182  66.726  1.00  0.00    -0.210 C  
BRANCH  16  17
HETATM   17  C   UNL     1     -10.393   5.133  67.734  1.00  0.00    -0.094 C  
HETATM   18  H   UNL     1     -10.749   7.048  67.819  1.00  0.00     0.000 HD 
HETATM   19  O   UNL     1     -10.320   6.467  67.202  1.00  0.00    -0.174 OA 
BRANCH  17  20
HETATM   20  C   UNL     1      -9.820   5.106  69.166  1.00  0.00    -0.257 A  
HETATM   21  C   UNL     1      -9.315   6.260  69.812  1.00  0.00    -0.152 A  
HETATM   22  C   UNL     1      -9.465   7.614  69.262  1.00  0.00    -0.158 C  
HETATM   23  C   UNL     1      -8.920   8.681  69.863  1.00  0.00    -0.149 C  
HETATM   24  C   UNL     1      -8.109   8.532  71.099  1.00  0.00    -0.133 C  
HETATM   25  N   UNL     1      -8.031   7.279  71.637  1.00  0.00    -0.095 N  
HETATM   26  O   UNL     1      -7.556   9.493  71.607  1.00  0.00    -0.246 OA 
HETATM   27  H   UNL     1      -7.511   7.160  72.506  1.00  0.00     0.000 HD 
HETATM   28  C   UNL     1      -8.630   6.141  71.057  1.00  0.00    -0.132 A  
HETATM   29  C   UNL     1      -8.508   4.897  71.683  1.00  0.00    -0.122 A  
HETATM   30  C   UNL     1      -9.056   3.770  71.091  1.00  0.00    -0.181 A  
HETATM   31  O   UNL     1      -7.878   4.718  72.884  1.00  0.00    -0.091 OA 
HETATM   32  C   UNL     1      -9.708   3.873  69.856  1.00  0.00    -0.235 A  
HETATM   33  H   UNL     1      -7.795   3.872  73.309  1.00  0.00     0.000 HD 
ENDBRANCH  17  20
ENDBRANCH  16  17
ENDBRANCH  14  16
ENDBRANCH  10  14
ENDBRANCH   2   3
TORSDOF 6
ENDMDL
MODEL      345
REMARK 921   NORMALIZED FREE ENERGY PREDICTED BY IDOCK:   -2.02 KCAL/MOL
REMARK 922        TOTAL FREE ENERGY PREDICTED BY IDOCK:   -4.01 KCAL/MOL
REMARK 923 INTER-LIGAND FREE ENERGY PREDICTED BY IDOCK:   -3.63 KCAL/MOL
REMARK 924 INTRA-LIGAND FREE ENERGY PREDICTED BY IDOCK:   -0.39 KCAL/MOL
REMARK 927      BINDING AFFINITY PREDICTED BY RF-SCORE:    0.00 PKD
ROOT
HETATM    1  C   UNL     1     -11.287  13.736  68.726  1.00  0.00    -0.318 C  
HETATM    2  C   UNL     1     -10.419  12.943  67.764  1.00  0.00    -0.225 C  
ENDROOT
BRANCH   2   3
HETATM    3  C   UNL     1     -10.258  11.451  67.987  1.00  0.00    -0.201 A  
HETATM    4  C   UNL     1      -9.231  11.034  68.884  1.00  0.00    -0.139 A  
HETATM    5  C   UNL     1      -9.280   9.749  69.428  1.00  0.00    -0.214 A  
HETATM    6  C   UNL     1     -10.977  10.459  67.291  1.00  0.00    -0.306 A  
HETATM    7  C   UNL     1     -10.740   9.130  67.628  1.00  0.00    -0.257 A  
HETATM    8  C   UNL     1     -10.102   8.818  68.831  1.00  0.00    -0.210 A  
HETATM    9  C   UNL     1      -9.904   7.340  68.944  1.00  0.00    -0.158 C  
HETATM   10  C   UNL     1      -9.441   7.150  67.489  1.00  0.00    -0.124 C  
HETATM   11  C   UNL     1     -10.636   7.886  66.727  1.00  0.00    -0.234 C  
BRANCH   4  12
HETATM   12  C   UNL     1      -7.986  11.891  69.043  1.00  0.00     0.135 C  
HETATM   13  C   UNL     1      -7.614  12.788  67.862  1.00  0.00    -0.138 C  
ENDBRANCH   4  12
BRANCH  10  14
HETATM   14  N   UNL     1      -8.924   5.800  67.184  1.00  0.00    -0.113 NA 
HETATM   15  H   UNL     1      -9.257   5.454  66.285  1.00  0.00     0.000 HD 
BRANCH  14  16
HETATM   16  C   UNL     1      -7.415   5.811  67.269  1.00  0.00    -0.081 C  
BRANCH  16  17
HETATM   17  C   UNL     1      -6.802   5.631  68.685  1.00  0.00    -0.059 C  
HETATM   18  H   UNL     1      -7.426   4.913  70.388  1.00  0.00     0.000 HD 
HETATM   19  O   UNL     1      -7.801   5.022  69.521  1.00  0.00    -0.067 OA 
BRANCH  17  20
HETATM   20  C   UNL     1      -6.284   6.927  69.343  1.00  0.00    -0.034 A  
HETATM   21  C   UNL     1      -6.580   7.279  70.682  1.00  0.00    -0.047 A  
HETATM   22  C   UNL     1      -7.238   6.361  71.623  1.00  0.00    -0.086 C  
HETATM   23  C   UNL     1      -7.563   6.744  72.864  1.00  0.00    -0.094 C  
HETATM   24  C   UNL     1      -7.301   8.130  73.333  1.00  0.00    -0.135 C  
HETATM   25  N   UNL     1      -6.632   8.953  72.473  1.00  0.00     0.020 N  
HETATM   26  O   UNL     1      -7.661   8.498  74.438  1.00  0.00    -0.318 OA 
HETATM   27  H   UNL     1      -6.408   9.897  72.787  1.00  0.00     0.000 HD 
HETATM   28  C   UNL     1      -6.232   8.570  71.176  1.00  0.00    -0.041 A  
HETATM   29  C   UNL     1      -5.540   9.475  70.366  1.00  0.00    -0.042 A  
HETATM   30  C   UNL     1      -5.188   9.117  69.075  1.00  0.00    -0.037 A  
HETATM   31  O   UNL     1      -5.163  10.723  70.784  1.00  0.00    -0.073 OA 
HETATM   32  C   UNL     1      -5.547   7.860  68.573  1.00  0.00    -0.028 A  
HETATM   33  H   UNL     1      -4.693  11.338  70.234  1.00  0.00     0.000 HD 
ENDBRANCH  17  20
ENDBRANCH  16  17
ENDBRANCH  14  16
ENDBRANCH  10  14
ENDBRANCH   2   3
TORSDOF 6
ENDMDL
MODEL      346
REMARK 921   NORMALIZED FREE ENERGY PREDICTED BY IDOCK:   -2.00 KCAL/MOL
REMARK 922        TOTAL FREE ENERGY PREDICTED BY IDOCK:   -3.97 KCAL/MOL
REMARK 923 INTER-LIGAND FREE ENERGY PREDICTED BY IDOCK:   -3.92 KCAL/MOL
REMARK 924 INTRA-LIGAND FREE ENERGY PREDICTED BY IDOCK:   -0.05 KCAL/MOL
REMARK 927      BINDING AFFINITY PREDICTED BY RF-SCORE:    0.00 PKD
ROOT
HETATM    1  C   UNL     1     -12.025  15.055  73.252  1.00  0.00    -0.417 C  
HETATM    2  C   UNL     1     -13.097  14.622  72.265  1.00  0.00    -0.448 C  
ENDROOT
BRANCH   2   3
HETATM    3  C   UNL     1     -12.695  14.341  70.829  1.00  0.00    -0.419 A  
HETATM    4  C   UNL     1     -12.657  12.977  70.418  1.00  0.00    -0.165 A  
HETATM    5  C   UNL     1     -12.684  12.672  69.057  1.00  0.00     1.001 A  
HETATM    6  C   UNL     1     -12.258  15.324  69.917  1.00  0.00    -0.357 A  
HETATM    7  C   UNL     1     -11.952  14.915  68.623  1.00  0.00    -0.276 A  
HETATM    8  C   UNL     1     -12.400  13.677  68.157  1.00  0.00     0.037 A  
HETATM    9  C   UNL     1     -11.897  13.434  66.770  1.00  0.00    -0.452 C  
HETATM   10  C   UNL     1     -10.472  13.940  67.047  1.00  0.00    -0.278 C  
HETATM   11  C   UNL     1     -10.810  15.362  67.691  1.00  0.00    -0.304 C  
BRANCH   4  12
HETATM   12  C   UNL     1     -12.345  11.899  71.444  1.00  0.00    -0.120 C  
HETATM   13  C   UNL     1     -12.452  10.449  70.970  1.00  0.00    -0.488 C  
ENDBRANCH   4  12
BRANCH  10  14
HETATM   14  N   UNL     1      -9.513  13.696  65.950  1.00  0.00    -0.505 NA 
HETATM   15  H   UNL     1      -9.358  14.527  65.380  1.00  0.00     0.000 HD 
BRANCH  14  16
HETATM   16  C   UNL     1      -8.225  13.148  66.522  1.00  0.00     0.480 C  
BRANCH  16  17
HETATM   17  C   UNL     1      -8.007  11.616  66.387  1.00  0.00     0.005 C  
HETATM   18  H   UNL     1      -9.144  10.080  65.998  1.00  0.00     0.000 HD 
HETATM   19  O   UNL     1      -9.278  11.017  66.080  1.00  0.00    -0.177 OA 
BRANCH  17  20
HETATM   20  C   UNL     1      -7.388  10.932  67.623  1.00  0.00    -0.094 A  
HETATM   21  C   UNL     1      -6.884  11.657  68.730  1.00  0.00    -0.090 A  
HETATM   22  C   UNL     1      -7.075  13.105  68.891  1.00  0.00    -0.075 C  
HETATM   23  C   UNL     1      -6.531  13.776  69.914  1.00  0.00    -0.059 C  
HETATM   24  C   UNL     1      -5.679  13.085  70.916  1.00  0.00    -0.128 C  
HETATM   25  N   UNL     1      -5.561  11.729  70.794  1.00  0.00    -0.142 N  
HETATM   26  O   UNL     1      -5.127  13.707  71.808  1.00  0.00    -0.145 OA 
HETATM   27  H   UNL     1      -5.011  11.229  71.492  1.00  0.00     0.000 HD 
HETATM   28  C   UNL     1      -6.157  10.984  69.755  1.00  0.00    -0.097 A  
HETATM   29  C   UNL     1      -5.994   9.597  69.713  1.00  0.00    -0.040 A  
HETATM   30  C   UNL     1      -6.540   8.868  68.669  1.00  0.00    -0.054 A  
HETATM   31  O   UNL     1      -5.323   8.889  70.674  1.00  0.00    -0.027 OA 
HETATM   32  C   UNL     1      -7.233   9.524  67.643  1.00  0.00    -0.082 A  
HETATM   33  H   UNL     1      -5.211   7.946  70.645  1.00  0.00     0.000 HD 
ENDBRANCH  17  20
ENDBRANCH  16  17
ENDBRANCH  14  16
ENDBRANCH  10  14
ENDBRANCH   2   3
TORSDOF 6
ENDMDL
MODEL      347
REMARK 921   NORMALIZED FREE ENERGY PREDICTED BY IDOCK:   -1.91 KCAL/MOL
REMARK 922        TOTAL FREE ENERGY PREDICTED BY IDOCK:   -3.85 KCAL/MOL
REMARK 923 INTER-LIGAND FREE ENERGY PREDICTED BY IDOCK:   -3.68 KCAL/MOL
REMARK 924 INTRA-LIGAND FREE ENERGY PREDICTED BY IDOCK:   -0.17 KCAL/MOL
REMARK 927      BINDING AFFINITY PREDICTED BY RF-SCORE:    0.00 PKD
ROOT
HETATM    1  C   UNL     1     -12.275  14.786  73.726  1.00  0.00    -0.429 C  
HETATM    2  C   UNL     1     -13.265  14.195  72.735  1.00  0.00    -0.604 C  
ENDROOT
BRANCH   2   3
HETATM    3  C   UNL     1     -12.812  13.955  71.308  1.00  0.00    -0.435 A  
HETATM    4  C   UNL     1     -12.675  12.601  70.886  1.00  0.00    -0.274 A  
HETATM    5  C   UNL     1     -12.650  12.309  69.521  1.00  0.00     0.387 A  
HETATM    6  C   UNL     1     -12.418  14.973  70.415  1.00  0.00    -0.407 A  
HETATM    7  C   UNL     1     -12.055  14.598  69.126  1.00  0.00    -0.283 A  
HETATM    8  C   UNL     1     -12.410  13.339  68.638  1.00  0.00     0.081 A  
HETATM    9  C   UNL     1     -11.860  13.143  67.261  1.00  0.00    -0.420 C  
HETATM   10  C   UNL     1     -10.478  13.738  67.577  1.00  0.00    -0.245 C  
HETATM   11  C   UNL     1     -10.923  15.128  68.225  1.00  0.00    -0.276 C  
BRANCH   4  12
HETATM   12  C   UNL     1     -12.318  11.534  71.909  1.00  0.00     0.341 C  
HETATM   13  C   UNL     1     -11.781  10.211  71.364  1.00  0.00    -0.373 C  
ENDBRANCH   4  12
BRANCH  10  14
HETATM   14  N   UNL     1      -9.479  13.568  66.502  1.00  0.00    -0.323 NA 
HETATM   15  H   UNL     1      -9.836  13.009  65.728  1.00  0.00     0.000 HD 
BRANCH  14  16
HETATM   16  C   UNL     1      -8.993  14.926  66.049  1.00  0.00     0.060 C  
BRANCH  16  17
HETATM   17  C   UNL     1      -7.506  15.263  66.347  1.00  0.00     1.160 C  
HETATM   18  H   UNL     1      -6.041  14.373  67.277  1.00  0.00     0.000 HD 
HETATM   19  O   UNL     1      -6.950  14.167  67.095  1.00  0.00    -0.146 OA 
BRANCH  17  20
HETATM   20  C   UNL     1      -7.274  16.586  67.104  1.00  0.00    -0.223 A  
HETATM   21  C   UNL     1      -6.673  16.643  68.384  1.00  0.00    -0.142 A  
HETATM   22  C   UNL     1      -6.043  15.480  69.024  1.00  0.00    -0.106 C  
HETATM   23  C   UNL     1      -5.540  15.547  70.264  1.00  0.00    -0.147 C  
HETATM   24  C   UNL     1      -5.628  16.799  71.059  1.00  0.00     0.201 C  
HETATM   25  N   UNL     1      -6.156  17.891  70.432  1.00  0.00     0.042 N  
HETATM   26  O   UNL     1      -5.233  16.839  72.213  1.00  0.00     0.082 OA 
HETATM   27  H   UNL     1      -6.193  18.771  70.946  1.00  0.00     0.000 HD 
HETATM   28  C   UNL     1      -6.654  17.869  69.112  1.00  0.00    -0.240 A  
HETATM   29  C   UNL     1      -7.167  19.038  68.544  1.00  0.00    -0.300 A  
HETATM   30  C   UNL     1      -7.698  19.009  67.264  1.00  0.00    -0.254 A  
HETATM   31  O   UNL     1      -7.164  20.249  69.181  1.00  0.00    -0.114 OA 
HETATM   32  C   UNL     1      -7.745  17.803  66.552  1.00  0.00    -0.298 A  
HETATM   33  H   UNL     1      -7.513  21.044  68.795  1.00  0.00     0.000 HD 
ENDBRANCH  17  20
ENDBRANCH  16  17
ENDBRANCH  14  16
ENDBRANCH  10  14
ENDBRANCH   2   3
TORSDOF 6
ENDMDL
MODEL      348
REMARK 921   NORMALIZED FREE ENERGY PREDICTED BY IDOCK:   -1.84 KCAL/MOL
REMARK 922        TOTAL FREE ENERGY PREDICTED BY IDOCK:   -3.77 KCAL/MOL
REMARK 923 INTER-LIGAND FREE ENERGY PREDICTED BY IDOCK:   -3.87 KCAL/MOL
REMARK 924 INTRA-LIGAND FREE ENERGY PREDICTED BY IDOCK:    0.10 KCAL/MOL
REMARK 927      BINDING AFFINITY PREDICTED BY RF-SCORE:    0.00 PKD
ROOT
HETATM    1  C   UNL     1     -10.536  19.020  66.577  1.00  0.00    -0.522 C  
HETATM    2  C   UNL     1      -9.865  17.898  67.353  1.00  0.00    -0.305 C  
ENDROOT
BRANCH   2   3
HETATM    3  C   UNL     1     -10.491  16.516  67.322  1.00  0.00    -0.304 A  
HETATM    4  C   UNL     1     -10.880  15.949  68.570  1.00  0.00    -0.298 A  
HETATM    5  C   UNL     1     -11.792  14.892  68.586  1.00  0.00    -0.332 A  
HETATM    6  C   UNL     1     -10.610  15.721  66.163  1.00  0.00    -0.318 A  
HETATM    7  C   UNL     1     -11.235  14.484  66.289  1.00  0.00    -0.342 A  
HETATM    8  C   UNL     1     -12.019  14.208  67.412  1.00  0.00    -0.439 A  
HETATM    9  C   UNL     1     -12.532  12.805  67.352  1.00  0.00     0.603 C  
HETATM   10  C   UNL     1     -11.202  12.190  66.887  1.00  0.00    -0.320 C  
HETATM   11  C   UNL     1     -10.889  13.133  65.637  1.00  0.00    -0.294 C  
BRANCH   4  12
HETATM   12  C   UNL     1     -10.124  16.334  69.832  1.00  0.00    -0.023 C  
HETATM   13  C   UNL     1      -8.803  15.610  70.090  1.00  0.00     0.665 C  
ENDBRANCH   4  12
BRANCH  10  14
HETATM   14  N   UNL     1     -11.181  10.712  66.880  1.00  0.00    -0.225 NA 
HETATM   15  H   UNL     1     -10.247  10.340  66.708  1.00  0.00     0.000 HD 
BRANCH  14  16
HETATM   16  C   UNL     1     -11.773  10.196  68.171  1.00  0.00     0.494 C  
BRANCH  16  17
HETATM   17  C   UNL     1     -10.904  10.370  69.448  1.00  0.00    -0.248 C  
HETATM   18  H   UNL     1     -10.401  11.867  70.592  1.00  0.00     0.000 HD 
HETATM   19  O   UNL     1     -10.933  11.761  69.812  1.00  0.00    -0.077 OA 
BRANCH  17  20
HETATM   20  C   UNL     1      -9.444   9.891  69.315  1.00  0.00    -0.218 A  
HETATM   21  C   UNL     1      -8.777   9.171  70.335  1.00  0.00    -0.245 A  
HETATM   22  C   UNL     1      -9.464   8.647  71.524  1.00  0.00    -0.320 C  
HETATM   23  C   UNL     1      -8.795   8.026  72.504  1.00  0.00    -0.237 C  
HETATM   24  C   UNL     1      -7.318   7.870  72.445  1.00  0.00    -0.091 C  
HETATM   25  N   UNL     1      -6.699   8.302  71.307  1.00  0.00    -0.046 N  
HETATM   26  O   UNL     1      -6.702   7.366  73.369  1.00  0.00    -0.064 OA 
HETATM   27  H   UNL     1      -5.691   8.172  71.228  1.00  0.00     0.000 HD 
HETATM   28  C   UNL     1      -7.377   8.919  70.235  1.00  0.00    -0.067 A  
HETATM   29  C   UNL     1      -6.665   9.321  69.102  1.00  0.00    -0.050 A  
HETATM   30  C   UNL     1      -7.320   9.969  68.067  1.00  0.00    -0.087 A  
HETATM   31  O   UNL     1      -5.325   9.095  68.936  1.00  0.00    -0.037 OA 
HETATM   32  C   UNL     1      -8.690  10.244  68.168  1.00  0.00    -0.123 A  
HETATM   33  H   UNL     1      -4.840   9.369  68.166  1.00  0.00     0.000 HD 
ENDBRANCH  17  20
ENDBRANCH  16  17
ENDBRANCH  14  16
ENDBRANCH  10  14
ENDBRANCH   2   3
TORSDOF 6
ENDMDL
MODEL      349
REMARK 921   NORMALIZED FREE ENERGY PREDICTED BY IDOCK:   -1.33 KCAL/MOL
REMARK 922        TOTAL FREE ENERGY PREDICTED BY IDOCK:   -3.08 KCAL/MOL
REMARK 923 INTER-LIGAND FREE ENERGY PREDICTED BY IDOCK:   -3.80 KCAL/MOL
REMARK 924 INTRA-LIGAND FREE ENERGY PREDICTED BY IDOCK:    0.72 KCAL/MOL
REMARK 927      BINDING AFFINITY PREDICTED BY RF-SCORE:    0.00 PKD
ROOT
HETATM    1  C   UNL     1     -11.376  20.109  68.012  1.00  0.00     1.053 C  
HETATM    2  C   UNL     1      -9.919  20.457  68.271  1.00  0.00    -0.273 C  
ENDROOT
BRANCH   2   3
HETATM    3  C   UNL     1      -8.845  19.501  67.788  1.00  0.00    -0.370 A  
HETATM    4  C   UNL     1      -9.136  18.725  66.628  1.00  0.00    -0.323 A  
HETATM    5  C   UNL     1      -8.087  18.140  65.917  1.00  0.00    -0.002 A  
HETATM    6  C   UNL     1      -7.634  19.255  68.467  1.00  0.00    -0.369 A  
HETATM    7  C   UNL     1      -6.732  18.371  67.882  1.00  0.00    -0.216 A  
HETATM    8  C   UNL     1      -6.859  18.034  66.533  1.00  0.00    -0.254 A  
HETATM    9  C   UNL     1      -5.820  17.029  66.150  1.00  0.00     0.219 C  
HETATM   10  C   UNL     1      -5.987  16.169  67.414  1.00  0.00    -0.146 C  
HETATM   11  C   UNL     1      -5.838  17.299  68.532  1.00  0.00    -0.155 C  
BRANCH   4  12
HETATM   12  C   UNL     1     -10.577  18.349  66.326  1.00  0.00    -0.343 C  
HETATM   13  C   UNL     1     -11.322  19.231  65.324  1.00  0.00     1.206 C  
ENDBRANCH   4  12
BRANCH  10  14
HETATM   14  N   UNL     1      -5.255  14.886  67.381  1.00  0.00    -0.317 NA 
HETATM   15  H   UNL     1      -4.334  14.956  67.813  1.00  0.00     0.000 HD 
BRANCH  14  16
HETATM   16  C   UNL     1      -6.103  13.808  68.016  1.00  0.00    -0.140 C  
BRANCH  16  17
HETATM   17  C   UNL     1      -7.488  14.252  68.563  1.00  0.00    -0.121 C  
HETATM   18  H   UNL     1      -8.177  14.835  70.292  1.00  0.00     0.000 HD 
HETATM   19  O   UNL     1      -7.330  14.564  69.958  1.00  0.00     0.003 OA 
BRANCH  17  20
HETATM   20  C   UNL     1      -8.624  13.225  68.380  1.00  0.00    -0.130 A  
HETATM   21  C   UNL     1      -9.746  13.461  67.549  1.00  0.00    -0.224 A  
HETATM   22  C   UNL     1      -9.840  14.612  66.641  1.00  0.00    -0.280 C  
HETATM   23  C   UNL     1     -10.941  14.846  65.915  1.00  0.00    -0.338 C  
HETATM   24  C   UNL     1     -12.132  13.964  66.024  1.00  0.00    -0.437 C  
HETATM   25  N   UNL     1     -12.010  12.861  66.822  1.00  0.00    -0.386 N  
HETATM   26  O   UNL     1     -13.158  14.216  65.416  1.00  0.00    -0.743 OA 
HETATM   27  H   UNL     1     -12.802  12.221  66.883  1.00  0.00     0.000 HD 
HETATM   28  C   UNL     1     -10.850  12.559  67.565  1.00  0.00    -0.232 A  
HETATM   29  C   UNL     1     -10.808  11.401  68.347  1.00  0.00    -0.207 A  
HETATM   30  C   UNL     1      -9.687  11.126  69.114  1.00  0.00    -0.050 A  
HETATM   31  O   UNL     1     -11.826  10.487  68.393  1.00  0.00    -0.720 OA 
HETATM   32  C   UNL     1      -8.609  12.020  69.125  1.00  0.00     0.490 A  
HETATM   33  H   UNL     1     -11.798   9.701  68.925  1.00  0.00     0.000 HD 
ENDBRANCH  17  20
ENDBRANCH  16  17
ENDBRANCH  14  16
ENDBRANCH  10  14
ENDBRANCH   2   3
TORSDOF 6
ENDMDL
MODEL      350
REMARK 921   NORMALIZED FREE ENERGY PREDICTED BY IDOCK:   -0.53 KCAL/MOL
REMARK 922        TOTAL FREE ENERGY PREDICTED BY IDOCK:   -1.99 KCAL/MOL
REMARK 923 INTER-LIGAND FREE ENERGY PREDICTED BY IDOCK:   -2.23 KCAL/MOL
REMARK 924 INTRA-LIGAND FREE ENERGY PREDICTED BY IDOCK:    0.24 KCAL/MOL
REMARK 927      BINDING AFFINITY PREDICTED BY RF-SCORE:    0.00 PKD
ROOT
HETATM    1  C   UNL     1     -11.319  13.751  68.733  1.00  0.00    -0.318 C  
HETATM    2  C   UNL     1     -10.445  12.891  67.835  1.00  0.00    -0.231 C  
ENDROOT
BRANCH   2   3
HETATM    3  C   UNL     1     -10.416  11.392  68.066  1.00  0.00    -0.215 A  
HETATM    4  C   UNL     1      -9.582  10.911  69.117  1.00  0.00    -0.125 A  
HETATM    5  C   UNL     1      -9.801   9.632  69.631  1.00  0.00    -0.233 A  
HETATM    6  C   UNL     1     -11.069  10.447  67.248  1.00  0.00    -0.251 A  
HETATM    7  C   UNL     1     -10.974   9.106  67.606  1.00  0.00    -0.024 A  
HETATM    8  C   UNL     1     -10.567   8.754  68.895  1.00  0.00    -0.178 A  
HETATM    9  C   UNL     1     -10.483   7.266  69.023  1.00  0.00    -0.219 C  
HETATM   10  C   UNL     1      -9.796   7.049  67.665  1.00  0.00    -0.147 C  
HETATM   11  C   UNL     1     -10.799   7.858  66.721  1.00  0.00     0.105 C  
BRANCH   4  12
HETATM   12  C   UNL     1      -8.331  11.688  69.491  1.00  0.00     0.843 C  
HETATM   13  C   UNL     1      -7.732  12.588  68.410  1.00  0.00    -0.136 C  
ENDBRANCH   4  12
BRANCH  10  14
HETATM   14  N   UNL     1      -9.319   5.669  67.435  1.00  0.00    -0.112 NA 
HETATM   15  H   UNL     1     -10.009   5.098  66.948  1.00  0.00     0.000 HD 
BRANCH  14  16
HETATM   16  C   UNL     1      -7.995   5.711  66.706  1.00  0.00    -0.102 C  
BRANCH  16  17
HETATM   17  C   UNL     1      -6.741   6.021  67.570  1.00  0.00    -0.058 C  
HETATM   18  H   UNL     1      -6.311   5.947  69.471  1.00  0.00     0.000 HD 
HETATM   19  O   UNL     1      -7.078   5.757  68.943  1.00  0.00    -0.068 OA 
BRANCH  17  20
HETATM   20  C   UNL     1      -6.189   7.454  67.430  1.00  0.00    -0.047 A  
HETATM   21  C   UNL     1      -5.866   8.264  68.545  1.00  0.00    -0.040 A  
HETATM   22  C   UNL     1      -5.843   7.755  69.924  1.00  0.00    -0.023 C  
HETATM   23  C   UNL     1      -5.598   8.559  70.966  1.00  0.00    -0.033 C  
HETATM   24  C   UNL     1      -5.371  10.015  70.772  1.00  0.00    -0.060 C  
HETATM   25  N   UNL     1      -5.331  10.466  69.484  1.00  0.00    -0.038 N  
HETATM   26  O   UNL     1      -5.217  10.759  71.727  1.00  0.00    -0.253 OA 
HETATM   27  H   UNL     1      -5.140  11.455  69.325  1.00  0.00     0.000 HD 
HETATM   28  C   UNL     1      -5.539   9.639  68.360  1.00  0.00    -0.039 A  
HETATM   29  C   UNL     1      -5.468  10.183  67.075  1.00  0.00    -0.041 A  
HETATM   30  C   UNL     1      -5.718   9.383  65.971  1.00  0.00    -0.049 A  
HETATM   31  O   UNL     1      -5.143  11.490  66.827  1.00  0.00    -0.093 OA 
HETATM   32  C   UNL     1      -6.066   8.038  66.145  1.00  0.00    -0.045 A  
HETATM   33  H   UNL     1      -5.096  11.860  65.954  1.00  0.00     0.000 HD 
ENDBRANCH  17  20
ENDBRANCH  16  17
ENDBRANCH  14  16
ENDBRANCH  10  14
ENDBRANCH   2   3
TORSDOF 6
ENDMDL
MODEL      351
REMARK 921   NORMALIZED FREE ENERGY PREDICTED BY IDOCK:   -0.49 KCAL/MOL
REMARK 922        TOTAL FREE ENERGY PREDICTED BY IDOCK:   -1.94 KCAL/MOL
REMARK 923 INTER-LIGAND FREE ENERGY PREDICTED BY IDOCK:   -4.71 KCAL/MOL
REMARK 924 INTRA-LIGAND FREE ENERGY PREDICTED BY IDOCK:    2.77 KCAL/MOL
REMARK 927      BINDING AFFINITY PREDICTED BY RF-SCORE:    0.00 PKD
ROOT
HETATM    1  C   UNL     1     -10.938  12.419  65.611  1.00  0.00    -0.321 C  
HETATM    2  C   UNL     1     -10.187  11.615  64.563  1.00  0.00    -0.337 C  
ENDROOT
BRANCH   2   3
HETATM    3  C   UNL     1      -9.450  10.361  64.996  1.00  0.00    -0.308 A  
HETATM    4  C   UNL     1     -10.037   9.588  66.040  1.00  0.00    -0.319 A  
HETATM    5  C   UNL     1      -9.642   8.261  66.212  1.00  0.00    -0.266 A  
HETATM    6  C   UNL     1      -8.183   9.975  64.514  1.00  0.00    -0.164 A  
HETATM    7  C   UNL     1      -7.648   8.780  64.985  1.00  0.00    -0.100 A  
HETATM    8  C   UNL     1      -8.473   7.845  65.614  1.00  0.00    -0.160 A  
HETATM    9  C   UNL     1      -7.666   6.677  66.086  1.00  0.00    -0.095 C  
HETATM   10  C   UNL     1      -6.510   7.524  66.644  1.00  0.00    -0.049 C  
HETATM   11  C   UNL     1      -6.197   8.431  65.368  1.00  0.00    -0.045 C  
BRANCH   4  12
HETATM   12  C   UNL     1     -10.894  10.280  67.088  1.00  0.00    -0.278 C  
HETATM   13  C   UNL     1     -10.428  11.660  67.555  1.00  0.00    -0.228 C  
ENDBRANCH   4  12
BRANCH  10  14
HETATM   14  N   UNL     1      -5.515   6.760  67.425  1.00  0.00    -0.012 NA 
HETATM   15  H   UNL     1      -4.560   7.062  67.233  1.00  0.00     0.000 HD 
BRANCH  14  16
HETATM   16  C   UNL     1      -5.858   6.845  68.894  1.00  0.00    -0.019 C  
BRANCH  16  17
HETATM   17  C   UNL     1      -7.090   7.715  69.267  1.00  0.00    -0.076 C  
HETATM   18  H   UNL     1      -7.382   9.593  69.705  1.00  0.00     0.000 HD 
HETATM   19  O   UNL     1      -6.629   9.061  69.477  1.00  0.00    -0.042 OA 
BRANCH  17  20
HETATM   20  C   UNL     1      -7.883   7.233  70.498  1.00  0.00    -0.099 A  
HETATM   21  C   UNL     1      -9.262   7.501  70.676  1.00  0.00    -0.159 A  
HETATM   22  C   UNL     1     -10.104   8.089  69.625  1.00  0.00    -0.198 C  
HETATM   23  C   UNL     1     -11.390   8.392  69.844  1.00  0.00     0.062 C  
HETATM   24  C   UNL     1     -12.013   8.175  71.176  1.00  0.00    -0.273 C  
HETATM   25  N   UNL     1     -11.240   7.568  72.124  1.00  0.00    -0.256 N  
HETATM   26  O   UNL     1     -13.164   8.515  71.394  1.00  0.00    -0.299 OA 
HETATM   27  H   UNL     1     -11.658   7.375  73.035  1.00  0.00     0.000 HD 
HETATM   28  C   UNL     1      -9.896   7.194  71.916  1.00  0.00    -0.159 A  
HETATM   29  C   UNL     1      -9.183   6.567  72.940  1.00  0.00    -0.135 A  
HETATM   30  C   UNL     1      -7.849   6.240  72.754  1.00  0.00    -0.105 A  
HETATM   31  O   UNL     1      -9.736   6.230  74.146  1.00  0.00    -0.180 OA 
HETATM   32  C   UNL     1      -7.211   6.561  71.549  1.00  0.00    -0.082 A  
HETATM   33  H   UNL     1      -9.251   5.805  74.843  1.00  0.00     0.000 HD 
ENDBRANCH  17  20
ENDBRANCH  16  17
ENDBRANCH  14  16
ENDBRANCH  10  14
ENDBRANCH   2   3
TORSDOF 6
ENDMDL
MODEL      352
REMARK 921   NORMALIZED FREE ENERGY PREDICTED BY IDOCK:   -0.34 KCAL/MOL
REMARK 922        TOTAL FREE ENERGY PREDICTED BY IDOCK:   -1.73 KCAL/MOL
REMARK 923 INTER-LIGAND FREE ENERGY PREDICTED BY IDOCK:   -1.97 KCAL/MOL
REMARK 924 INTRA-LIGAND FREE ENERGY PREDICTED BY IDOCK:    0.24 KCAL/MOL
REMARK 927      BINDING AFFINITY PREDICTED BY RF-SCORE:    0.00 PKD
ROOT
HETATM    1  C   UNL     1      -9.044  17.509  69.310  1.00  0.00     0.212 C  
HETATM    2  C   UNL     1      -8.239  16.230  69.153  1.00  0.00    -0.215 C  
ENDROOT
BRANCH   2   3
HETATM    3  C   UNL     1      -8.865  15.062  68.414  1.00  0.00    -0.178 A  
HETATM    4  C   UNL     1      -8.753  13.775  69.016  1.00  0.00     0.268 A  
HETATM    5  C   UNL     1      -9.615  12.754  68.613  1.00  0.00    -0.028 A  
HETATM    6  C   UNL     1      -9.448  15.149  67.133  1.00  0.00    -0.224 A  
HETATM    7  C   UNL     1     -10.008  13.993  66.598  1.00  0.00    -0.280 A  
HETATM    8  C   UNL     1     -10.300  12.908  67.428  1.00  0.00    -0.233 A  
HETATM    9  C   UNL     1     -10.834  11.768  66.621  1.00  0.00    -0.318 C  
HETATM   10  C   UNL     1      -9.807  11.909  65.485  1.00  0.00    -0.232 C  
HETATM   11  C   UNL     1      -9.981  13.461  65.153  1.00  0.00    -0.190 C  
BRANCH   4  12
HETATM   12  C   UNL     1      -7.555  13.468  69.901  1.00  0.00     1.105 C  
HETATM   13  C   UNL     1      -6.569  14.610  70.145  1.00  0.00    -0.143 C  
ENDBRANCH   4  12
BRANCH  10  14
HETATM   14  N   UNL     1      -9.831  10.808  64.499  1.00  0.00    -0.282 NA 
HETATM   15  H   UNL     1     -10.182  11.110  63.591  1.00  0.00     0.000 HD 
BRANCH  14  16
HETATM   16  C   UNL     1      -8.455  10.190  64.404  1.00  0.00    -0.175 C  
BRANCH  16  17
HETATM   17  C   UNL     1      -7.993   9.342  65.621  1.00  0.00    -0.103 C  
HETATM   18  H   UNL     1      -6.273   8.778  66.348  1.00  0.00     0.000 HD 
HETATM   19  O   UNL     1      -6.556   9.297  65.604  1.00  0.00    -0.067 OA 
BRANCH  17  20
HETATM   20  C   UNL     1      -8.563   7.910  65.674  1.00  0.00    -0.159 A  
HETATM   21  C   UNL     1      -9.008   7.305  66.875  1.00  0.00    -0.148 A  
HETATM   22  C   UNL     1      -9.148   8.043  68.137  1.00  0.00    -0.134 C  
HETATM   23  C   UNL     1      -9.509   7.430  69.273  1.00  0.00    -0.154 C  
HETATM   24  C   UNL     1      -9.750   5.964  69.308  1.00  0.00    -0.144 C  
HETATM   25  N   UNL     1      -9.680   5.300  68.117  1.00  0.00    -0.136 N  
HETATM   26  O   UNL     1     -10.010   5.396  70.356  1.00  0.00    -0.191 OA 
HETATM   27  H   UNL     1      -9.878   4.300  68.112  1.00  0.00     0.000 HD 
HETATM   28  C   UNL     1      -9.348   5.920  66.895  1.00  0.00    -0.129 A  
HETATM   29  C   UNL     1      -9.310   5.164  65.720  1.00  0.00    -0.154 A  
HETATM   30  C   UNL     1      -8.939   5.762  64.526  1.00  0.00     0.309 A  
HETATM   31  O   UNL     1      -9.640   3.837  65.668  1.00  0.00    -0.170 OA 
HETATM   32  C   UNL     1      -8.578   7.115  64.501  1.00  0.00     0.321 A  
HETATM   33  H   UNL     1      -9.614   3.323  64.870  1.00  0.00     0.000 HD 
ENDBRANCH  17  20
ENDBRANCH  16  17
ENDBRANCH  14  16
ENDBRANCH  10  14
ENDBRANCH   2   3
TORSDOF 6
ENDMDL
MODEL      353
REMARK 921   NORMALIZED FREE ENERGY PREDICTED BY IDOCK:   -0.28 KCAL/MOL
REMARK 922        TOTAL FREE ENERGY PREDICTED BY IDOCK:   -1.66 KCAL/MOL
REMARK 923 INTER-LIGAND FREE ENERGY PREDICTED BY IDOCK:   -2.19 KCAL/MOL
REMARK 924 INTRA-LIGAND FREE ENERGY PREDICTED BY IDOCK:    0.54 KCAL/MOL
REMARK 927      BINDING AFFINITY PREDICTED BY RF-SCORE:    0.00 PKD
ROOT
HETATM    1  C   UNL     1     -11.214  17.106  70.647  1.00  0.00     0.964 C  
HETATM    2  C   UNL     1     -11.611  16.727  69.229  1.00  0.00     0.413 C  
ENDROOT
BRANCH   2   3
HETATM    3  C   UNL     1     -10.926  15.543  68.573  1.00  0.00    -0.288 A  
HETATM    4  C   UNL     1      -9.803  15.820  67.740  1.00  0.00    -0.224 A  
HETATM    5  C   UNL     1      -8.909  14.792  67.434  1.00  0.00    -0.203 A  
HETATM    6  C   UNL     1     -11.390  14.214  68.645  1.00  0.00    -0.306 A  
HETATM    7  C   UNL     1     -10.635  13.230  68.014  1.00  0.00    -0.249 A  
HETATM    8  C   UNL     1      -9.313  13.491  67.646  1.00  0.00    -0.216 A  
HETATM    9  C   UNL     1      -8.731  12.312  66.933  1.00  0.00    -0.197 C  
HETATM   10  C   UNL     1      -9.975  12.046  66.068  1.00  0.00    -0.234 C  
HETATM   11  C   UNL     1     -11.093  12.000  67.207  1.00  0.00    -0.341 C  
BRANCH   4  12
HETATM   12  C   UNL     1      -9.726  17.151  67.010  1.00  0.00    -0.265 C  
HETATM   13  C   UNL     1     -10.293  17.190  65.591  1.00  0.00    -0.198 C  
ENDBRANCH   4  12
BRANCH  10  14
HETATM   14  N   UNL     1      -9.778  11.032  65.011  1.00  0.00    -0.237 NA 
HETATM   15  H   UNL     1     -10.412  11.166  64.224  1.00  0.00     0.000 HD 
BRANCH  14  16
HETATM   16  C   UNL     1      -8.328  11.029  64.583  1.00  0.00     0.234 C  
BRANCH  16  17
HETATM   17  C   UNL     1      -7.594   9.660  64.640  1.00  0.00    -0.126 C  
HETATM   18  H   UNL     1      -6.695   8.512  63.345  1.00  0.00     0.000 HD 
HETATM   19  O   UNL     1      -7.144   9.349  63.310  1.00  0.00    -0.093 OA 
BRANCH  17  20
HETATM   20  C   UNL     1      -8.431   8.492  65.199  1.00  0.00    -0.193 A  
HETATM   21  C   UNL     1      -8.523   7.235  64.553  1.00  0.00     0.174 A  
HETATM   22  C   UNL     1      -7.685   6.864  63.404  1.00  0.00    -0.106 C  
HETATM   23  C   UNL     1      -7.838   5.693  62.772  1.00  0.00    -0.089 C  
HETATM   24  C   UNL     1      -8.891   4.731  63.188  1.00  0.00    -0.117 C  
HETATM   25  N   UNL     1      -9.621   5.058  64.295  1.00  0.00    -0.321 N  
HETATM   26  O   UNL     1      -9.077   3.696  62.569  1.00  0.00    -0.089 OA 
HETATM   27  H   UNL     1     -10.324   4.395  64.621  1.00  0.00     0.000 HD 
HETATM   28  C   UNL     1      -9.456   6.260  65.013  1.00  0.00     0.945 A  
HETATM   29  C   UNL     1     -10.239   6.508  66.144  1.00  0.00     0.300 A  
HETATM   30  C   UNL     1     -10.111   7.708  66.823  1.00  0.00    -0.325 A  
HETATM   31  O   UNL     1     -11.140   5.608  66.647  1.00  0.00    -0.558 OA 
HETATM   32  C   UNL     1      -9.216   8.683  66.363  1.00  0.00    -0.245 A  
HETATM   33  H   UNL     1     -11.673   5.777  67.415  1.00  0.00     0.000 HD 
ENDBRANCH  17  20
ENDBRANCH  16  17
ENDBRANCH  14  16
ENDBRANCH  10  14
ENDBRANCH   2   3
TORSDOF 6
ENDMDL
MODEL      354
REMARK 921   NORMALIZED FREE ENERGY PREDICTED BY IDOCK:   -0.13 KCAL/MOL
REMARK 922        TOTAL FREE ENERGY PREDICTED BY IDOCK:   -1.45 KCAL/MOL
REMARK 923 INTER-LIGAND FREE ENERGY PREDICTED BY IDOCK:   -1.96 KCAL/MOL
REMARK 924 INTRA-LIGAND FREE ENERGY PREDICTED BY IDOCK:    0.51 KCAL/MOL
REMARK 927      BINDING AFFINITY PREDICTED BY RF-SCORE:    0.00 PKD
ROOT
HETATM    1  C   UNL     1     -11.473  17.421  74.216  1.00  0.00     0.731 C  
HETATM    2  C   UNL     1     -11.909  16.083  73.644  1.00  0.00    -0.293 C  
ENDROOT
BRANCH   2   3
HETATM    3  C   UNL     1     -11.733  15.833  72.158  1.00  0.00    -0.573 A  
HETATM    4  C   UNL     1     -12.872  15.373  71.435  1.00  0.00    -0.508 A  
HETATM    5  C   UNL     1     -12.896  15.498  70.045  1.00  0.00    -0.047 A  
HETATM    6  C   UNL     1     -10.503  15.921  71.475  1.00  0.00     1.141 A  
HETATM    7  C   UNL     1     -10.506  15.691  70.103  1.00  0.00    -0.316 A  
HETATM    8  C   UNL     1     -11.706  15.733  69.390  1.00  0.00    -0.379 A  
HETATM    9  C   UNL     1     -11.467  15.397  67.953  1.00  0.00    -0.306 C  
HETATM   10  C   UNL     1     -10.517  14.222  68.241  1.00  0.00    -0.247 C  
HETATM   11  C   UNL     1      -9.486  14.943  69.225  1.00  0.00    -0.118 C  
BRANCH   4  12
HETATM   12  C   UNL     1     -13.925  14.543  72.152  1.00  0.00    -0.597 C  
HETATM   13  C   UNL     1     -13.439  13.660  73.302  1.00  0.00     0.945 C  
ENDBRANCH   4  12
BRANCH  10  14
HETATM   14  N   UNL     1     -10.160  13.419  67.053  1.00  0.00    -0.244 NA 
HETATM   15  H   UNL     1     -10.063  13.992  66.216  1.00  0.00     0.000 HD 
BRANCH  14  16
HETATM   16  C   UNL     1      -8.911  12.619  67.346  1.00  0.00    -0.190 C  
BRANCH  16  17
HETATM   17  C   UNL     1      -9.094  11.353  68.229  1.00  0.00    -0.179 C  
HETATM   18  H   UNL     1      -8.706  10.884  70.081  1.00  0.00     0.000 HD 
HETATM   19  O   UNL     1      -8.594  11.658  69.542  1.00  0.00     0.546 OA 
BRANCH  17  20
HETATM   20  C   UNL     1      -8.415  10.077  67.691  1.00  0.00    -0.114 A  
HETATM   21  C   UNL     1      -8.489   9.682  66.333  1.00  0.00    -0.128 A  
HETATM   22  C   UNL     1      -9.049  10.541  65.281  1.00  0.00    -0.220 C  
HETATM   23  C   UNL     1      -9.166  10.116  64.016  1.00  0.00    -0.315 C  
HETATM   24  C   UNL     1      -8.762   8.738  63.631  1.00  0.00     0.048 C  
HETATM   25  N   UNL     1      -8.183   7.972  64.602  1.00  0.00    -0.258 N  
HETATM   26  O   UNL     1      -8.933   8.328  62.495  1.00  0.00     0.093 OA 
HETATM   27  H   UNL     1      -7.864   7.037  64.351  1.00  0.00     0.000 HD 
HETATM   28  C   UNL     1      -8.002   8.403  65.933  1.00  0.00    -0.099 A  
HETATM   29  C   UNL     1      -7.389   7.557  66.860  1.00  0.00    -0.093 A  
HETATM   30  C   UNL     1      -7.252   7.960  68.179  1.00  0.00    -0.090 A  
HETATM   31  O   UNL     1      -6.887   6.325  66.537  1.00  0.00    -0.058 OA 
HETATM   32  C   UNL     1      -7.750   9.204  68.587  1.00  0.00    -0.092 A  
HETATM   33  H   UNL     1      -6.471   5.749  67.168  1.00  0.00     0.000 HD 
ENDBRANCH  17  20
ENDBRANCH  16  17
ENDBRANCH  14  16
ENDBRANCH  10  14
ENDBRANCH   2   3
TORSDOF 6
ENDMDL
MODEL      355
REMARK 921   NORMALIZED FREE ENERGY PREDICTED BY IDOCK:    1.24 KCAL/MOL
REMARK 922        TOTAL FREE ENERGY PREDICTED BY IDOCK:    0.39 KCAL/MOL
REMARK 923 INTER-LIGAND FREE ENERGY PREDICTED BY IDOCK:   -0.75 KCAL/MOL
REMARK 924 INTRA-LIGAND FREE ENERGY PREDICTED BY IDOCK:    1.15 KCAL/MOL
REMARK 927      BINDING AFFINITY PREDICTED BY RF-SCORE:    0.00 PKD
ROOT
HETATM    1  C   UNL     1     -13.513  15.219  64.545  1.00  0.00     2.101 C  
HETATM    2  C   UNL     1     -12.019  15.475  64.445  1.00  0.00    -0.187 C  
ENDROOT
BRANCH   2   3
HETATM    3  C   UNL     1     -11.064  14.471  65.064  1.00  0.00    -0.393 A  
HETATM    4  C   UNL     1     -10.656  13.373  64.253  1.00  0.00    -0.358 A  
HETATM    5  C   UNL     1      -9.512  12.654  64.601  1.00  0.00     0.368 A  
HETATM    6  C   UNL     1     -10.646  14.496  66.411  1.00  0.00    -0.302 A  
HETATM    7  C   UNL     1      -9.743  13.522  66.825  1.00  0.00    -0.271 A  
HETATM    8  C   UNL     1      -9.017  12.794  65.879  1.00  0.00     0.336 A  
HETATM    9  C   UNL     1      -8.163  11.771  66.558  1.00  0.00    -0.066 C  
HETATM   10  C   UNL     1      -9.248  11.318  67.548  1.00  0.00    -0.158 C  
HETATM   11  C   UNL     1      -9.677  12.735  68.148  1.00  0.00    -0.223 C  
BRANCH   4  12
HETATM   12  C   UNL     1     -11.593  12.856  63.173  1.00  0.00    -0.116 C  
HETATM   13  C   UNL     1     -12.932  12.285  63.640  1.00  0.00    -0.300 C  
ENDBRANCH   4  12
BRANCH  10  14
HETATM   14  N   UNL     1      -8.895  10.120  68.337  1.00  0.00    -0.120 NA 
HETATM   15  H   UNL     1      -8.635  10.351  69.295  1.00  0.00     0.000 HD 
BRANCH  14  16
HETATM   16  C   UNL     1     -10.032   9.126  68.276  1.00  0.00    -0.175 C  
BRANCH  16  17
HETATM   17  C   UNL     1      -9.640   7.624  68.330  1.00  0.00    -0.151 C  
HETATM   18  H   UNL     1      -8.273   6.577  69.246  1.00  0.00     0.000 HD 
HETATM   19  O   UNL     1      -8.513   7.496  69.214  1.00  0.00    -0.133 OA 
BRANCH  17  20
HETATM   20  C   UNL     1      -9.314   6.984  66.966  1.00  0.00    -0.174 A  
HETATM   21  C   UNL     1      -8.370   7.534  66.066  1.00  0.00    -0.136 A  
HETATM   22  C   UNL     1      -7.479   8.647  66.424  1.00  0.00    -0.087 C  
HETATM   23  C   UNL     1      -6.641   9.191  65.531  1.00  0.00    -0.068 C  
HETATM   24  C   UNL     1      -6.601   8.710  64.126  1.00  0.00    -0.071 C  
HETATM   25  N   UNL     1      -7.386   7.634  63.821  1.00  0.00    -0.086 N  
HETATM   26  O   UNL     1      -5.889   9.251  63.297  1.00  0.00    -0.086 OA 
HETATM   27  H   UNL     1      -7.347   7.263  62.872  1.00  0.00     0.000 HD 
HETATM   28  C   UNL     1      -8.246   7.007  64.747  1.00  0.00    -0.047 A  
HETATM   29  C   UNL     1      -9.006   5.903  64.351  1.00  0.00     0.454 A  
HETATM   30  C   UNL     1      -9.886   5.314  65.245  1.00  0.00     0.230 A  
HETATM   31  O   UNL     1      -8.923   5.339  63.107  1.00  0.00    -0.330 OA 
HETATM   32  C   UNL     1     -10.033   5.841  66.535  1.00  0.00    -0.202 A  
HETATM   33  H   UNL     1      -9.439   4.588  62.838  1.00  0.00     0.000 HD 
ENDBRANCH  17  20
ENDBRANCH  16  17
ENDBRANCH  14  16
ENDBRANCH  10  14
ENDBRANCH   2   3
TORSDOF 6
ENDMDL
MODEL      356
REMARK 921   NORMALIZED FREE ENERGY PREDICTED BY IDOCK:    1.53 KCAL/MOL
REMARK 922        TOTAL FREE ENERGY PREDICTED BY IDOCK:    0.79 KCAL/MOL
REMARK 923 INTER-LIGAND FREE ENERGY PREDICTED BY IDOCK:    0.74 KCAL/MOL
REMARK 924 INTRA-LIGAND FREE ENERGY PREDICTED BY IDOCK:    0.04 KCAL/MOL
REMARK 927      BINDING AFFINITY PREDICTED BY RF-SCORE:    0.00 PKD
ROOT
HETATM    1  C   UNL     1     -10.469  17.234  71.339  1.00  0.00     2.781 C  
HETATM    2  C   UNL     1     -11.603  16.367  70.818  1.00  0.00    -0.156 C  
ENDROOT
BRANCH   2   3
HETATM    3  C   UNL     1     -11.285  14.967  70.329  1.00  0.00    -0.270 A  
HETATM    4  C   UNL     1     -10.136  14.812  69.501  1.00  0.00    -0.065 A  
HETATM    5  C   UNL     1      -9.571  13.545  69.346  1.00  0.00     0.797 A  
HETATM    6  C   UNL     1     -12.104  13.840  70.549  1.00  0.00    -0.416 A  
HETATM    7  C   UNL     1     -11.662  12.614  70.063  1.00  0.00    -0.289 A  
HETATM    8  C   UNL     1     -10.323  12.447  69.703  1.00  0.00     0.857 A  
HETATM    9  C   UNL     1     -10.102  11.073  69.155  1.00  0.00    -0.167 C  
HETATM   10  C   UNL     1     -11.376  11.060  68.294  1.00  0.00    -0.299 C  
HETATM   11  C   UNL     1     -12.454  11.472  69.399  1.00  0.00    -0.003 C  
BRANCH   4  12
HETATM   12  C   UNL     1      -9.693  15.966  68.617  1.00  0.00    -0.207 C  
HETATM   13  C   UNL     1     -10.571  16.282  67.406  1.00  0.00    -0.307 C  
ENDBRANCH   4  12
BRANCH  10  14
HETATM   14  N   UNL     1     -11.481   9.909  67.374  1.00  0.00    -0.277 NA 
HETATM   15  H   UNL     1     -12.355   9.912  66.850  1.00  0.00     0.000 HD 
BRANCH  14  16
HETATM   16  C   UNL     1     -10.272   9.879  66.468  1.00  0.00    -0.222 C  
BRANCH  16  17
HETATM   17  C   UNL     1      -9.876   8.492  65.890  1.00  0.00     0.059 C  
HETATM   18  H   UNL     1      -9.286   6.791  66.640  1.00  0.00     0.000 HD 
HETATM   19  O   UNL     1      -9.528   7.639  66.994  1.00  0.00    -0.146 OA 
BRANCH  17  20
HETATM   20  C   UNL     1      -8.727   8.516  64.862  1.00  0.00    -0.090 A  
HETATM   21  C   UNL     1      -8.010   7.355  64.485  1.00  0.00    -0.122 A  
HETATM   22  C   UNL     1      -8.415   6.001  64.886  1.00  0.00    -0.060 C  
HETATM   23  C   UNL     1      -7.681   4.926  64.569  1.00  0.00    -0.083 C  
HETATM   24  C   UNL     1      -6.403   5.063  63.823  1.00  0.00    -0.022 C  
HETATM   25  N   UNL     1      -6.070   6.319  63.400  1.00  0.00    -0.022 N  
HETATM   26  O   UNL     1      -5.700   4.092  63.596  1.00  0.00    -0.013 OA 
HETATM   27  H   UNL     1      -5.216   6.432  62.855  1.00  0.00     0.000 HD 
HETATM   28  C   UNL     1      -6.841   7.467  63.675  1.00  0.00    -0.054 A  
HETATM   29  C   UNL     1      -6.431   8.712  63.193  1.00  0.00    -0.090 A  
HETATM   30  C   UNL     1      -7.162   9.848  63.501  1.00  0.00    -0.126 A  
HETATM   31  O   UNL     1      -5.329   8.885  62.399  1.00  0.00    -0.077 OA 
HETATM   32  C   UNL     1      -8.297   9.751  64.317  1.00  0.00    -0.168 A  
HETATM   33  H   UNL     1      -5.050   9.732  62.071  1.00  0.00     0.000 HD 
ENDBRANCH  17  20
ENDBRANCH  16  17
ENDBRANCH  14  16
ENDBRANCH  10  14
ENDBRANCH   2   3
TORSDOF 6
ENDMDL
MODEL      357
REMARK 921   NORMALIZED FREE ENERGY PREDICTED BY IDOCK:    5.54 KCAL/MOL
REMARK 922        TOTAL FREE ENERGY PREDICTED BY IDOCK:    6.21 KCAL/MOL
REMARK 923 INTER-LIGAND FREE ENERGY PREDICTED BY IDOCK:   -1.77 KCAL/MOL
REMARK 924 INTRA-LIGAND FREE ENERGY PREDICTED BY IDOCK:    7.98 KCAL/MOL
REMARK 927      BINDING AFFINITY PREDICTED BY RF-SCORE:    0.00 PKD
ROOT
HETATM    1  C   UNL     1      -6.520  20.217  72.708  1.00  0.00     2.263 C  
HETATM    2  C   UNL     1      -6.235  20.497  71.242  1.00  0.00     0.038 C  
ENDROOT
BRANCH   2   3
HETATM    3  C   UNL     1      -6.939  19.661  70.190  1.00  0.00     0.048 A  
HETATM    4  C   UNL     1      -6.208  19.355  69.005  1.00  0.00    -0.300 A  
HETATM    5  C   UNL     1      -6.628  18.296  68.198  1.00  0.00    -0.205 A  
HETATM    6  C   UNL     1      -8.290  19.265  70.260  1.00  0.00     1.562 A  
HETATM    7  C   UNL     1      -8.786  18.473  69.229  1.00  0.00     0.195 A  
HETATM    8  C   UNL     1      -7.906  17.811  68.371  1.00  0.00    -0.284 A  
HETATM    9  C   UNL     1      -8.668  17.077  67.313  1.00  0.00    -0.212 C  
HETATM   10  C   UNL     1      -9.660  18.220  67.039  1.00  0.00    -0.291 C  
HETATM   11  C   UNL     1     -10.157  18.510  68.528  1.00  0.00    -0.414 C  
BRANCH   4  12
HETATM   12  C   UNL     1      -5.142  20.322  68.516  1.00  0.00    -0.230 C  
HETATM   13  C   UNL     1      -5.580  21.364  67.486  1.00  0.00    -0.410 C  
ENDBRANCH   4  12
BRANCH  10  14
HETATM   14  N   UNL     1     -10.531  18.004  65.865  1.00  0.00    -0.549 NA 
HETATM   15  H   UNL     1     -10.069  18.253  64.991  1.00  0.00     0.000 HD 
BRANCH  14  16
HETATM   16  C   UNL     1     -11.025  16.576  65.863  1.00  0.00     0.029 C  
BRANCH  16  17
HETATM   17  C   UNL     1     -11.109  15.872  67.246  1.00  0.00    -0.172 C  
HETATM   18  H   UNL     1     -11.016  16.451  69.107  1.00  0.00     0.000 HD 
HETATM   19  O   UNL     1     -10.965  16.881  68.261  1.00  0.00    -0.364 OA 
BRANCH  17  20
HETATM   20  C   UNL     1     -10.076  14.749  67.472  1.00  0.00    -0.224 A  
HETATM   21  C   UNL     1      -9.972  13.620  66.624  1.00  0.00    -0.283 A  
HETATM   22  C   UNL     1     -10.697  13.507  65.351  1.00  0.00    -0.308 C  
HETATM   23  C   UNL     1     -10.630  12.400  64.600  1.00  0.00    -0.339 C  
HETATM   24  C   UNL     1      -9.841  11.221  65.043  1.00  0.00    -0.261 C  
HETATM   25  N   UNL     1      -9.120  11.361  66.194  1.00  0.00    -0.204 N  
HETATM   26  O   UNL     1      -9.837  10.189  64.394  1.00  0.00    -0.322 OA 
HETATM   27  H   UNL     1      -8.541  10.578  66.498  1.00  0.00     0.000 HD 
HETATM   28  C   UNL     1      -9.130  12.528  66.986  1.00  0.00    -0.213 A  
HETATM   29  C   UNL     1      -8.351  12.589  68.145  1.00  0.00    -0.175 A  
HETATM   30  C   UNL     1      -8.395  13.716  68.949  1.00  0.00     0.146 A  
HETATM   31  O   UNL     1      -7.511  11.583  68.540  1.00  0.00    -0.101 OA 
HETATM   32  C   UNL     1      -9.239  14.783  68.615  1.00  0.00    -0.194 A  
HETATM   33  H   UNL     1      -6.982  11.624  69.328  1.00  0.00     0.000 HD 
ENDBRANCH  17  20
ENDBRANCH  16  17
ENDBRANCH  14  16
ENDBRANCH  10  14
ENDBRANCH   2   3
TORSDOF 6
ENDMDL
MODEL      358
REMARK 921   NORMALIZED FREE ENERGY PREDICTED BY IDOCK:    5.66 KCAL/MOL
REMARK 922        TOTAL FREE ENERGY PREDICTED BY IDOCK:    6.37 KCAL/MOL
REMARK 923 INTER-LIGAND FREE ENERGY PREDICTED BY IDOCK:    3.69 KCAL/MOL
REMARK 924 INTRA-LIGAND FREE ENERGY PREDICTED BY IDOCK:    2.68 KCAL/MOL
REMARK 927      BINDING AFFINITY PREDICTED BY RF-SCORE:    0.00 PKD
ROOT
HETATM    1  C   UNL     1     -12.036   5.069  67.492  1.00  0.00     6.255 C  
HETATM    2  C   UNL     1     -11.635   6.533  67.415  1.00  0.00     0.503 C  
ENDROOT
BRANCH   2   3
HETATM    3  C   UNL     1     -10.166   6.893  67.530  1.00  0.00    -0.249 A  
HETATM    4  C   UNL     1      -9.543   6.694  68.796  1.00  0.00    -0.131 A  
HETATM    5  C   UNL     1      -8.151   6.627  68.870  1.00  0.00    -0.116 A  
HETATM    6  C   UNL     1      -9.414   7.508  66.508  1.00  0.00    -0.237 A  
HETATM    7  C   UNL     1      -8.066   7.750  66.753  1.00  0.00    -0.115 A  
HETATM    8  C   UNL     1      -7.418   7.095  67.802  1.00  0.00    -0.098 A  
HETATM    9  C   UNL     1      -6.000   7.561  67.905  1.00  0.00    -0.039 C  
HETATM   10  C   UNL     1      -6.328   9.050  67.709  1.00  0.00    -0.056 C  
HETATM   11  C   UNL     1      -7.196   8.963  66.372  1.00  0.00    -0.084 C  
BRANCH   4  12
HETATM   12  C   UNL     1     -10.378   6.798  70.063  1.00  0.00    -0.225 C  
HETATM   13  C   UNL     1     -11.758   7.441  69.925  1.00  0.00     0.132 C  
ENDBRANCH   4  12
BRANCH  10  14
HETATM   14  N   UNL     1      -5.190   9.963  67.941  1.00  0.00    -0.035 NA 
HETATM   15  H   UNL     1      -4.345   9.656  67.459  1.00  0.00     0.000 HD 
BRANCH  14  16
HETATM   16  C   UNL     1      -5.588  11.369  67.558  1.00  0.00    -0.056 C  
BRANCH  16  17
HETATM   17  C   UNL     1      -6.869  11.932  68.233  1.00  0.00    -0.066 C  
HETATM   18  H   UNL     1      -7.290  13.485  69.336  1.00  0.00     0.000 HD 
HETATM   19  O   UNL     1      -6.507  13.141  68.923  1.00  0.00    -0.085 OA 
BRANCH  17  20
HETATM   20  C   UNL     1      -7.576  10.964  69.204  1.00  0.00    -0.133 A  
HETATM   21  C   UNL     1      -8.984  10.833  69.268  1.00  0.00    -0.047 A  
HETATM   22  C   UNL     1      -9.890  11.456  68.292  1.00  0.00    -0.202 C  
HETATM   23  C   UNL     1     -11.221  11.369  68.414  1.00  0.00    -0.324 C  
HETATM   24  C   UNL     1     -11.840  10.663  69.567  1.00  0.00    -0.273 C  
HETATM   25  N   UNL     1     -10.990  10.034  70.431  1.00  0.00    -0.301 N  
HETATM   26  O   UNL     1     -13.050  10.644  69.715  1.00  0.00    -0.081 OA 
HETATM   27  H   UNL     1     -11.394   9.512  71.209  1.00  0.00     0.000 HD 
HETATM   28  C   UNL     1      -9.585  10.066  70.308  1.00  0.00    -0.017 A  
HETATM   29  C   UNL     1      -8.791   9.383  71.233  1.00  0.00     0.189 A  
HETATM   30  C   UNL     1      -7.410   9.450  71.142  1.00  0.00     0.008 A  
HETATM   31  O   UNL     1      -9.304   8.616  72.245  1.00  0.00    -0.276 OA 
HETATM   32  C   UNL     1      -6.811  10.223  70.139  1.00  0.00    -0.152 A  
HETATM   33  H   UNL     1      -8.765   8.152  72.874  1.00  0.00     0.000 HD 
ENDBRANCH  17  20
ENDBRANCH  16  17
ENDBRANCH  14  16
ENDBRANCH  10  14
ENDBRANCH   2   3
TORSDOF 6
ENDMDL
MODEL      359
REMARK 921   NORMALIZED FREE ENERGY PREDICTED BY IDOCK:    5.66 KCAL/MOL
REMARK 922        TOTAL FREE ENERGY PREDICTED BY IDOCK:    6.37 KCAL/MOL
REMARK 923 INTER-LIGAND FREE ENERGY PREDICTED BY IDOCK:    3.24 KCAL/MOL
REMARK 924 INTRA-LIGAND FREE ENERGY PREDICTED BY IDOCK:    3.13 KCAL/MOL
REMARK 927      BINDING AFFINITY PREDICTED BY RF-SCORE:    0.00 PKD
ROOT
HETATM    1  C   UNL     1     -10.342  18.336  65.156  1.00  0.00     1.023 C  
HETATM    2  C   UNL     1      -9.360  17.193  65.356  1.00  0.00     0.898 C  
ENDROOT
BRANCH   2   3
HETATM    3  C   UNL     1      -9.875  15.878  65.911  1.00  0.00    -0.383 A  
HETATM    4  C   UNL     1      -9.320  15.429  67.144  1.00  0.00    -0.225 A  
HETATM    5  C   UNL     1     -10.002  14.468  67.891  1.00  0.00    -0.226 A  
HETATM    6  C   UNL     1     -10.779  15.029  65.239  1.00  0.00    -0.406 A  
HETATM    7  C   UNL     1     -11.182  13.868  65.891  1.00  0.00    -0.297 A  
HETATM    8  C   UNL     1     -10.991  13.738  67.269  1.00  0.00    -0.302 A  
HETATM    9  C   UNL     1     -11.445  12.390  67.729  1.00  0.00    -0.383 C  
HETATM   10  C   UNL     1     -10.812  11.622  66.556  1.00  0.00    -0.284 C  
HETATM   11  C   UNL     1     -11.415  12.452  65.332  1.00  0.00    -0.402 C  
BRANCH   4  12
HETATM   12  C   UNL     1      -7.894  15.817  67.504  1.00  0.00    -0.182 C  
HETATM   13  C   UNL     1      -6.789  15.309  66.578  1.00  0.00     1.626 C  
ENDBRANCH   4  12
BRANCH  10  14
HETATM   14  N   UNL     1     -10.843  10.152  66.700  1.00  0.00    -0.082 NA 
HETATM   15  H   UNL     1      -9.977   9.784  67.092  1.00  0.00     0.000 HD 
BRANCH  14  16
HETATM   16  C   UNL     1     -12.053   9.753  67.514  1.00  0.00     3.796 C  
BRANCH  16  17
HETATM   17  C   UNL     1     -11.972  10.010  69.044  1.00  0.00     0.449 C  
HETATM   18  H   UNL     1     -11.765  11.583  70.179  1.00  0.00     0.000 HD 
HETATM   19  O   UNL     1     -11.815  11.426  69.243  1.00  0.00    -0.298 OA 
BRANCH  17  20
HETATM   20  C   UNL     1     -10.849   9.249  69.777  1.00  0.00    -0.239 A  
HETATM   21  C   UNL     1     -11.070   8.034  70.470  1.00  0.00    -0.251 A  
HETATM   22  C   UNL     1     -12.336   7.291  70.395  1.00  0.00     0.059 C  
HETATM   23  C   UNL     1     -12.540   6.179  71.113  1.00  0.00     0.643 C  
HETATM   24  C   UNL     1     -11.502   5.667  72.045  1.00  0.00    -0.133 C  
HETATM   25  N   UNL     1     -10.307   6.328  72.058  1.00  0.00    -0.200 N  
HETATM   26  O   UNL     1     -11.715   4.695  72.750  1.00  0.00    -0.023 OA 
HETATM   27  H   UNL     1      -9.567   5.973  72.662  1.00  0.00     0.000 HD 
HETATM   28  C   UNL     1     -10.040   7.475  71.282  1.00  0.00    -0.187 A  
HETATM   29  C   UNL     1      -8.783   8.083  71.349  1.00  0.00    -0.136 A  
HETATM   30  C   UNL     1      -8.534   9.236  70.623  1.00  0.00    -0.258 A  
HETATM   31  O   UNL     1      -7.748   7.589  72.095  1.00  0.00    -0.085 OA 
HETATM   32  C   UNL     1      -9.548   9.807  69.843  1.00  0.00    -0.269 A  
HETATM   33  H   UNL     1      -6.894   8.002  72.141  1.00  0.00     0.000 HD 
ENDBRANCH  17  20
ENDBRANCH  16  17
ENDBRANCH  14  16
ENDBRANCH  10  14
ENDBRANCH   2   3
TORSDOF 6
ENDMDL
MODEL      360
REMARK 921   NORMALIZED FREE ENERGY PREDICTED BY IDOCK:    5.81 KCAL/MOL
REMARK 922        TOTAL FREE ENERGY PREDICTED BY IDOCK:    6.58 KCAL/MOL
REMARK 923 INTER-LIGAND FREE ENERGY PREDICTED BY IDOCK:    3.24 KCAL/MOL
REMARK 924 INTRA-LIGAND FREE ENERGY PREDICTED BY IDOCK:    3.33 KCAL/MOL
REMARK 927      BINDING AFFINITY PREDICTED BY RF-SCORE:    0.00 PKD
ROOT
HETATM    1  C   UNL     1     -11.838  19.814  67.928  1.00  0.00     2.107 C  
HETATM    2  C   UNL     1     -11.279  18.793  68.904  1.00  0.00     1.849 C  
ENDROOT
BRANCH   2   3
HETATM    3  C   UNL     1     -10.610  17.548  68.353  1.00  0.00    -0.339 A  
HETATM    4  C   UNL     1      -9.641  17.730  67.324  1.00  0.00    -0.272 A  
HETATM    5  C   UNL     1      -8.727  16.709  67.057  1.00  0.00    -0.223 A  
HETATM    6  C   UNL     1     -10.959  16.230  68.712  1.00  0.00    -0.343 A  
HETATM    7  C   UNL     1     -10.232  15.190  68.142  1.00  0.00    -0.227 A  
HETATM    8  C   UNL     1      -9.000  15.447  67.538  1.00  0.00    -0.191 A  
HETATM    9  C   UNL     1      -8.440  14.193  66.947  1.00  0.00    -0.117 C  
HETATM   10  C   UNL     1      -9.771  13.721  66.338  1.00  0.00    -0.294 C  
HETATM   11  C   UNL     1     -10.709  13.818  67.627  1.00  0.00    -0.256 C  
BRANCH   4  12
HETATM   12  C   UNL     1      -9.767  18.917  66.383  1.00  0.00    -0.395 C  
HETATM   13  C   UNL     1      -9.708  20.307  67.017  1.00  0.00    -0.598 C  
ENDBRANCH   4  12
BRANCH  10  14
HETATM   14  N   UNL     1      -9.653  12.550  65.444  1.00  0.00    -0.456 NA 
HETATM   15  H   UNL     1      -9.605  11.673  65.961  1.00  0.00     0.000 HD 
BRANCH  14  16
HETATM   16  C   UNL     1     -10.789  12.565  64.447  1.00  0.00    -0.342 C  
BRANCH  16  17
HETATM   17  C   UNL     1     -10.925  11.313  63.536  1.00  0.00    -0.245 C  
HETATM   18  H   UNL     1     -12.409  10.263  62.829  1.00  0.00     0.000 HD 
HETATM   19  O   UNL     1     -12.326  11.029  63.386  1.00  0.00     0.613 OA 
BRANCH  17  20
HETATM   20  C   UNL     1     -10.184  10.056  64.037  1.00  0.00     0.582 A  
HETATM   21  C   UNL     1     -10.370   9.522  65.335  1.00  0.00     0.463 A  
HETATM   22  C   UNL     1     -11.419   9.994  66.251  1.00  0.00     1.568 C  
HETATM   23  C   UNL     1     -11.530   9.516  67.497  1.00  0.00     0.976 C  
HETATM   24  C   UNL     1     -10.571   8.507  68.019  1.00  0.00    -0.137 C  
HETATM   25  N   UNL     1      -9.642   8.029  67.139  1.00  0.00    -0.162 N  
HETATM   26  O   UNL     1     -10.630   8.124  69.175  1.00  0.00    -0.219 OA 
HETATM   27  H   UNL     1      -8.998   7.309  67.464  1.00  0.00     0.000 HD 
HETATM   28  C   UNL     1      -9.525   8.476  65.806  1.00  0.00    -0.064 A  
HETATM   29  C   UNL     1      -8.551   7.922  64.971  1.00  0.00     0.015 A  
HETATM   30  C   UNL     1      -8.403   8.392  63.676  1.00  0.00    -0.050 A  
HETATM   31  O   UNL     1      -7.719   6.905  65.356  1.00  0.00    -0.093 OA 
HETATM   32  C   UNL     1      -9.212   9.438  63.213  1.00  0.00     0.093 A  
HETATM   33  H   UNL     1      -7.057   6.529  64.789  1.00  0.00     0.000 HD 
ENDBRANCH  17  20
ENDBRANCH  16  17
ENDBRANCH  14  16
ENDBRANCH  10  14
ENDBRANCH   2   3
TORSDOF 6
ENDMDL
MODEL      361
REMARK 921   NORMALIZED FREE ENERGY PREDICTED BY IDOCK:    6.70 KCAL/MOL
REMARK 922        TOTAL FREE ENERGY PREDICTED BY IDOCK:    7.77 KCAL/MOL
REMARK 923 INTER-LIGAND FREE ENERGY PREDICTED BY IDOCK:    0.78 KCAL/MOL
REMARK 924 INTRA-LIGAND FREE ENERGY PREDICTED BY IDOCK:    6.99 KCAL/MOL
REMARK 927      BINDING AFFINITY PREDICTED BY RF-SCORE:    0.00 PKD
ROOT
HETATM    1  C   UNL     1      -7.300   9.794  68.476  1.00  0.00    -0.074 C  
HETATM    2  C   UNL     1      -7.275   9.768  66.956  1.00  0.00    -0.090 C  
ENDROOT
BRANCH   2   3
HETATM    3  C   UNL     1      -8.272  10.621  66.195  1.00  0.00    -0.156 A  
HETATM    4  C   UNL     1      -8.360  10.421  64.787  1.00  0.00    -0.157 A  
HETATM    5  C   UNL     1      -9.492  10.866  64.103  1.00  0.00    -0.295 A  
HETATM    6  C   UNL     1      -9.030  11.662  66.768  1.00  0.00    -0.189 A  
HETATM    7  C   UNL     1      -9.927  12.337  65.946  1.00  0.00    -0.272 A  
HETATM    8  C   UNL     1     -10.315  11.777  64.727  1.00  0.00    -0.333 A  
HETATM    9  C   UNL     1     -11.231  12.709  63.998  1.00  0.00    -0.459 C  
HETATM   10  C   UNL     1     -10.410  13.974  64.299  1.00  0.00     0.310 C  
HETATM   11  C   UNL     1     -10.273  13.837  65.885  1.00  0.00    -0.322 C  
BRANCH   4  12
HETATM   12  C   UNL     1      -7.132   9.951  64.023  1.00  0.00    -0.127 C  
HETATM   13  C   UNL     1      -5.819  10.673  64.320  1.00  0.00    -0.002 C  
ENDBRANCH   4  12
BRANCH  10  14
HETATM   14  N   UNL     1     -10.858  15.180  63.573  1.00  0.00     1.382 NA 
HETATM   15  H   UNL     1     -11.314  14.953  62.690  1.00  0.00     0.000 HD 
BRANCH  14  16
HETATM   16  C   UNL     1     -11.744  16.009  64.476  1.00  0.00    -0.127 C  
BRANCH  16  17
HETATM   17  C   UNL     1     -11.084  17.245  65.147  1.00  0.00     0.256 C  
HETATM   18  H   UNL     1      -9.457  18.281  64.853  1.00  0.00     0.000 HD 
HETATM   19  O   UNL     1      -9.861  17.525  64.442  1.00  0.00     2.851 OA 
BRANCH  17  20
HETATM   20  C   UNL     1     -10.799  17.096  66.655  1.00  0.00     0.043 A  
HETATM   21  C   UNL     1     -11.175  15.951  67.398  1.00  0.00    -0.134 A  
HETATM   22  C   UNL     1     -11.694  14.727  66.772  1.00  0.00    -0.309 C  
HETATM   23  C   UNL     1     -12.103  13.683  67.505  1.00  0.00    -0.352 C  
HETATM   24  C   UNL     1     -12.082  13.734  68.990  1.00  0.00    -0.322 C  
HETATM   25  N   UNL     1     -11.538  14.850  69.559  1.00  0.00    -0.285 N  
HETATM   26  O   UNL     1     -12.520  12.811  69.656  1.00  0.00    -0.055 OA 
HETATM   27  H   UNL     1     -11.479  14.891  70.577  1.00  0.00     0.000 HD 
HETATM   28  C   UNL     1     -11.055  15.949  68.819  1.00  0.00    -0.328 A  
HETATM   29  C   UNL     1     -10.504  17.047  69.485  1.00  0.00    -0.182 A  
HETATM   30  C   UNL     1     -10.071  18.147  68.762  1.00  0.00    -0.392 A  
HETATM   31  O   UNL     1     -10.345  17.101  70.843  1.00  0.00     1.289 OA 
HETATM   32  C   UNL     1     -10.209  18.169  67.368  1.00  0.00    -0.383 A  
HETATM   33  H   UNL     1      -9.971  17.848  71.296  1.00  0.00     0.000 HD 
ENDBRANCH  17  20
ENDBRANCH  16  17
ENDBRANCH  14  16
ENDBRANCH  10  14
ENDBRANCH   2   3
TORSDOF 6
ENDMDL
MODEL      362
REMARK 921   NORMALIZED FREE ENERGY PREDICTED BY IDOCK:   10.26 KCAL/MOL
REMARK 922        TOTAL FREE ENERGY PREDICTED BY IDOCK:   12.58 KCAL/MOL
REMARK 923 INTER-LIGAND FREE ENERGY PREDICTED BY IDOCK:   12.44 KCAL/MOL
REMARK 924 INTRA-LIGAND FREE ENERGY PREDICTED BY IDOCK:    0.14 KCAL/MOL
REMARK 927      BINDING AFFINITY PREDICTED BY RF-SCORE:    0.00 PKD
ROOT
HETATM    1  C   UNL     1     -10.495  14.357  72.770  1.00  0.00     4.358 C  
HETATM    2  C   UNL     1     -11.753  14.992  72.199  1.00  0.00    -0.437 C  
ENDROOT
BRANCH   2   3
HETATM    3  C   UNL     1     -11.647  15.787  70.911  1.00  0.00    -0.440 A  
HETATM    4  C   UNL     1     -12.610  15.514  69.896  1.00  0.00    -0.168 A  
HETATM    5  C   UNL     1     -12.816  16.448  68.880  1.00  0.00     2.390 A  
HETATM    6  C   UNL     1     -10.606  16.690  70.615  1.00  0.00     0.556 A  
HETATM    7  C   UNL     1     -10.663  17.368  69.401  1.00  0.00     0.124 A  
HETATM    8  C   UNL     1     -11.862  17.424  68.688  1.00  0.00     1.796 A  
HETATM    9  C   UNL     1     -11.662  18.149  67.395  1.00  0.00     1.739 C  
HETATM   10  C   UNL     1     -10.329  17.462  67.055  1.00  0.00    -0.318 C  
HETATM   11  C   UNL     1      -9.534  17.723  68.415  1.00  0.00    -0.297 C  
BRANCH   4  12
HETATM   12  C   UNL     1     -13.216  14.123  69.799  1.00  0.00     0.960 C  
HETATM   13  C   UNL     1     -14.328  13.786  70.793  1.00  0.00     1.615 C  
ENDBRANCH   4  12
BRANCH  10  14
HETATM   14  N   UNL     1      -9.827  17.742  65.694  1.00  0.00    -0.473 NA 
HETATM   15  H   UNL     1      -8.955  18.270  65.706  1.00  0.00     0.000 HD 
BRANCH  14  16
HETATM   16  C   UNL     1      -9.699  16.445  64.929  1.00  0.00     1.379 C  
BRANCH  16  17
HETATM   17  C   UNL     1     -11.001  15.891  64.287  1.00  0.00     0.213 C  
HETATM   18  H   UNL     1     -12.912  16.186  64.545  1.00  0.00     0.000 HD 
HETATM   19  O   UNL     1     -12.116  16.525  64.938  1.00  0.00     0.529 OA 
BRANCH  17  20
HETATM   20  C   UNL     1     -11.160  14.358  64.347  1.00  0.00    -0.203 A  
HETATM   21  C   UNL     1     -10.580  13.566  65.367  1.00  0.00    -0.313 A  
HETATM   22  C   UNL     1      -9.944  14.141  66.561  1.00  0.00    -0.289 C  
HETATM   23  C   UNL     1      -9.346  13.369  67.478  1.00  0.00    -0.218 C  
HETATM   24  C   UNL     1      -9.274  11.894  67.309  1.00  0.00    -0.179 C  
HETATM   25  N   UNL     1      -9.924  11.366  66.230  1.00  0.00    -0.217 N  
HETATM   26  O   UNL     1      -8.669  11.199  68.108  1.00  0.00    -0.132 OA 
HETATM   27  H   UNL     1      -9.919  10.353  66.114  1.00  0.00     0.000 HD 
HETATM   28  C   UNL     1     -10.602  12.144  65.269  1.00  0.00    -0.281 A  
HETATM   29  C   UNL     1     -11.252  11.518  64.201  1.00  0.00    -0.314 A  
HETATM   30  C   UNL     1     -11.879  12.283  63.230  1.00  0.00    -0.476 A  
HETATM   31  O   UNL     1     -11.324  10.159  64.057  1.00  0.00     1.485 OA 
HETATM   32  C   UNL     1     -11.840  13.681  63.305  1.00  0.00     0.052 A  
HETATM   33  H   UNL     1     -11.765   9.734  63.331  1.00  0.00     0.000 HD 
ENDBRANCH  17  20
ENDBRANCH  16  17
ENDBRANCH  14  16
ENDBRANCH  10  14
ENDBRANCH   2   3
TORSDOF 6
ENDMDL
MODEL      363
REMARK 921   NORMALIZED FREE ENERGY PREDICTED BY IDOCK:   16.23 KCAL/MOL
REMARK 922        TOTAL FREE ENERGY PREDICTED BY IDOCK:   20.64 KCAL/MOL
REMARK 923 INTER-LIGAND FREE ENERGY PREDICTED BY IDOCK:   10.59 KCAL/MOL
REMARK 924 INTRA-LIGAND FREE ENERGY PREDICTED BY IDOCK:   10.05 KCAL/MOL
REMARK 927      BINDING AFFINITY PREDICTED BY RF-SCORE:    0.00 PKD
ROOT
HETATM    1  C   UNL     1     -12.478  19.840  68.232  1.00  0.00     5.227 C  
HETATM    2  C   UNL     1     -12.171  18.752  69.248  1.00  0.00     8.784 C  
ENDROOT
BRANCH   2   3
HETATM    3  C   UNL     1     -11.135  17.701  68.899  1.00  0.00     0.574 A  
HETATM    4  C   UNL     1     -10.051  18.105  68.066  1.00  0.00    -0.376 A  
HETATM    5  C   UNL     1      -8.891  17.330  68.030  1.00  0.00    -0.238 A  
HETATM    6  C   UNL     1     -11.232  16.339  69.251  1.00  0.00    -0.312 A  
HETATM    7  C   UNL     1     -10.184  15.500  68.884  1.00  0.00    -0.210 A  
HETATM    8  C   UNL     1      -8.951  16.041  68.514  1.00  0.00    -0.200 A  
HETATM    9  C   UNL     1      -8.010  14.954  68.105  1.00  0.00    -0.130 C  
HETATM   10  C   UNL     1      -9.047  14.176  67.278  1.00  0.00    -0.213 C  
HETATM   11  C   UNL     1     -10.217  14.052  68.358  1.00  0.00    -0.239 C  
BRANCH   4  12
HETATM   12  C   UNL     1     -10.263  19.224  67.059  1.00  0.00    -0.495 C  
HETATM   13  C   UNL     1     -10.117  18.856  65.582  1.00  0.00     0.115 C  
ENDBRANCH   4  12
BRANCH  10  14
HETATM   14  N   UNL     1      -8.485  13.064  66.484  1.00  0.00    -0.410 NA 
HETATM   15  H   UNL     1      -8.334  12.226  67.045  1.00  0.00     0.000 HD 
BRANCH  14  16
HETATM   16  C   UNL     1      -9.376  12.799  65.292  1.00  0.00     0.385 C  
BRANCH  16  17
HETATM   17  C   UNL     1      -9.321  11.366  64.693  1.00  0.00    -0.083 C  
HETATM   18  H   UNL     1     -10.637  10.000  64.240  1.00  0.00     0.000 HD 
HETATM   19  O   UNL     1     -10.670  10.876  64.606  1.00  0.00    -0.308 OA 
BRANCH  17  20
HETATM   20  C   UNL     1      -8.447  10.364  65.474  1.00  0.00    -0.171 A  
HETATM   21  C   UNL     1      -7.973  10.617  66.784  1.00  0.00    -0.132 A  
HETATM   22  C   UNL     1      -8.423  11.761  67.590  1.00  0.00    -0.149 C  
HETATM   23  C   UNL     1      -7.908  12.012  68.801  1.00  0.00    -0.033 C  
HETATM   24  C   UNL     1      -6.831  11.159  69.367  1.00  0.00    -0.125 C  
HETATM   25  N   UNL     1      -6.467  10.063  68.638  1.00  0.00    -0.049 N  
HETATM   26  O   UNL     1      -6.315  11.429  70.439  1.00  0.00    -0.257 OA 
HETATM   27  H   UNL     1      -5.756   9.443  69.025  1.00  0.00     0.000 HD 
HETATM   28  C   UNL     1      -7.019   9.742  67.381  1.00  0.00    -0.084 A  
HETATM   29  C   UNL     1      -6.595   8.592  66.709  1.00  0.00    -0.061 A  
HETATM   30  C   UNL     1      -7.102   8.299  65.454  1.00  0.00    -0.067 A  
HETATM   31  O   UNL     1      -5.696   7.703  67.233  1.00  0.00    -0.033 OA 
HETATM   32  C   UNL     1      -8.019   9.167  64.848  1.00  0.00    -0.123 A  
HETATM   33  H   UNL     1      -5.407   6.922  66.776  1.00  0.00     0.000 HD 
ENDBRANCH  17  20
ENDBRANCH  16  17
ENDBRANCH  14  16
ENDBRANCH  10  14
ENDBRANCH   2   3
TORSDOF 6
ENDMDL
MODEL      364
REMARK 921   NORMALIZED FREE ENERGY PREDICTED BY IDOCK:   16.38 KCAL/MOL
REMARK 922        TOTAL FREE ENERGY PREDICTED BY IDOCK:   20.85 KCAL/MOL
REMARK 923 INTER-LIGAND FREE ENERGY PREDICTED BY IDOCK:   20.76 KCAL/MOL
REMARK 924 INTRA-LIGAND FREE ENERGY PREDICTED BY IDOCK:    0.09 KCAL/MOL
REMARK 927      BINDING AFFINITY PREDICTED BY RF-SCORE:    0.00 PKD
ROOT
HETATM    1  C   UNL     1     -10.417  17.720  73.808  1.00  0.00     4.995 C  
HETATM    2  C   UNL     1     -10.209  16.318  73.259  1.00  0.00     7.080 C  
ENDROOT
BRANCH   2   3
HETATM    3  C   UNL     1      -9.841  16.156  71.796  1.00  0.00     4.360 A  
HETATM    4  C   UNL     1     -10.800  15.530  70.948  1.00  0.00    -0.248 A  
HETATM    5  C   UNL     1     -10.704  15.700  69.566  1.00  0.00    -0.271 A  
HETATM    6  C   UNL     1      -8.582  16.483  71.250  1.00  0.00     6.688 A  
HETATM    7  C   UNL     1      -8.405  16.306  69.882  1.00  0.00     0.814 A  
HETATM    8  C   UNL     1      -9.514  16.162  69.046  1.00  0.00    -0.246 A  
HETATM    9  C   UNL     1      -9.074  15.925  67.637  1.00  0.00    -0.200 C  
HETATM   10  C   UNL     1      -7.965  14.925  68.004  1.00  0.00    -0.129 C  
HETATM   11  C   UNL     1      -7.183  15.779  69.105  1.00  0.00    -0.192 C  
BRANCH   4  12
HETATM   12  C   UNL     1     -11.756  14.504  71.534  1.00  0.00    -0.191 C  
HETATM   13  C   UNL     1     -13.099  15.027  72.042  1.00  0.00    -0.440 C  
ENDBRANCH   4  12
BRANCH  10  14
HETATM   14  N   UNL     1      -7.351  14.240  66.848  1.00  0.00    -0.278 NA 
HETATM   15  H   UNL     1      -7.028  14.896  66.138  1.00  0.00     0.000 HD 
BRANCH  14  16
HETATM   16  C   UNL     1      -6.244  13.332  67.332  1.00  0.00     0.006 C  
BRANCH  16  17
HETATM   17  C   UNL     1      -6.577  12.427  68.551  1.00  0.00    -0.073 C  
HETATM   18  H   UNL     1      -6.105  12.418  70.443  1.00  0.00     0.000 HD 
HETATM   19  O   UNL     1      -5.902  12.971  69.698  1.00  0.00    -0.094 OA 
BRANCH  17  20
HETATM   20  C   UNL     1      -6.209  10.939  68.381  1.00  0.00    -0.046 A  
HETATM   21  C   UNL     1      -6.599  10.176  67.254  1.00  0.00    -0.069 A  
HETATM   22  C   UNL     1      -7.218  10.771  66.061  1.00  0.00    -0.105 C  
HETATM   23  C   UNL     1      -7.636  10.016  65.037  1.00  0.00    -0.139 C  
HETATM   24  C   UNL     1      -7.521   8.535  65.079  1.00  0.00    -0.089 C  
HETATM   25  N   UNL     1      -6.887   7.998  66.163  1.00  0.00    -0.057 N  
HETATM   26  O   UNL     1      -7.965   7.844  64.178  1.00  0.00    -0.138 OA 
HETATM   27  H   UNL     1      -6.763   6.986  66.197  1.00  0.00     0.000 HD 
HETATM   28  C   UNL     1      -6.392   8.765  67.239  1.00  0.00    -0.057 A  
HETATM   29  C   UNL     1      -5.745   8.133  68.304  1.00  0.00    -0.034 A  
HETATM   30  C   UNL     1      -5.300   8.879  69.383  1.00  0.00    -0.035 A  
HETATM   31  O   UNL     1      -5.501   6.787  68.344  1.00  0.00    -0.015 OA 
HETATM   32  C   UNL     1      -5.522  10.262  69.418  1.00  0.00    -0.038 A  
HETATM   33  H   UNL     1      -5.062   6.357  69.068  1.00  0.00     0.000 HD 
ENDBRANCH  17  20
ENDBRANCH  16  17
ENDBRANCH  14  16
ENDBRANCH  10  14
ENDBRANCH   2   3
TORSDOF 6
ENDMDL
MODEL      365
REMARK 921   NORMALIZED FREE ENERGY PREDICTED BY IDOCK:   16.80 KCAL/MOL
REMARK 922        TOTAL FREE ENERGY PREDICTED BY IDOCK:   21.42 KCAL/MOL
REMARK 923 INTER-LIGAND FREE ENERGY PREDICTED BY IDOCK:   16.52 KCAL/MOL
REMARK 924 INTRA-LIGAND FREE ENERGY PREDICTED BY IDOCK:    4.90 KCAL/MOL
REMARK 927      BINDING AFFINITY PREDICTED BY RF-SCORE:    0.00 PKD
ROOT
HETATM    1  C   UNL     1     -10.620   9.801  71.538  1.00  0.00     0.154 C  
HETATM    2  C   UNL     1     -11.359  11.081  71.183  1.00  0.00     0.792 C  
ENDROOT
BRANCH   2   3
HETATM    3  C   UNL     1     -10.634  12.140  70.373  1.00  0.00     2.304 A  
HETATM    4  C   UNL     1     -11.330  12.700  69.263  1.00  0.00    -0.306 A  
HETATM    5  C   UNL     1     -10.902  13.917  68.730  1.00  0.00    -0.282 A  
HETATM    6  C   UNL     1      -9.293  12.521  70.579  1.00  0.00     6.473 A  
HETATM    7  C   UNL     1      -8.776  13.530  69.772  1.00  0.00     1.912 A  
HETATM    8  C   UNL     1      -9.638  14.362  69.054  1.00  0.00    -0.059 A  
HETATM    9  C   UNL     1      -8.854  15.322  68.218  1.00  0.00    -0.171 C  
HETATM   10  C   UNL     1      -7.835  14.280  67.728  1.00  0.00    -0.165 C  
HETATM   11  C   UNL     1      -7.382  13.664  69.130  1.00  0.00     0.047 C  
BRANCH   4  12
HETATM   12  C   UNL     1     -12.364  11.860  68.529  1.00  0.00     0.370 C  
HETATM   13  C   UNL     1     -12.417  10.373  68.882  1.00  0.00     0.912 C  
ENDBRANCH   4  12
BRANCH  10  14
HETATM   14  N   UNL     1      -6.930  14.763  66.665  1.00  0.00     0.106 NA 
HETATM   15  H   UNL     1      -6.271  14.046  66.364  1.00  0.00     0.000 HD 
BRANCH  14  16
HETATM   16  C   UNL     1      -7.749  15.305  65.516  1.00  0.00     4.790 C  
BRANCH  16  17
HETATM   17  C   UNL     1      -9.196  15.758  65.854  1.00  0.00    -0.302 C  
HETATM   18  H   UNL     1     -10.950  15.535  65.029  1.00  0.00     0.000 HD 
HETATM   19  O   UNL     1     -10.065  15.258  64.822  1.00  0.00    -0.224 OA 
BRANCH  17  20
HETATM   20  C   UNL     1      -9.386  17.281  66.007  1.00  0.00    -0.128 A  
HETATM   21  C   UNL     1      -8.773  18.030  67.041  1.00  0.00    -0.253 A  
HETATM   22  C   UNL     1      -7.755  17.469  67.939  1.00  0.00    -0.213 C  
HETATM   23  C   UNL     1      -7.240  18.182  68.950  1.00  0.00    -0.268 C  
HETATM   24  C   UNL     1      -7.704  19.566  69.225  1.00  0.00    -0.159 C  
HETATM   25  N   UNL     1      -8.602  20.100  68.345  1.00  0.00    -0.051 N  
HETATM   26  O   UNL     1      -7.286  20.190  70.186  1.00  0.00    -0.012 OA 
HETATM   27  H   UNL     1      -8.907  21.062  68.492  1.00  0.00     0.000 HD 
HETATM   28  C   UNL     1      -9.132  19.395  67.244  1.00  0.00    -0.298 A  
HETATM   29  C   UNL     1     -10.038  20.024  66.387  1.00  0.00    -0.487 A  
HETATM   30  C   UNL     1     -10.595  19.319  65.332  1.00  0.00     0.036 A  
HETATM   31  O   UNL     1     -10.412  21.335  66.517  1.00  0.00     0.936 OA 
HETATM   32  C   UNL     1     -10.269  17.971  65.140  1.00  0.00     1.069 A  
HETATM   33  H   UNL     1     -11.029  21.762  65.935  1.00  0.00     0.000 HD 
ENDBRANCH  17  20
ENDBRANCH  16  17
ENDBRANCH  14  16
ENDBRANCH  10  14
ENDBRANCH   2   3
TORSDOF 6
ENDMDL
MODEL      366
REMARK 921   NORMALIZED FREE ENERGY PREDICTED BY IDOCK:   21.82 KCAL/MOL
REMARK 922        TOTAL FREE ENERGY PREDICTED BY IDOCK:   28.20 KCAL/MOL
REMARK 923 INTER-LIGAND FREE ENERGY PREDICTED BY IDOCK:   28.94 KCAL/MOL
REMARK 924 INTRA-LIGAND FREE ENERGY PREDICTED BY IDOCK:   -0.74 KCAL/MOL
REMARK 927      BINDING AFFINITY PREDICTED BY RF-SCORE:    0.00 PKD
ROOT
HETATM    1  C   UNL     1     -10.269  17.857  74.037  1.00  0.00     6.154 C  
HETATM    2  C   UNL     1     -10.222  16.379  73.684  1.00  0.00     8.243 C  
ENDROOT
BRANCH   2   3
HETATM    3  C   UNL     1      -9.719  15.974  72.311  1.00  0.00     6.264 A  
HETATM    4  C   UNL     1     -10.693  15.790  71.288  1.00  0.00     0.221 A  
HETATM    5  C   UNL     1     -10.292  15.806  69.951  1.00  0.00    -0.313 A  
HETATM    6  C   UNL     1      -8.375  15.665  72.014  1.00  0.00     7.524 A  
HETATM    7  C   UNL     1      -8.062  15.337  70.699  1.00  0.00     1.613 A  
HETATM    8  C   UNL     1      -8.952  15.652  69.669  1.00  0.00    -0.136 A  
HETATM    9  C   UNL     1      -8.429  15.150  68.361  1.00  0.00    -0.157 C  
HETATM   10  C   UNL     1      -7.975  13.785  68.907  1.00  0.00     0.036 C  
HETATM   11  C   UNL     1      -7.097  14.269  70.150  1.00  0.00     0.243 C  
BRANCH   4  12
HETATM   12  C   UNL     1     -12.096  15.341  71.666  1.00  0.00    -0.429 C  
HETATM   13  C   UNL     1     -13.122  16.444  71.931  1.00  0.00     0.948 C  
ENDBRANCH   4  12
BRANCH  10  14
HETATM   14  N   UNL     1      -7.547  12.824  67.870  1.00  0.00    -0.123 NA 
HETATM   15  H   UNL     1      -6.730  13.151  67.355  1.00  0.00     0.000 HD 
BRANCH  14  16
HETATM   16  C   UNL     1      -7.319  11.471  68.505  1.00  0.00    -0.104 C  
BRANCH  16  17
HETATM   17  C   UNL     1      -8.408  10.983  69.500  1.00  0.00     0.282 C  
HETATM   18  H   UNL     1      -8.506  10.718  71.430  1.00  0.00     0.000 HD 
HETATM   19  O   UNL     1      -7.840  11.017  70.821  1.00  0.00     1.588 OA 
BRANCH  17  20
HETATM   20  C   UNL     1      -8.979   9.581  69.210  1.00  0.00    -0.160 A  
HETATM   21  C   UNL     1     -10.202   9.122  69.756  1.00  0.00    -0.219 A  
HETATM   22  C   UNL     1     -11.129   9.997  70.487  1.00  0.00    -0.400 C  
HETATM   23  C   UNL     1     -12.248   9.521  71.049  1.00  0.00    -0.385 C  
HETATM   24  C   UNL     1     -12.582   8.074  70.984  1.00  0.00    -0.071 C  
HETATM   25  N   UNL     1     -11.747   7.282  70.248  1.00  0.00    -0.516 N  
HETATM   26  O   UNL     1     -13.564   7.630  71.555  1.00  0.00    -0.368 OA 
HETATM   27  H   UNL     1     -11.977   6.293  70.159  1.00  0.00     0.000 HD 
HETATM   28  C   UNL     1     -10.586   7.757  69.604  1.00  0.00    -0.242 A  
HETATM   29  C   UNL     1      -9.794   6.877  68.861  1.00  0.00    -0.147 A  
HETATM   30  C   UNL     1      -8.628   7.331  68.266  1.00  0.00    -0.123 A  
HETATM   31  O   UNL     1     -10.114   5.561  68.664  1.00  0.00    -0.157 OA 
HETATM   32  C   UNL     1      -8.230   8.664  68.432  1.00  0.00    -0.122 A  
HETATM   33  H   UNL     1      -9.576   4.962  68.159  1.00  0.00     0.000 HD 
ENDBRANCH  17  20
ENDBRANCH  16  17
ENDBRANCH  14  16
ENDBRANCH  10  14
ENDBRANCH   2   3
TORSDOF 6
ENDMDL
MODEL      367
REMARK 921   NORMALIZED FREE ENERGY PREDICTED BY IDOCK:   23.53 KCAL/MOL
REMARK 922        TOTAL FREE ENERGY PREDICTED BY IDOCK:   30.50 KCAL/MOL
REMARK 923 INTER-LIGAND FREE ENERGY PREDICTED BY IDOCK:   29.98 KCAL/MOL
REMARK 924 INTRA-LIGAND FREE ENERGY PREDICTED BY IDOCK:    0.52 KCAL/MOL
REMARK 927      BINDING AFFINITY PREDICTED BY RF-SCORE:    0.00 PKD
ROOT
HETATM    1  C   UNL     1     -11.844  12.204  72.193  1.00  0.00     3.029 C  
HETATM    2  C   UNL     1     -11.667  13.712  72.252  1.00  0.00     1.817 C  
ENDROOT
BRANCH   2   3
HETATM    3  C   UNL     1     -12.099  14.544  71.059  1.00  0.00    -0.409 A  
HETATM    4  C   UNL     1     -12.467  13.842  69.875  1.00  0.00    -0.285 A  
HETATM    5  C   UNL     1     -13.228  14.494  68.903  1.00  0.00     2.324 A  
HETATM    6  C   UNL     1     -12.055  15.952  71.012  1.00  0.00    -0.438 A  
HETATM    7  C   UNL     1     -12.513  16.575  69.855  1.00  0.00     1.547 A  
HETATM    8  C   UNL     1     -13.304  15.869  68.947  1.00  0.00     3.081 A  
HETATM    9  C   UNL     1     -13.620  16.723  67.761  1.00  0.00     7.340 C  
HETATM   10  C   UNL     1     -12.198  17.291  67.616  1.00  0.00     2.633 C  
HETATM   11  C   UNL     1     -11.957  17.803  69.109  1.00  0.00     3.997 C  
BRANCH   4  12
HETATM   12  C   UNL     1     -11.831  12.493  69.579  1.00  0.00    -0.375 C  
HETATM   13  C   UNL     1     -10.312  12.473  69.403  1.00  0.00     0.442 C  
ENDBRANCH   4  12
BRANCH  10  14
HETATM   14  N   UNL     1     -11.978  18.080  66.386  1.00  0.00     3.084 NA 
HETATM   15  H   UNL     1     -11.051  18.504  66.361  1.00  0.00     0.000 HD 
BRANCH  14  16
HETATM   16  C   UNL     1     -12.243  17.212  65.178  1.00  0.00     3.924 C  
BRANCH  16  17
HETATM   17  C   UNL     1     -11.016  16.470  64.578  1.00  0.00     0.078 C  
HETATM   18  H   UNL     1     -10.486  15.878  62.797  1.00  0.00     0.000 HD 
HETATM   19  O   UNL     1     -11.236  16.332  63.164  1.00  0.00     1.155 OA 
BRANCH  17  20
HETATM   20  C   UNL     1     -10.716  15.092  65.201  1.00  0.00    -0.434 A  
HETATM   21  C   UNL     1      -9.730  14.898  66.198  1.00  0.00    -0.333 A  
HETATM   22  C   UNL     1      -9.040  16.011  66.867  1.00  0.00    -0.251 C  
HETATM   23  C   UNL     1      -8.064  15.797  67.759  1.00  0.00    -0.156 C  
HETATM   24  C   UNL     1      -7.615  14.419  68.087  1.00  0.00    -0.128 C  
HETATM   25  N   UNL     1      -8.306  13.392  67.509  1.00  0.00    -0.178 N  
HETATM   26  O   UNL     1      -6.680  14.228  68.847  1.00  0.00    -0.089 OA 
HETATM   27  H   UNL     1      -8.039  12.438  67.749  1.00  0.00     0.000 HD 
HETATM   28  C   UNL     1      -9.368  13.579  66.600  1.00  0.00    -0.245 A  
HETATM   29  C   UNL     1     -10.028  12.470  66.065  1.00  0.00    -0.257 A  
HETATM   30  C   UNL     1     -11.041  12.650  65.137  1.00  0.00    -0.329 A  
HETATM   31  O   UNL     1      -9.741  11.180  66.421  1.00  0.00    -0.194 OA 
HETATM   32  C   UNL     1     -11.385  13.941  64.717  1.00  0.00    -0.365 A  
HETATM   33  H   UNL     1     -10.189  10.425  66.057  1.00  0.00     0.000 HD 
ENDBRANCH  17  20
ENDBRANCH  16  17
ENDBRANCH  14  16
ENDBRANCH  10  14
ENDBRANCH   2   3
TORSDOF 6
ENDMDL
MODEL      368
REMARK 921   NORMALIZED FREE ENERGY PREDICTED BY IDOCK:   23.72 KCAL/MOL
REMARK 922        TOTAL FREE ENERGY PREDICTED BY IDOCK:   30.76 KCAL/MOL
REMARK 923 INTER-LIGAND FREE ENERGY PREDICTED BY IDOCK:   22.74 KCAL/MOL
REMARK 924 INTRA-LIGAND FREE ENERGY PREDICTED BY IDOCK:    8.02 KCAL/MOL
REMARK 927      BINDING AFFINITY PREDICTED BY RF-SCORE:    0.00 PKD
ROOT
HETATM    1  C   UNL     1     -10.208  18.342  64.875  1.00  0.00     2.320 C  
HETATM    2  C   UNL     1      -9.084  17.325  64.765  1.00  0.00     4.333 C  
ENDROOT
BRANCH   2   3
HETATM    3  C   UNL     1      -9.288  15.947  65.367  1.00  0.00     0.192 A  
HETATM    4  C   UNL     1      -8.392  15.549  66.401  1.00  0.00    -0.153 A  
HETATM    5  C   UNL     1      -8.749  14.497  67.247  1.00  0.00    -0.225 A  
HETATM    6  C   UNL     1     -10.226  15.004  64.899  1.00  0.00    -0.260 A  
HETATM    7  C   UNL     1     -10.316  13.791  65.574  1.00  0.00    -0.333 A  
HETATM    8  C   UNL     1      -9.771  13.661  66.853  1.00  0.00    -0.262 A  
HETATM    9  C   UNL     1      -9.936  12.259  67.346  1.00  0.00    -0.205 C  
HETATM   10  C   UNL     1      -9.533  11.596  66.018  1.00  0.00    -0.229 C  
HETATM   11  C   UNL     1     -10.516  12.367  65.022  1.00  0.00    -0.324 C  
BRANCH   4  12
HETATM   12  C   UNL     1      -6.977  16.104  66.417  1.00  0.00     0.484 C  
HETATM   13  C   UNL     1      -5.946  15.383  65.547  1.00  0.00     8.582 C  
ENDBRANCH   4  12
BRANCH  10  14
HETATM   14  N   UNL     1      -9.357  10.132  66.095  1.00  0.00    -0.165 NA 
HETATM   15  H   UNL     1      -8.403   9.870  66.342  1.00  0.00     0.000 HD 
BRANCH  14  16
HETATM   16  C   UNL     1     -10.375   9.553  67.051  1.00  0.00    -0.250 C  
BRANCH  16  17
HETATM   17  C   UNL     1     -10.399  10.158  68.482  1.00  0.00    -0.180 C  
HETATM   18  H   UNL     1     -10.794  11.910  69.243  1.00  0.00     0.000 HD 
HETATM   19  O   UNL     1     -10.779  11.540  68.368  1.00  0.00    -0.189 OA 
BRANCH  17  20
HETATM   20  C   UNL     1      -9.076  10.040  69.265  1.00  0.00    -0.208 A  
HETATM   21  C   UNL     1      -8.407  11.160  69.816  1.00  0.00     0.799 A  
HETATM   22  C   UNL     1      -9.003  12.502  69.863  1.00  0.00     2.982 C  
HETATM   23  C   UNL     1      -8.322  13.557  70.331  1.00  0.00     3.852 C  
HETATM   24  C   UNL     1      -6.917  13.416  70.794  1.00  0.00     1.853 C  
HETATM   25  N   UNL     1      -6.396  12.154  70.806  1.00  0.00     0.037 N  
HETATM   26  O   UNL     1      -6.274  14.389  71.155  1.00  0.00    -0.150 OA 
HETATM   27  H   UNL     1      -5.446  12.028  71.155  1.00  0.00     0.000 HD 
HETATM   28  C   UNL     1      -7.099  11.014  70.364  1.00  0.00     0.743 A  
HETATM   29  C   UNL     1      -6.492   9.757  70.423  1.00  0.00    -0.101 A  
HETATM   30  C   UNL     1      -7.163   8.642  69.946  1.00  0.00    -0.051 A  
HETATM   31  O   UNL     1      -5.247   9.546  70.951  1.00  0.00    -0.032 OA 
HETATM   32  C   UNL     1      -8.438   8.780  69.382  1.00  0.00    -0.125 A  
HETATM   33  H   UNL     1      -4.834   8.692  70.991  1.00  0.00     0.000 HD 
ENDBRANCH  17  20
ENDBRANCH  16  17
ENDBRANCH  14  16
ENDBRANCH  10  14
ENDBRANCH   2   3
TORSDOF 6
ENDMDL
MODEL      369
REMARK 921   NORMALIZED FREE ENERGY PREDICTED BY IDOCK:   23.96 KCAL/MOL
REMARK 922        TOTAL FREE ENERGY PREDICTED BY IDOCK:   31.08 KCAL/MOL
REMARK 923 INTER-LIGAND FREE ENERGY PREDICTED BY IDOCK:   24.53 KCAL/MOL
REMARK 924 INTRA-LIGAND FREE ENERGY PREDICTED BY IDOCK:    6.55 KCAL/MOL
REMARK 927      BINDING AFFINITY PREDICTED BY RF-SCORE:    0.00 PKD
ROOT
HETATM    1  C   UNL     1     -10.427  12.272  71.709  1.00  0.00    10.110 C  
HETATM    2  C   UNL     1      -9.710  13.510  71.194  1.00  0.00     7.555 C  
ENDROOT
BRANCH   2   3
HETATM    3  C   UNL     1     -10.357  14.316  70.083  1.00  0.00     0.688 A  
HETATM    4  C   UNL     1     -11.601  13.843  69.573  1.00  0.00    -0.358 A  
HETATM    5  C   UNL     1     -12.422  14.714  68.857  1.00  0.00     0.069 A  
HETATM    6  C   UNL     1      -9.761  15.429  69.456  1.00  0.00    -0.259 A  
HETATM    7  C   UNL     1     -10.492  16.085  68.471  1.00  0.00    -0.258 A  
HETATM    8  C   UNL     1     -11.870  15.879  68.369  1.00  0.00    -0.129 A  
HETATM    9  C   UNL     1     -12.423  16.638  67.205  1.00  0.00     3.023 C  
HETATM   10  C   UNL     1     -11.283  16.265  66.242  1.00  0.00     0.285 C  
HETATM   11  C   UNL     1     -10.026  16.688  67.132  1.00  0.00    -0.268 C  
BRANCH   4  12
HETATM   12  C   UNL     1     -11.901  12.352  69.606  1.00  0.00    -0.380 C  
HETATM   13  C   UNL     1     -10.789  11.416  69.132  1.00  0.00    -0.260 C  
ENDBRANCH   4  12
BRANCH  10  14
HETATM   14  N   UNL     1     -11.517  16.659  64.837  1.00  0.00    -0.206 NA 
HETATM   15  H   UNL     1     -10.678  16.567  64.266  1.00  0.00     0.000 HD 
BRANCH  14  16
HETATM   16  C   UNL     1     -12.678  15.866  64.281  1.00  0.00     0.949 C  
BRANCH  16  17
HETATM   17  C   UNL     1     -12.334  14.807  63.197  1.00  0.00     1.653 C  
HETATM   18  H   UNL     1     -13.277  14.008  61.688  1.00  0.00     0.000 HD 
HETATM   19  O   UNL     1     -13.487  14.655  62.351  1.00  0.00     3.204 OA 
BRANCH  17  20
HETATM   20  C   UNL     1     -11.897  13.432  63.741  1.00  0.00    -0.483 A  
HETATM   21  C   UNL     1     -10.863  13.278  64.696  1.00  0.00    -0.396 A  
HETATM   22  C   UNL     1     -10.247  14.413  65.397  1.00  0.00    -0.408 C  
HETATM   23  C   UNL     1      -9.226  14.243  66.248  1.00  0.00    -0.181 C  
HETATM   24  C   UNL     1      -8.650  12.895  66.493  1.00  0.00     0.121 C  
HETATM   25  N   UNL     1      -9.271  11.841  65.887  1.00  0.00    -0.333 N  
HETATM   26  O   UNL     1      -7.676  12.750  67.213  1.00  0.00    -0.163 OA 
HETATM   27  H   UNL     1      -8.916  10.903  66.070  1.00  0.00     0.000 HD 
HETATM   28  C   UNL     1     -10.377  11.978  65.021  1.00  0.00    -0.281 A  
HETATM   29  C   UNL     1     -10.959  10.842  64.453  1.00  0.00     0.273 A  
HETATM   30  C   UNL     1     -12.015  10.977  63.566  1.00  0.00     1.049 A  
HETATM   31  O   UNL     1     -10.551   9.566  64.735  1.00  0.00     0.407 OA 
HETATM   32  C   UNL     1     -12.482  12.252  63.221  1.00  0.00    -0.490 A  
HETATM   33  H   UNL     1     -10.946   8.794  64.348  1.00  0.00     0.000 HD 
ENDBRANCH  17  20
ENDBRANCH  16  17
ENDBRANCH  14  16
ENDBRANCH  10  14
ENDBRANCH   2   3
TORSDOF 6
ENDMDL
MODEL      370
REMARK 921   NORMALIZED FREE ENERGY PREDICTED BY IDOCK:   29.83 KCAL/MOL
REMARK 922        TOTAL FREE ENERGY PREDICTED BY IDOCK:   39.01 KCAL/MOL
REMARK 923 INTER-LIGAND FREE ENERGY PREDICTED BY IDOCK:   19.70 KCAL/MOL
REMARK 924 INTRA-LIGAND FREE ENERGY PREDICTED BY IDOCK:   19.31 KCAL/MOL
REMARK 927      BINDING AFFINITY PREDICTED BY RF-SCORE:    0.00 PKD
ROOT
HETATM    1  C   UNL     1      -7.608  10.259  68.404  1.00  0.00    -0.092 C  
HETATM    2  C   UNL     1      -7.804  10.701  66.963  1.00  0.00    -0.117 C  
ENDROOT
BRANCH   2   3
HETATM    3  C   UNL     1      -8.871  11.735  66.657  1.00  0.00    -0.189 A  
HETATM    4  C   UNL     1      -9.146  12.000  65.284  1.00  0.00     0.266 A  
HETATM    5  C   UNL     1     -10.346  12.622  64.935  1.00  0.00    -0.330 A  
HETATM    6  C   UNL     1      -9.522  12.521  67.630  1.00  0.00    -0.188 A  
HETATM    7  C   UNL     1     -10.501  13.408  67.196  1.00  0.00    -0.249 A  
HETATM    8  C   UNL     1     -11.059  13.266  65.923  1.00  0.00    -0.301 A  
HETATM    9  C   UNL     1     -12.038  14.366  65.661  1.00  0.00    -0.359 C  
HETATM   10  C   UNL     1     -11.154  15.481  66.245  1.00  0.00    -0.177 C  
HETATM   11  C   UNL     1     -10.816  14.840  67.668  1.00  0.00    -0.285 C  
BRANCH   4  12
HETATM   12  C   UNL     1      -8.041  11.827  64.255  1.00  0.00     1.899 C  
HETATM   13  C   UNL     1      -8.059  10.535  63.438  1.00  0.00    -0.076 C  
ENDBRANCH   4  12
BRANCH  10  14
HETATM   14  N   UNL     1     -11.663  16.848  66.014  1.00  0.00     1.456 NA 
HETATM   15  H   UNL     1     -12.265  16.903  65.192  1.00  0.00     0.000 HD 
BRANCH  14  16
HETATM   16  C   UNL     1     -12.356  17.344  67.263  1.00  0.00     3.784 C  
BRANCH  16  17
HETATM   17  C   UNL     1     -11.466  18.087  68.297  1.00  0.00     1.216 C  
HETATM   18  H   UNL     1      -9.834  19.151  68.214  1.00  0.00     0.000 HD 
HETATM   19  O   UNL     1     -10.378  18.697  67.581  1.00  0.00    -0.369 OA 
BRANCH  17  20
HETATM   20  C   UNL     1     -10.917  17.207  69.439  1.00  0.00     0.163 A  
HETATM   21  C   UNL     1     -11.206  15.826  69.551  1.00  0.00    -0.317 A  
HETATM   22  C   UNL     1     -11.889  15.064  68.496  1.00  0.00    -0.319 C  
HETATM   23  C   UNL     1     -12.208  13.773  68.656  1.00  0.00    -0.202 C  
HETATM   24  C   UNL     1     -11.912  13.063  69.928  1.00  0.00    -0.311 C  
HETATM   25  N   UNL     1     -11.220  13.762  70.875  1.00  0.00     0.151 N  
HETATM   26  O   UNL     1     -12.264  11.908  70.099  1.00  0.00    -0.288 OA 
HETATM   27  H   UNL     1     -10.972  13.283  71.741  1.00  0.00     0.000 HD 
HETATM   28  C   UNL     1     -10.827  15.108  70.723  1.00  0.00    -0.151 A  
HETATM   29  C   UNL     1     -10.110  15.743  71.741  1.00  0.00     2.624 A  
HETATM   30  C   UNL     1      -9.764  17.078  71.613  1.00  0.00     6.665 A  
HETATM   31  O   UNL     1      -9.703  15.107  72.883  1.00  0.00     3.758 OA 
HETATM   32  C   UNL     1     -10.155  17.798  70.477  1.00  0.00     2.042 A  
HETATM   33  H   UNL     1      -9.216  15.538  73.575  1.00  0.00     0.000 HD 
ENDBRANCH  17  20
ENDBRANCH  16  17
ENDBRANCH  14  16
ENDBRANCH  10  14
ENDBRANCH   2   3
TORSDOF 6
ENDMDL
MODEL      371
REMARK 921   NORMALIZED FREE ENERGY PREDICTED BY IDOCK:   34.47 KCAL/MOL
REMARK 922        TOTAL FREE ENERGY PREDICTED BY IDOCK:   45.28 KCAL/MOL
REMARK 923 INTER-LIGAND FREE ENERGY PREDICTED BY IDOCK:   38.65 KCAL/MOL
REMARK 924 INTRA-LIGAND FREE ENERGY PREDICTED BY IDOCK:    6.63 KCAL/MOL
REMARK 927      BINDING AFFINITY PREDICTED BY RF-SCORE:    0.00 PKD
ROOT
HETATM    1  C   UNL     1     -11.049  12.444  65.327  1.00  0.00    -0.342 C  
HETATM    2  C   UNL     1     -11.069  11.121  64.581  1.00  0.00    -0.154 C  
ENDROOT
BRANCH   2   3
HETATM    3  C   UNL     1     -10.925   9.835  65.373  1.00  0.00     1.656 A  
HETATM    4  C   UNL     1     -10.991   9.934  66.793  1.00  0.00     0.009 A  
HETATM    5  C   UNL     1     -11.258   8.790  67.547  1.00  0.00     0.608 A  
HETATM    6  C   UNL     1     -10.626   8.579  64.807  1.00  0.00     5.583 A  
HETATM    7  C   UNL     1     -10.556   7.484  65.662  1.00  0.00     2.868 A  
HETATM    8  C   UNL     1     -11.107   7.561  66.943  1.00  0.00     0.248 A  
HETATM    9  C   UNL     1     -10.855   6.291  67.692  1.00  0.00    -0.433 C  
HETATM   10  C   UNL     1      -9.392   6.152  67.242  1.00  0.00    -0.114 C  
HETATM   11  C   UNL     1      -9.579   6.292  65.662  1.00  0.00     0.322 C  
BRANCH   4  12
HETATM   12  C   UNL     1     -10.536  11.216  67.473  1.00  0.00    -0.239 C  
HETATM   13  C   UNL     1     -10.118  12.368  66.559  1.00  0.00    -0.246 C  
ENDBRANCH   4  12
BRANCH  10  14
HETATM   14  N   UNL     1      -8.640   5.081  67.929  1.00  0.00    -0.103 NA 
HETATM   15  H   UNL     1      -8.234   4.414  67.275  1.00  0.00     0.000 HD 
BRANCH  14  16
HETATM   16  C   UNL     1      -7.600   5.701  68.834  1.00  0.00    -0.088 C  
BRANCH  16  17
HETATM   17  C   UNL     1      -7.368   7.229  68.675  1.00  0.00    -0.100 C  
HETATM   18  H   UNL     1      -6.147   8.348  67.645  1.00  0.00     0.000 HD 
HETATM   19  O   UNL     1      -6.289   7.414  67.742  1.00  0.00    -0.045 OA 
BRANCH  17  20
HETATM   20  C   UNL     1      -7.066   7.984  69.985  1.00  0.00    -0.049 A  
HETATM   21  C   UNL     1      -7.774   9.143  70.383  1.00  0.00    -0.132 A  
HETATM   22  C   UNL     1      -8.981   9.620  69.692  1.00  0.00    -0.215 C  
HETATM   23  C   UNL     1      -9.593  10.756  70.051  1.00  0.00     0.660 C  
HETATM   24  C   UNL     1      -9.055  11.602  71.148  1.00  0.00     9.679 C  
HETATM   25  N   UNL     1      -7.973  11.118  71.824  1.00  0.00     7.496 N  
HETATM   26  O   UNL     1      -9.573  12.671  71.427  1.00  0.00    10.477 OA 
HETATM   27  H   UNL     1      -7.609  11.664  72.605  1.00  0.00     0.000 HD 
HETATM   28  C   UNL     1      -7.330   9.904  71.504  1.00  0.00     1.196 A  
HETATM   29  C   UNL     1      -6.233   9.478  72.259  1.00  0.00     0.348 A  
HETATM   30  C   UNL     1      -5.572   8.310  71.918  1.00  0.00    -0.038 A  
HETATM   31  O   UNL     1      -5.767  10.153  73.355  1.00  0.00    -0.163 OA 
HETATM   32  C   UNL     1      -5.985   7.570  70.803  1.00  0.00    -0.034 A  
HETATM   33  H   UNL     1      -5.021   9.864  73.868  1.00  0.00     0.000 HD 
ENDBRANCH  17  20
ENDBRANCH  16  17
ENDBRANCH  14  16
ENDBRANCH  10  14
ENDBRANCH   2   3
TORSDOF 6
ENDMDL
MODEL      372
REMARK 921   NORMALIZED FREE ENERGY PREDICTED BY IDOCK:   37.54 KCAL/MOL
REMARK 922        TOTAL FREE ENERGY PREDICTED BY IDOCK:   49.43 KCAL/MOL
REMARK 923 INTER-LIGAND FREE ENERGY PREDICTED BY IDOCK:   35.45 KCAL/MOL
REMARK 924 INTRA-LIGAND FREE ENERGY PREDICTED BY IDOCK:   13.98 KCAL/MOL
REMARK 927      BINDING AFFINITY PREDICTED BY RF-SCORE:    0.00 PKD
ROOT
HETATM    1  C   UNL     1     -10.547   9.937  71.748  1.00  0.00     0.922 C  
HETATM    2  C   UNL     1     -11.344  11.172  71.359  1.00  0.00     1.586 C  
ENDROOT
BRANCH   2   3
HETATM    3  C   UNL     1     -10.674  12.231  70.504  1.00  0.00     2.464 A  
HETATM    4  C   UNL     1     -11.241  12.488  69.222  1.00  0.00    -0.256 A  
HETATM    5  C   UNL     1     -10.936  13.681  68.565  1.00  0.00    -0.289 A  
HETATM    6  C   UNL     1      -9.477  12.893  70.847  1.00  0.00     8.998 A  
HETATM    7  C   UNL     1      -9.001  13.864  69.971  1.00  0.00     2.124 A  
HETATM    8  C   UNL     1      -9.847  14.405  69.000  1.00  0.00    -0.106 A  
HETATM    9  C   UNL     1      -9.098  15.377  68.145  1.00  0.00    -0.184 C  
HETATM   10  C   UNL     1      -7.845  14.498  68.000  1.00  0.00    -0.137 C  
HETATM   11  C   UNL     1      -7.557  14.180  69.538  1.00  0.00     0.226 C  
BRANCH   4  12
HETATM   12  C   UNL     1     -11.966  11.369  68.490  1.00  0.00    -0.295 C  
HETATM   13  C   UNL     1     -12.061  11.491  66.969  1.00  0.00     0.628 C  
ENDBRANCH   4  12
BRANCH  10  14
HETATM   14  N   UNL     1      -6.857  15.000  67.023  1.00  0.00    -0.312 NA 
HETATM   15  H   UNL     1      -5.932  15.118  67.435  1.00  0.00     0.000 HD 
BRANCH  14  16
HETATM   16  C   UNL     1      -6.833  14.086  65.819  1.00  0.00     7.507 C  
BRANCH  16  17
HETATM   17  C   UNL     1      -7.922  12.979  65.771  1.00  0.00     2.619 C  
HETATM   18  H   UNL     1      -7.992  11.124  65.172  1.00  0.00     0.000 HD 
HETATM   19  O   UNL     1      -7.326  11.801  65.201  1.00  0.00     1.437 OA 
BRANCH  17  20
HETATM   20  C   UNL     1      -9.199  13.351  64.990  1.00  0.00     1.044 A  
HETATM   21  C   UNL     1     -10.233  14.145  65.543  1.00  0.00    -0.371 A  
HETATM   22  C   UNL     1     -10.103  14.844  66.829  1.00  0.00    -0.254 C  
HETATM   23  C   UNL     1     -11.120  15.535  67.359  1.00  0.00    -0.285 C  
HETATM   24  C   UNL     1     -12.441  15.596  66.680  1.00  0.00     1.692 C  
HETATM   25  N   UNL     1     -12.531  14.997  65.456  1.00  0.00     0.168 N  
HETATM   26  O   UNL     1     -13.387  16.166  67.197  1.00  0.00     4.337 OA 
HETATM   27  H   UNL     1     -13.417  15.057  64.954  1.00  0.00     0.000 HD 
HETATM   28  C   UNL     1     -11.467  14.300  64.846  1.00  0.00    -0.378 A  
HETATM   29  C   UNL     1     -11.644  13.727  63.584  1.00  0.00     0.046 A  
HETATM   30  C   UNL     1     -10.616  13.002  63.004  1.00  0.00     1.552 A  
HETATM   31  O   UNL     1     -12.797  13.852  62.856  1.00  0.00    -0.574 OA 
HETATM   32  C   UNL     1      -9.409  12.823  63.693  1.00  0.00     1.540 A  
HETATM   33  H   UNL     1     -12.918  13.462  61.999  1.00  0.00     0.000 HD 
ENDBRANCH  17  20
ENDBRANCH  16  17
ENDBRANCH  14  16
ENDBRANCH  10  14
ENDBRANCH   2   3
TORSDOF 6
ENDMDL
MODEL      373
REMARK 921   NORMALIZED FREE ENERGY PREDICTED BY IDOCK:   46.80 KCAL/MOL
REMARK 922        TOTAL FREE ENERGY PREDICTED BY IDOCK:   61.94 KCAL/MOL
REMARK 923 INTER-LIGAND FREE ENERGY PREDICTED BY IDOCK:   49.39 KCAL/MOL
REMARK 924 INTRA-LIGAND FREE ENERGY PREDICTED BY IDOCK:   12.55 KCAL/MOL
REMARK 927      BINDING AFFINITY PREDICTED BY RF-SCORE:    0.00 PKD
ROOT
HETATM    1  C   UNL     1      -5.871  19.605  73.771  1.00  0.00    10.113 C  
HETATM    2  C   UNL     1      -6.233  19.749  72.302  1.00  0.00     0.476 C  
ENDROOT
BRANCH   2   3
HETATM    3  C   UNL     1      -7.258  18.802  71.707  1.00  0.00     4.721 A  
HETATM    4  C   UNL     1      -7.157  18.525  70.313  1.00  0.00     1.140 A  
HETATM    5  C   UNL     1      -7.793  17.397  69.793  1.00  0.00     1.046 A  
HETATM    6  C   UNL     1      -8.355  18.270  72.414  1.00  0.00    13.823 A  
HETATM    7  C   UNL     1      -9.194  17.389  71.739  1.00  0.00    10.446 A  
HETATM    8  C   UNL     1      -8.767  16.788  70.553  1.00  0.00     3.483 A  
HETATM    9  C   UNL     1      -9.857  15.936  69.983  1.00  0.00     0.039 C  
HETATM   10  C   UNL     1     -10.979  16.957  70.237  1.00  0.00     0.264 C  
HETATM   11  C   UNL     1     -10.728  17.255  71.786  1.00  0.00     2.543 C  
BRANCH   4  12
HETATM   12  C   UNL     1      -6.573  19.577  69.384  1.00  0.00    -0.373 C  
HETATM   13  C   UNL     1      -5.538  20.528  69.987  1.00  0.00    -0.379 C  
ENDBRANCH   4  12
BRANCH  10  14
HETATM   14  N   UNL     1     -12.276  16.603  69.626  1.00  0.00     0.162 NA 
HETATM   15  H   UNL     1     -12.464  17.142  68.781  1.00  0.00     0.000 HD 
BRANCH  14  16
HETATM   16  C   UNL     1     -12.323  15.113  69.375  1.00  0.00    -0.130 C  
BRANCH  16  17
HETATM   17  C   UNL     1     -11.314  14.246  70.177  1.00  0.00    -0.129 C  
HETATM   18  H   UNL     1     -10.385  14.417  71.884  1.00  0.00     0.000 HD 
HETATM   19  O   UNL     1     -11.002  14.948  71.393  1.00  0.00    -0.142 OA 
BRANCH  17  20
HETATM   20  C   UNL     1     -10.014  13.892  69.426  1.00  0.00     0.375 A  
HETATM   21  C   UNL     1      -9.967  13.695  68.025  1.00  0.00    -0.247 A  
HETATM   22  C   UNL     1     -11.099  13.995  67.137  1.00  0.00    -0.313 C  
HETATM   23  C   UNL     1     -11.048  13.738  65.824  1.00  0.00    -0.290 C  
HETATM   24  C   UNL     1      -9.851  13.103  65.213  1.00  0.00    -0.076 C  
HETATM   25  N   UNL     1      -8.782  12.887  66.036  1.00  0.00    -0.188 N  
HETATM   26  O   UNL     1      -9.833  12.804  64.031  1.00  0.00    -0.223 OA 
HETATM   27  H   UNL     1      -7.936  12.486  65.631  1.00  0.00     0.000 HD 
HETATM   28  C   UNL     1      -8.783  13.188  67.414  1.00  0.00    -0.206 A  
HETATM   29  C   UNL     1      -7.639  12.945  68.179  1.00  0.00    -0.135 A  
HETATM   30  C   UNL     1      -7.653  13.197  69.541  1.00  0.00     0.669 A  
HETATM   31  O   UNL     1      -6.467  12.475  67.651  1.00  0.00    -0.105 OA 
HETATM   32  C   UNL     1      -8.820  13.670  70.155  1.00  0.00     3.024 A  
HETATM   33  H   UNL     1      -5.689  12.310  68.171  1.00  0.00     0.000 HD 
ENDBRANCH  17  20
ENDBRANCH  16  17
ENDBRANCH  14  16
ENDBRANCH  10  14
ENDBRANCH   2   3
TORSDOF 6
ENDMDL
MODEL      374
REMARK 921   NORMALIZED FREE ENERGY PREDICTED BY IDOCK:   50.14 KCAL/MOL
REMARK 922        TOTAL FREE ENERGY PREDICTED BY IDOCK:   66.45 KCAL/MOL
REMARK 923 INTER-LIGAND FREE ENERGY PREDICTED BY IDOCK:   -4.16 KCAL/MOL
REMARK 924 INTRA-LIGAND FREE ENERGY PREDICTED BY IDOCK:   70.60 KCAL/MOL
REMARK 927      BINDING AFFINITY PREDICTED BY RF-SCORE:    0.00 PKD
ROOT
HETATM    1  C   UNL     1     -11.303  13.766  68.802  1.00  0.00    -0.318 C  
HETATM    2  C   UNL     1     -10.235  13.023  68.016  1.00  0.00    -0.233 C  
ENDROOT
BRANCH   2   3
HETATM    3  C   UNL     1     -10.042  11.540  68.272  1.00  0.00    -0.205 A  
HETATM    4  C   UNL     1      -8.773  11.124  68.770  1.00  0.00    -0.130 A  
HETATM    5  C   UNL     1      -8.656   9.876  69.385  1.00  0.00    -0.180 A  
HETATM    6  C   UNL     1     -10.988  10.546  67.949  1.00  0.00    -0.352 A  
HETATM    7  C   UNL     1     -10.679   9.229  68.272  1.00  0.00    -0.195 A  
HETATM    8  C   UNL     1      -9.660   8.954  69.187  1.00  0.00    -0.162 A  
HETATM    9  C   UNL     1      -9.472   7.477  69.325  1.00  0.00    -0.154 C  
HETATM   10  C   UNL     1      -9.567   7.183  67.818  1.00  0.00    -0.129 C  
HETATM   11  C   UNL     1     -10.938   7.932  67.482  1.00  0.00    -0.005 C  
BRANCH   4  12
HETATM   12  C   UNL     1      -7.533  11.928  68.414  1.00  0.00    -0.102 C  
HETATM   13  C   UNL     1      -7.486  12.536  67.013  1.00  0.00    -0.009 C  
ENDBRANCH   4  12
BRANCH  10  14
HETATM   14  N   UNL     1      -9.229   5.795  67.444  1.00  0.00    -0.110 NA 
HETATM   15  H   UNL     1     -10.057   5.209  67.344  1.00  0.00     0.000 HD 
BRANCH  14  16
HETATM   16  C   UNL     1      -8.382   5.806  66.192  1.00  0.00    -0.122 C  
BRANCH  16  17
HETATM   17  C   UNL     1      -7.187   6.798  66.175  1.00  0.00    -0.067 C  
HETATM   18  H   UNL     1      -6.009   7.577  67.521  1.00  0.00     0.000 HD 
HETATM   19  O   UNL     1      -6.740   6.970  67.531  1.00  0.00    -0.062 OA 
BRANCH  17  20
HETATM   20  C   UNL     1      -7.486   8.173  65.542  1.00  0.00    -0.081 A  
HETATM   21  C   UNL     1      -7.540   9.369  66.297  1.00  0.00    -0.097 A  
HETATM   22  C   UNL     1      -7.129   9.445  67.706  1.00  0.00    -0.082 C  
HETATM   23  C   UNL     1      -7.252  10.576  68.413  1.00  0.00    -0.080 C  
HETATM   24  C   UNL     1      -7.844  11.798  67.808  1.00  0.00    -0.135 C  
HETATM   25  N   UNL     1      -8.162  11.734  66.481  1.00  0.00    -0.335 N  
HETATM   26  O   UNL     1      -8.020  12.805  68.472  1.00  0.00    -0.144 OA 
HETATM   27  H   UNL     1      -8.536  12.572  66.036  1.00  0.00     0.000 HD 
HETATM   28  C   UNL     1      -8.004  10.575  65.694  1.00  0.00    -0.158 A  
HETATM   29  C   UNL     1      -8.345  10.604  64.339  1.00  0.00    -0.032 A  
HETATM   30  C   UNL     1      -8.234   9.453  63.574  1.00  0.00    -0.168 A  
HETATM   31  O   UNL     1      -8.781  11.731  63.696  1.00  0.00    -0.164 OA 
HETATM   32  C   UNL     1      -7.805   8.258  64.165  1.00  0.00    -0.145 A  
HETATM   33  H   UNL     1      -9.014  11.750  62.775  1.00  0.00     0.000 HD 
ENDBRANCH  17  20
ENDBRANCH  16  17
ENDBRANCH  14  16
ENDBRANCH  10  14
ENDBRANCH   2   3
TORSDOF 6
ENDMDL
