MODEL        1
REMARK 921   NORMALIZED FREE ENERGY PREDICTED BY IDOCK:   -6.75 KCAL/MOL
REMARK 922        TOTAL FREE ENERGY PREDICTED BY IDOCK:  -10.13 KCAL/MOL
REMARK 923 INTER-LIGAND FREE ENERGY PREDICTED BY IDOCK:   -9.12 KCAL/MOL
REMARK 924 INTRA-LIGAND FREE ENERGY PREDICTED BY IDOCK:   -1.01 KCAL/MOL
REMARK 927      BINDING AFFINITY PREDICTED BY RF-SCORE:    0.00 PKD
ROOT
HETATM    1  C   UNL     1     -10.493  19.295  66.137  1.00  0.00    -0.577 C  
HETATM    2  C   UNL     1      -9.818  18.141  66.881  1.00  0.00    -0.330 C  
HETATM    3  C   UNL     1     -10.640  17.767  68.115  1.00  0.00    -0.350 C  
ENDROOT
BRANCH   2   4
HETATM    4  N   UNL     1      -9.692  17.032  65.932  1.00  0.00    -0.523 NA 
HETATM    5  H   UNL     1      -9.617  17.383  64.977  1.00  0.00     0.000 HD 
BRANCH   4   6
HETATM    6  C   UNL     1      -8.593  16.119  66.230  1.00  0.00    -0.338 C  
BRANCH   6   7
HETATM    7  C   UNL     1      -9.092  14.674  66.265  1.00  0.00    -0.196 C  
BRANCH   7   8
HETATM    8  C   UNL     1     -10.078  14.326  65.131  1.00  0.00    -0.353 C  
BRANCH   8   9
HETATM    9  C   UNL     1     -11.145  13.261  65.497  1.00  0.00    -0.299 C  
HETATM   10  C   UNL     1     -11.477  13.326  66.996  1.00  0.00    -0.378 A  
HETATM   11  C   UNL     1     -10.569  11.845  65.375  1.00  0.00    -0.315 A  
HETATM   12  C   UNL     1     -10.104  11.202  64.236  1.00  0.00    -0.382 A  
HETATM   13  C   UNL     1     -12.034  14.380  67.707  1.00  0.00    -0.368 A  
HETATM   14  C   UNL     1      -9.531   9.939  64.385  1.00  0.00    -0.304 A  
HETATM   15  C   UNL     1      -9.427   9.345  65.653  1.00  0.00    -0.328 A  
HETATM   16  C   UNL     1      -9.911   9.993  66.796  1.00  0.00    -0.267 A  
HETATM   17  C   UNL     1     -12.160  14.244  69.089  1.00  0.00    -0.337 A  
HETATM   18  C   UNL     1     -11.731  13.074  69.736  1.00  0.00    -0.346 A  
HETATM   19  C   UNL     1     -11.174  12.013  69.011  1.00  0.00    -0.313 A  
HETATM   20  C   UNL     1     -11.051  12.142  67.637  1.00  0.00    -0.320 A  
HETATM   21  C   UNL     1     -10.492  11.240  66.650  1.00  0.00    -0.292 A  
BRANCH   9  22
HETATM   22  C   UNL     1     -12.410  13.441  64.631  1.00  0.00    -0.382 C  
HETATM   23  H1  UNL     1     -13.236  14.586  63.157  1.00  0.00     0.000 HD 
HETATM   24  N   UNL     1     -12.400  14.468  63.729  1.00  0.00    -1.087 N  
HETATM   25  O   UNL     1     -13.406  12.725  64.714  1.00  0.00    -0.736 OA 
HETATM   26  H2  UNL     1     -11.594  15.087  63.633  1.00  0.00     0.000 HD 
ENDBRANCH   9  22
ENDBRANCH   8   9
ENDBRANCH   7   8
ENDBRANCH   6   7
ENDBRANCH   4   6
ENDBRANCH   2   4
TORSDOF 6
ENDMDL
MODEL        2
REMARK 921   NORMALIZED FREE ENERGY PREDICTED BY IDOCK:   -6.71 KCAL/MOL
REMARK 922        TOTAL FREE ENERGY PREDICTED BY IDOCK:  -10.07 KCAL/MOL
REMARK 923 INTER-LIGAND FREE ENERGY PREDICTED BY IDOCK:   -9.14 KCAL/MOL
REMARK 924 INTRA-LIGAND FREE ENERGY PREDICTED BY IDOCK:   -0.93 KCAL/MOL
REMARK 927      BINDING AFFINITY PREDICTED BY RF-SCORE:    0.00 PKD
ROOT
HETATM    1  C   UNL     1     -13.905  13.579  72.188  1.00  0.00    -0.628 C  
HETATM    2  C   UNL     1     -14.109  15.095  72.171  1.00  0.00    -0.554 C  
HETATM    3  C   UNL     1     -13.260  15.746  73.264  1.00  0.00    -0.687 C  
ENDROOT
BRANCH   2   4
HETATM    4  N   UNL     1     -13.752  15.564  70.829  1.00  0.00    -0.859 NA 
HETATM    5  H   UNL     1     -13.602  16.573  70.830  1.00  0.00     0.000 HD 
BRANCH   4   6
HETATM    6  C   UNL     1     -12.603  14.876  70.247  1.00  0.00    -0.313 C  
BRANCH   6   7
HETATM    7  C   UNL     1     -11.778  15.840  69.395  1.00  0.00    -0.379 C  
BRANCH   7   8
HETATM    8  C   UNL     1     -10.261  15.772  69.666  1.00  0.00    -0.289 C  
BRANCH   8   9
HETATM    9  C   UNL     1      -9.364  16.092  68.443  1.00  0.00    -0.207 C  
HETATM   10  C   UNL     1      -9.648  17.510  67.923  1.00  0.00    -0.277 A  
HETATM   11  C   UNL     1      -9.764  15.240  67.232  1.00  0.00    -0.212 A  
HETATM   12  C   UNL     1      -9.710  13.859  67.098  1.00  0.00    -0.244 A  
HETATM   13  C   UNL     1      -9.474  18.718  68.585  1.00  0.00    -0.412 A  
HETATM   14  C   UNL     1     -10.222  13.293  65.931  1.00  0.00    -0.295 A  
HETATM   15  C   UNL     1     -10.780  14.104  64.928  1.00  0.00    -0.444 A  
HETATM   16  C   UNL     1     -10.819  15.496  65.064  1.00  0.00    -0.468 A  
HETATM   17  C   UNL     1      -9.891  19.883  67.942  1.00  0.00    -0.529 A  
HETATM   18  C   UNL     1     -10.472  19.828  66.665  1.00  0.00    -0.615 A  
HETATM   19  C   UNL     1     -10.639  18.606  66.001  1.00  0.00    -0.410 A  
HETATM   20  C   UNL     1     -10.223  17.447  66.635  1.00  0.00    -0.324 A  
HETATM   21  C   UNL     1     -10.299  16.061  66.214  1.00  0.00    -0.330 A  
BRANCH   9  22
HETATM   22  C   UNL     1      -7.873  15.911  68.801  1.00  0.00    -0.185 C  
HETATM   23  H1  UNL     1      -6.599  14.937  70.063  1.00  0.00     0.000 HD 
HETATM   24  N   UNL     1      -7.584  15.056  69.827  1.00  0.00    -0.344 N  
HETATM   25  O   UNL     1      -6.953  16.490  68.225  1.00  0.00    -0.136 OA 
HETATM   26  H2  UNL     1      -8.319  14.560  70.333  1.00  0.00     0.000 HD 
ENDBRANCH   9  22
ENDBRANCH   8   9
ENDBRANCH   7   8
ENDBRANCH   6   7
ENDBRANCH   4   6
ENDBRANCH   2   4
TORSDOF 6
ENDMDL
MODEL        3
REMARK 921   NORMALIZED FREE ENERGY PREDICTED BY IDOCK:   -6.58 KCAL/MOL
REMARK 922        TOTAL FREE ENERGY PREDICTED BY IDOCK:   -9.89 KCAL/MOL
REMARK 923 INTER-LIGAND FREE ENERGY PREDICTED BY IDOCK:   -8.96 KCAL/MOL
REMARK 924 INTRA-LIGAND FREE ENERGY PREDICTED BY IDOCK:   -0.92 KCAL/MOL
REMARK 927      BINDING AFFINITY PREDICTED BY RF-SCORE:    0.00 PKD
ROOT
HETATM    1  C   UNL     1      -9.724  18.473  68.350  1.00  0.00    -0.395 C  
HETATM    2  C   UNL     1     -10.330  18.551  66.948  1.00  0.00    -0.397 C  
HETATM    3  C   UNL     1     -10.254  19.987  66.427  1.00  0.00    -0.598 C  
ENDROOT
BRANCH   2   4
HETATM    4  N   UNL     1      -9.589  17.609  66.104  1.00  0.00    -0.492 NA 
HETATM    5  H   UNL     1      -9.159  18.093  65.317  1.00  0.00     0.000 HD 
BRANCH   4   6
HETATM    6  C   UNL     1      -8.594  16.822  66.827  1.00  0.00    -0.232 C  
BRANCH   6   7
HETATM    7  C   UNL     1      -8.892  15.328  66.692  1.00  0.00    -0.328 C  
BRANCH   7   8
HETATM    8  C   UNL     1      -9.759  14.973  65.466  1.00  0.00    -0.294 C  
BRANCH   8   9
HETATM    9  C   UNL     1     -11.011  14.114  65.781  1.00  0.00    -0.301 C  
HETATM   10  C   UNL     1     -11.342  14.173  67.280  1.00  0.00    -0.349 A  
HETATM   11  C   UNL     1     -10.713  12.621  65.595  1.00  0.00    -0.297 A  
HETATM   12  C   UNL     1     -10.364  11.953  64.428  1.00  0.00    -0.341 A  
HETATM   13  C   UNL     1     -11.698  15.281  68.038  1.00  0.00    -0.268 A  
HETATM   14  C   UNL     1     -10.043  10.600  64.519  1.00  0.00    -0.421 A  
HETATM   15  C   UNL     1     -10.067   9.940  65.759  1.00  0.00    -0.317 A  
HETATM   16  C   UNL     1     -10.432  10.617  66.929  1.00  0.00    -0.304 A  
HETATM   17  C   UNL     1     -11.863  15.109  69.411  1.00  0.00    -0.357 A  
HETATM   18  C   UNL     1     -11.670  13.850  70.005  1.00  0.00    -0.338 A  
HETATM   19  C   UNL     1     -11.315  12.737  69.233  1.00  0.00    -0.307 A  
HETATM   20  C   UNL     1     -11.154  12.902  67.867  1.00  0.00    -0.283 A  
HETATM   21  C   UNL     1     -10.765  11.956  66.840  1.00  0.00    -0.285 A  
BRANCH   9  22
HETATM   22  C   UNL     1     -12.210  14.569  64.921  1.00  0.00    -0.402 C  
HETATM   23  H1  UNL     1     -12.740  15.762  63.352  1.00  0.00     0.000 HD 
HETATM   24  N   UNL     1     -11.948  15.462  63.920  1.00  0.00    -0.972 N  
HETATM   25  O   UNL     1     -13.364  14.180  65.091  1.00  0.00    -0.684 OA 
HETATM   26  H2  UNL     1     -11.005  15.812  63.749  1.00  0.00     0.000 HD 
ENDBRANCH   9  22
ENDBRANCH   8   9
ENDBRANCH   7   8
ENDBRANCH   6   7
ENDBRANCH   4   6
ENDBRANCH   2   4
TORSDOF 6
ENDMDL
MODEL        4
REMARK 921   NORMALIZED FREE ENERGY PREDICTED BY IDOCK:   -6.46 KCAL/MOL
REMARK 922        TOTAL FREE ENERGY PREDICTED BY IDOCK:   -9.73 KCAL/MOL
REMARK 923 INTER-LIGAND FREE ENERGY PREDICTED BY IDOCK:   -8.68 KCAL/MOL
REMARK 924 INTRA-LIGAND FREE ENERGY PREDICTED BY IDOCK:   -1.06 KCAL/MOL
REMARK 927      BINDING AFFINITY PREDICTED BY RF-SCORE:    0.00 PKD
ROOT
HETATM    1  C   UNL     1     -13.674  13.502  72.327  1.00  0.00    -0.700 C  
HETATM    2  C   UNL     1     -14.078  14.974  72.221  1.00  0.00    -0.513 C  
HETATM    3  C   UNL     1     -13.257  15.811  73.201  1.00  0.00    -0.694 C  
ENDROOT
BRANCH   2   4
HETATM    4  N   UNL     1     -13.873  15.378  70.827  1.00  0.00    -0.860 NA 
HETATM    5  H   UNL     1     -14.442  16.195  70.603  1.00  0.00     0.000 HD 
BRANCH   4   6
HETATM    6  C   UNL     1     -12.476  15.616  70.478  1.00  0.00    -0.398 C  
BRANCH   6   7
HETATM    7  C   UNL     1     -12.156  15.012  69.110  1.00  0.00    -0.261 C  
BRANCH   7   8
HETATM    8  C   UNL     1     -11.299  13.731  69.178  1.00  0.00    -0.329 C  
BRANCH   8   9
HETATM    9  C   UNL     1     -10.274  13.571  68.025  1.00  0.00    -0.243 C  
HETATM   10  C   UNL     1      -9.391  14.824  67.912  1.00  0.00    -0.193 A  
HETATM   11  C   UNL     1     -10.977  13.572  66.662  1.00  0.00    -0.293 A  
HETATM   12  C   UNL     1     -11.897  12.656  66.170  1.00  0.00    -0.477 A  
HETATM   13  C   UNL     1      -8.512  15.343  68.854  1.00  0.00    -0.205 A  
HETATM   14  C   UNL     1     -12.481  12.916  64.931  1.00  0.00    -0.540 A  
HETATM   15  C   UNL     1     -12.147  14.075  64.211  1.00  0.00    -0.476 A  
HETATM   16  C   UNL     1     -11.208  14.987  64.707  1.00  0.00    -0.393 A  
HETATM   17  C   UNL     1      -7.883  16.553  68.564  1.00  0.00    -0.210 A  
HETATM   18  C   UNL     1      -8.137  17.222  67.356  1.00  0.00    -0.205 A  
HETATM   19  C   UNL     1      -9.020  16.690  66.409  1.00  0.00    -0.326 A  
HETATM   20  C   UNL     1      -9.645  15.486  66.691  1.00  0.00    -0.273 A  
HETATM   21  C   UNL     1     -10.617  14.726  65.930  1.00  0.00    -0.322 A  
BRANCH   9  22
HETATM   22  C   UNL     1      -9.423  12.299  68.229  1.00  0.00    -0.209 C  
HETATM   23  H1  UNL     1      -9.279  10.585  69.327  1.00  0.00     0.000 HD 
HETATM   24  N   UNL     1      -9.841  11.425  69.193  1.00  0.00    -0.415 N  
HETATM   25  O   UNL     1      -8.408  12.041  67.585  1.00  0.00    -0.142 OA 
HETATM   26  H2  UNL     1     -10.675  11.605  69.753  1.00  0.00     0.000 HD 
ENDBRANCH   9  22
ENDBRANCH   8   9
ENDBRANCH   7   8
ENDBRANCH   6   7
ENDBRANCH   4   6
ENDBRANCH   2   4
TORSDOF 6
ENDMDL
MODEL        5
REMARK 921   NORMALIZED FREE ENERGY PREDICTED BY IDOCK:   -6.33 KCAL/MOL
REMARK 922        TOTAL FREE ENERGY PREDICTED BY IDOCK:   -9.56 KCAL/MOL
REMARK 923 INTER-LIGAND FREE ENERGY PREDICTED BY IDOCK:   -8.75 KCAL/MOL
REMARK 924 INTRA-LIGAND FREE ENERGY PREDICTED BY IDOCK:   -0.81 KCAL/MOL
REMARK 927      BINDING AFFINITY PREDICTED BY RF-SCORE:    0.00 PKD
ROOT
HETATM    1  C   UNL     1     -10.384  11.057  64.641  1.00  0.00    -0.410 C  
HETATM    2  C   UNL     1     -10.855  12.344  63.960  1.00  0.00    -0.397 C  
HETATM    3  C   UNL     1     -12.310  12.195  63.515  1.00  0.00    -0.682 C  
ENDROOT
BRANCH   2   4
HETATM    4  N   UNL     1     -10.671  13.434  64.922  1.00  0.00    -0.347 NA 
HETATM    5  H   UNL     1      -9.911  14.047  64.629  1.00  0.00     0.000 HD 
BRANCH   4   6
HETATM    6  C   UNL     1     -11.882  14.207  65.181  1.00  0.00    -0.372 C  
BRANCH   6   7
HETATM    7  C   UNL     1     -12.108  14.359  66.686  1.00  0.00    -0.392 C  
BRANCH   7   8
HETATM    8  C   UNL     1     -12.155  13.020  67.449  1.00  0.00    -0.290 C  
BRANCH   8   9
HETATM    9  C   UNL     1     -11.343  12.994  68.770  1.00  0.00    -0.332 C  
HETATM   10  C   UNL     1     -11.222  11.556  69.299  1.00  0.00    -0.336 A  
HETATM   11  C   UNL     1     -12.122  13.670  69.906  1.00  0.00    -0.406 A  
HETATM   12  C   UNL     1     -12.520  14.996  70.003  1.00  0.00    -0.317 A  
HETATM   13  C   UNL     1     -10.605  10.469  68.695  1.00  0.00    -0.226 A  
HETATM   14  C   UNL     1     -13.309  15.365  71.092  1.00  0.00    -0.580 A  
HETATM   15  C   UNL     1     -13.691  14.414  72.054  1.00  0.00    -0.533 A  
HETATM   16  C   UNL     1     -13.274  13.081  71.956  1.00  0.00    -0.543 A  
HETATM   17  C   UNL     1     -10.702   9.228  69.325  1.00  0.00    -0.211 A  
HETATM   18  C   UNL     1     -11.408   9.090  70.532  1.00  0.00    -0.282 A  
HETATM   19  C   UNL     1     -12.023  10.193  71.136  1.00  0.00    -0.480 A  
HETATM   20  C   UNL     1     -11.926  11.428  70.516  1.00  0.00    -0.451 A  
HETATM   21  C   UNL     1     -12.480  12.716  70.885  1.00  0.00    -0.368 A  
BRANCH   9  22
HETATM   22  C   UNL     1      -9.955  13.638  68.567  1.00  0.00    -0.208 C  
HETATM   23  H1  UNL     1      -8.614  14.934  69.397  1.00  0.00     0.000 HD 
HETATM   24  N   UNL     1      -9.531  14.509  69.531  1.00  0.00    -0.397 N  
HETATM   25  O   UNL     1      -9.230  13.416  67.599  1.00  0.00    -0.194 OA 
HETATM   26  H2  UNL     1     -10.105  14.723  70.347  1.00  0.00     0.000 HD 
ENDBRANCH   9  22
ENDBRANCH   8   9
ENDBRANCH   7   8
ENDBRANCH   6   7
ENDBRANCH   4   6
ENDBRANCH   2   4
TORSDOF 6
ENDMDL
MODEL        6
REMARK 921   NORMALIZED FREE ENERGY PREDICTED BY IDOCK:   -6.33 KCAL/MOL
REMARK 922        TOTAL FREE ENERGY PREDICTED BY IDOCK:   -9.56 KCAL/MOL
REMARK 923 INTER-LIGAND FREE ENERGY PREDICTED BY IDOCK:   -8.59 KCAL/MOL
REMARK 924 INTRA-LIGAND FREE ENERGY PREDICTED BY IDOCK:   -0.96 KCAL/MOL
REMARK 927      BINDING AFFINITY PREDICTED BY RF-SCORE:    0.00 PKD
ROOT
HETATM    1  C   UNL     1     -10.927  16.097  69.261  1.00  0.00    -0.315 C  
HETATM    2  C   UNL     1     -10.751  17.056  68.082  1.00  0.00    -0.374 C  
HETATM    3  C   UNL     1      -9.644  18.064  68.391  1.00  0.00    -0.338 C  
ENDROOT
BRANCH   2   4
HETATM    4  N   UNL     1     -10.452  16.239  66.902  1.00  0.00    -0.309 NA 
HETATM    5  H   UNL     1     -10.532  16.796  66.051  1.00  0.00     0.000 HD 
BRANCH   4   6
HETATM    6  C   UNL     1      -9.157  15.569  66.957  1.00  0.00    -0.230 C  
BRANCH   6   7
HETATM    7  C   UNL     1      -9.256  14.164  66.362  1.00  0.00    -0.209 C  
BRANCH   7   8
HETATM    8  C   UNL     1     -10.220  14.061  65.162  1.00  0.00    -0.396 C  
BRANCH   8   9
HETATM    9  C   UNL     1     -11.076  12.768  65.124  1.00  0.00    -0.323 C  
HETATM   10  C   UNL     1     -11.232  12.183  66.536  1.00  0.00    -0.378 A  
HETATM   11  C   UNL     1     -10.329  11.636  64.407  1.00  0.00    -0.362 A  
HETATM   12  C   UNL     1      -9.918  11.582  63.082  1.00  0.00    -0.404 A  
HETATM   13  C   UNL     1     -11.841  12.760  67.642  1.00  0.00    -0.396 A  
HETATM   14  C   UNL     1      -9.163  10.484  62.675  1.00  0.00    -0.329 A  
HETATM   15  C   UNL     1      -8.825   9.470  63.586  1.00  0.00    -0.236 A  
HETATM   16  C   UNL     1      -9.253   9.524  64.918  1.00  0.00    -0.284 A  
HETATM   17  C   UNL     1     -11.779  12.075  68.855  1.00  0.00    -0.383 A  
HETATM   18  C   UNL     1     -11.117  10.840  68.948  1.00  0.00    -0.307 A  
HETATM   19  C   UNL     1     -10.509  10.262  67.827  1.00  0.00    -0.269 A  
HETATM   20  C   UNL     1     -10.571  10.938  66.619  1.00  0.00    -0.305 A  
HETATM   21  C   UNL     1     -10.015  10.606  65.322  1.00  0.00    -0.356 A  
BRANCH   9  22
HETATM   22  C   UNL     1     -12.449  13.046  64.475  1.00  0.00    -0.363 C  
HETATM   23  H1  UNL     1     -13.502  14.426  63.400  1.00  0.00     0.000 HD 
HETATM   24  N   UNL     1     -12.595  14.242  63.828  1.00  0.00    -0.953 N  
HETATM   25  O   UNL     1     -13.398  12.266  64.514  1.00  0.00    -0.769 OA 
HETATM   26  H2  UNL     1     -11.833  14.919  63.777  1.00  0.00     0.000 HD 
ENDBRANCH   9  22
ENDBRANCH   8   9
ENDBRANCH   7   8
ENDBRANCH   6   7
ENDBRANCH   4   6
ENDBRANCH   2   4
TORSDOF 6
ENDMDL
MODEL        7
REMARK 921   NORMALIZED FREE ENERGY PREDICTED BY IDOCK:   -6.04 KCAL/MOL
REMARK 922        TOTAL FREE ENERGY PREDICTED BY IDOCK:   -9.16 KCAL/MOL
REMARK 923 INTER-LIGAND FREE ENERGY PREDICTED BY IDOCK:   -8.19 KCAL/MOL
REMARK 924 INTRA-LIGAND FREE ENERGY PREDICTED BY IDOCK:   -0.97 KCAL/MOL
REMARK 927      BINDING AFFINITY PREDICTED BY RF-SCORE:    0.00 PKD
ROOT
HETATM    1  C   UNL     1     -10.216  11.189  64.073  1.00  0.00    -0.419 C  
HETATM    2  C   UNL     1     -11.057  12.284  63.415  1.00  0.00    -0.418 C  
HETATM    3  C   UNL     1     -12.521  11.847  63.350  1.00  0.00    -0.582 C  
ENDROOT
BRANCH   2   4
HETATM    4  N   UNL     1     -10.870  13.504  64.204  1.00  0.00    -0.565 NA 
HETATM    5  H   UNL     1     -10.205  14.129  63.748  1.00  0.00     0.000 HD 
BRANCH   4   6
HETATM    6  C   UNL     1     -12.111  14.210  64.508  1.00  0.00    -0.468 C  
BRANCH   6   7
HETATM    7  C   UNL     1     -12.325  14.291  66.019  1.00  0.00    -0.416 C  
BRANCH   7   8
HETATM    8  C   UNL     1     -11.503  13.263  66.822  1.00  0.00    -0.387 C  
BRANCH   8   9
HETATM    9  C   UNL     1     -10.598  13.869  67.926  1.00  0.00    -0.248 C  
HETATM   10  C   UNL     1     -11.394  14.071  69.225  1.00  0.00    -0.318 A  
HETATM   11  C   UNL     1     -10.208  15.313  67.583  1.00  0.00    -0.242 A  
HETATM   12  C   UNL     1      -9.456  15.767  66.508  1.00  0.00    -0.298 A  
HETATM   13  C   UNL     1     -12.006  13.106  70.015  1.00  0.00    -0.391 A  
HETATM   14  C   UNL     1      -9.311  17.144  66.346  1.00  0.00    -0.286 A  
HETATM   15  C   UNL     1      -9.916  18.039  67.244  1.00  0.00    -0.324 A  
HETATM   16  C   UNL     1     -10.662  17.573  68.333  1.00  0.00    -0.280 A  
HETATM   17  C   UNL     1     -12.759  13.536  71.107  1.00  0.00    -0.425 A  
HETATM   18  C   UNL     1     -12.891  14.905  71.392  1.00  0.00    -0.416 A  
HETATM   19  C   UNL     1     -12.267  15.871  70.594  1.00  0.00    -0.345 A  
HETATM   20  C   UNL     1     -11.515  15.448  69.509  1.00  0.00    -0.330 A  
HETATM   21  C   UNL     1     -10.797  16.207  68.505  1.00  0.00    -0.313 A  
BRANCH   9  22
HETATM   22  C   UNL     1      -9.356  12.982  68.158  1.00  0.00    -0.217 C  
HETATM   23  H1  UNL     1      -7.578  12.883  69.156  1.00  0.00     0.000 HD 
HETATM   24  N   UNL     1      -8.399  13.469  69.003  1.00  0.00    -0.334 N  
HETATM   25  O   UNL     1      -9.187  11.886  67.628  1.00  0.00    -0.173 OA 
HETATM   26  H2  UNL     1      -8.499  14.376  69.459  1.00  0.00     0.000 HD 
ENDBRANCH   9  22
ENDBRANCH   8   9
ENDBRANCH   7   8
ENDBRANCH   6   7
ENDBRANCH   4   6
ENDBRANCH   2   4
TORSDOF 6
ENDMDL
MODEL        8
REMARK 921   NORMALIZED FREE ENERGY PREDICTED BY IDOCK:   -6.02 KCAL/MOL
REMARK 922        TOTAL FREE ENERGY PREDICTED BY IDOCK:   -9.14 KCAL/MOL
REMARK 923 INTER-LIGAND FREE ENERGY PREDICTED BY IDOCK:   -8.06 KCAL/MOL
REMARK 924 INTRA-LIGAND FREE ENERGY PREDICTED BY IDOCK:   -1.08 KCAL/MOL
REMARK 927      BINDING AFFINITY PREDICTED BY RF-SCORE:    0.00 PKD
ROOT
HETATM    1  C   UNL     1     -13.809  13.979  72.243  1.00  0.00    -0.655 C  
HETATM    2  C   UNL     1     -13.482  15.402  71.788  1.00  0.00    -0.487 C  
HETATM    3  C   UNL     1     -12.238  15.909  72.519  1.00  0.00    -0.597 C  
ENDROOT
BRANCH   2   4
HETATM    4  N   UNL     1     -13.301  15.360  70.335  1.00  0.00    -0.752 NA 
HETATM    5  H   UNL     1     -13.926  16.023  69.876  1.00  0.00     0.000 HD 
BRANCH   4   6
HETATM    6  C   UNL     1     -11.923  15.572  69.902  1.00  0.00    -0.362 C  
BRANCH   6   7
HETATM    7  C   UNL     1     -11.397  14.337  69.171  1.00  0.00    -0.312 C  
BRANCH   7   8
HETATM    8  C   UNL     1     -12.013  14.129  67.772  1.00  0.00    -0.389 C  
BRANCH   8   9
HETATM    9  C   UNL     1     -10.988  14.069  66.610  1.00  0.00    -0.300 C  
HETATM   10  C   UNL     1      -9.933  12.985  66.878  1.00  0.00    -0.243 A  
HETATM   11  C   UNL     1     -10.121  15.334  66.578  1.00  0.00    -0.280 A  
HETATM   12  C   UNL     1     -10.522  16.645  66.354  1.00  0.00    -0.266 A  
HETATM   13  C   UNL     1     -10.123  11.616  67.011  1.00  0.00    -0.234 A  
HETATM   14  C   UNL     1      -9.564  17.651  66.469  1.00  0.00    -0.301 A  
HETATM   15  C   UNL     1      -8.236  17.340  66.808  1.00  0.00    -0.279 A  
HETATM   16  C   UNL     1      -7.836  16.015  67.018  1.00  0.00    -0.263 A  
HETATM   17  C   UNL     1      -9.021  10.831  67.348  1.00  0.00    -0.141 A  
HETATM   18  C   UNL     1      -7.759  11.415  67.548  1.00  0.00    -0.125 A  
HETATM   19  C   UNL     1      -7.575  12.796  67.407  1.00  0.00    -0.152 A  
HETATM   20  C   UNL     1      -8.666  13.579  67.069  1.00  0.00    -0.197 A  
HETATM   21  C   UNL     1      -8.781  15.013  66.891  1.00  0.00    -0.285 A  
BRANCH   9  22
HETATM   22  C   UNL     1     -11.707  13.835  65.264  1.00  0.00    -0.338 C  
HETATM   23  H1  UNL     1     -13.549  13.652  64.402  1.00  0.00     0.000 HD 
HETATM   24  N   UNL     1     -13.074  13.806  65.291  1.00  0.00    -0.744 N  
HETATM   25  O   UNL     1     -11.125  13.671  64.193  1.00  0.00    -0.354 OA 
HETATM   26  H2  UNL     1     -13.594  13.933  66.160  1.00  0.00     0.000 HD 
ENDBRANCH   9  22
ENDBRANCH   8   9
ENDBRANCH   7   8
ENDBRANCH   6   7
ENDBRANCH   4   6
ENDBRANCH   2   4
TORSDOF 6
ENDMDL
MODEL        9
REMARK 921   NORMALIZED FREE ENERGY PREDICTED BY IDOCK:   -5.96 KCAL/MOL
REMARK 922        TOTAL FREE ENERGY PREDICTED BY IDOCK:   -9.06 KCAL/MOL
REMARK 923 INTER-LIGAND FREE ENERGY PREDICTED BY IDOCK:   -8.24 KCAL/MOL
REMARK 924 INTRA-LIGAND FREE ENERGY PREDICTED BY IDOCK:   -0.81 KCAL/MOL
REMARK 927      BINDING AFFINITY PREDICTED BY RF-SCORE:    0.00 PKD
ROOT
HETATM    1  C   UNL     1     -13.826  13.623  72.204  1.00  0.00    -0.642 C  
HETATM    2  C   UNL     1     -13.935  15.111  71.865  1.00  0.00    -0.528 C  
HETATM    3  C   UNL     1     -13.535  15.952  73.078  1.00  0.00    -0.653 C  
ENDROOT
BRANCH   2   4
HETATM    4  N   UNL     1     -13.074  15.354  70.705  1.00  0.00    -0.657 NA 
HETATM    5  H   UNL     1     -13.461  16.095  70.120  1.00  0.00     0.000 HD 
BRANCH   4   6
HETATM    6  C   UNL     1     -11.685  15.645  71.048  1.00  0.00    -0.403 C  
BRANCH   6   7
HETATM    7  C   UNL     1     -10.776  15.413  69.840  1.00  0.00    -0.315 C  
BRANCH   7   8
HETATM    8  C   UNL     1     -11.076  16.341  68.645  1.00  0.00    -0.356 C  
BRANCH   8   9
HETATM    9  C   UNL     1     -10.303  16.000  67.345  1.00  0.00    -0.294 C  
HETATM   10  C   UNL     1     -10.775  14.654  66.774  1.00  0.00    -0.301 A  
HETATM   11  C   UNL     1      -8.829  15.701  67.646  1.00  0.00    -0.181 A  
HETATM   12  C   UNL     1      -7.868  16.556  68.170  1.00  0.00    -0.168 A  
HETATM   13  C   UNL     1     -12.041  14.312  66.317  1.00  0.00    -0.433 A  
HETATM   14  C   UNL     1      -6.608  16.031  68.451  1.00  0.00    -0.120 A  
HETATM   15  C   UNL     1      -6.328  14.675  68.215  1.00  0.00    -0.124 A  
HETATM   16  C   UNL     1      -7.297  13.822  67.674  1.00  0.00    -0.182 A  
HETATM   17  C   UNL     1     -12.262  12.992  65.928  1.00  0.00    -0.493 A  
HETATM   18  C   UNL     1     -11.231  12.040  66.001  1.00  0.00    -0.385 A  
HETATM   19  C   UNL     1      -9.956  12.394  66.459  1.00  0.00    -0.242 A  
HETATM   20  C   UNL     1      -9.731  13.706  66.844  1.00  0.00    -0.262 A  
HETATM   21  C   UNL     1      -8.544  14.342  67.381  1.00  0.00    -0.213 A  
BRANCH   9  22
HETATM   22  C   UNL     1     -10.455  17.135  66.310  1.00  0.00    -0.260 C  
HETATM   23  H1  UNL     1     -10.750  19.146  66.117  1.00  0.00     0.000 HD 
HETATM   24  N   UNL     1     -10.649  18.396  66.801  1.00  0.00    -0.368 N  
HETATM   25  O   UNL     1     -10.417  16.965  65.093  1.00  0.00    -0.663 OA 
HETATM   26  H2  UNL     1     -10.692  18.579  67.804  1.00  0.00     0.000 HD 
ENDBRANCH   9  22
ENDBRANCH   8   9
ENDBRANCH   7   8
ENDBRANCH   6   7
ENDBRANCH   4   6
ENDBRANCH   2   4
TORSDOF 6
ENDMDL
MODEL       10
REMARK 921   NORMALIZED FREE ENERGY PREDICTED BY IDOCK:   -5.96 KCAL/MOL
REMARK 922        TOTAL FREE ENERGY PREDICTED BY IDOCK:   -9.06 KCAL/MOL
REMARK 923 INTER-LIGAND FREE ENERGY PREDICTED BY IDOCK:   -8.12 KCAL/MOL
REMARK 924 INTRA-LIGAND FREE ENERGY PREDICTED BY IDOCK:   -0.94 KCAL/MOL
REMARK 927      BINDING AFFINITY PREDICTED BY RF-SCORE:    0.00 PKD
ROOT
HETATM    1  C   UNL     1     -13.590  13.885  72.316  1.00  0.00    -0.642 C  
HETATM    2  C   UNL     1     -13.404  15.251  71.655  1.00  0.00    -0.463 C  
HETATM    3  C   UNL     1     -12.333  16.049  72.400  1.00  0.00    -0.581 C  
ENDROOT
BRANCH   2   4
HETATM    4  N   UNL     1     -13.051  15.009  70.253  1.00  0.00    -0.638 NA 
HETATM    5  H   UNL     1     -12.580  15.822  69.856  1.00  0.00     0.000 HD 
BRANCH   4   6
HETATM    6  C   UNL     1     -12.256  13.803  70.043  1.00  0.00    -0.342 C  
BRANCH   6   7
HETATM    7  C   UNL     1     -11.963  13.608  68.555  1.00  0.00    -0.396 C  
BRANCH   7   8
HETATM    8  C   UNL     1     -11.578  14.907  67.818  1.00  0.00    -0.358 C  
BRANCH   8   9
HETATM    9  C   UNL     1     -10.455  14.749  66.760  1.00  0.00    -0.282 C  
HETATM   10  C   UNL     1     -10.976  13.985  65.533  1.00  0.00    -0.309 A  
HETATM   11  C   UNL     1      -9.358  13.803  67.263  1.00  0.00    -0.239 A  
HETATM   12  C   UNL     1      -8.513  13.969  68.352  1.00  0.00    -0.166 A  
HETATM   13  C   UNL     1     -11.988  14.356  64.657  1.00  0.00    -0.475 A  
HETATM   14  C   UNL     1      -7.651  12.923  68.678  1.00  0.00    -0.085 A  
HETATM   15  C   UNL     1      -7.649  11.736  67.925  1.00  0.00    -0.121 A  
HETATM   16  C   UNL     1      -8.494  11.581  66.820  1.00  0.00    -0.168 A  
HETATM   17  C   UNL     1     -12.354  13.452  63.661  1.00  0.00    -0.422 A  
HETATM   18  C   UNL     1     -11.717  12.205  63.554  1.00  0.00    -0.579 A  
HETATM   19  C   UNL     1     -10.695  11.841  64.438  1.00  0.00    -0.381 A  
HETATM   20  C   UNL     1     -10.324  12.737  65.428  1.00  0.00    -0.310 A  
HETATM   21  C   UNL     1      -9.341  12.623  66.486  1.00  0.00    -0.228 A  
BRANCH   9  22
HETATM   22  C   UNL     1      -9.884  16.128  66.366  1.00  0.00    -0.284 C  
HETATM   23  H1  UNL     1     -10.061  18.133  66.708  1.00  0.00     0.000 HD 
HETATM   24  N   UNL     1     -10.439  17.222  66.969  1.00  0.00    -0.314 N  
HETATM   25  O   UNL     1      -8.979  16.288  65.549  1.00  0.00    -0.336 OA 
HETATM   26  H2  UNL     1     -11.195  17.132  67.648  1.00  0.00     0.000 HD 
ENDBRANCH   9  22
ENDBRANCH   8   9
ENDBRANCH   7   8
ENDBRANCH   6   7
ENDBRANCH   4   6
ENDBRANCH   2   4
TORSDOF 6
ENDMDL
MODEL       11
REMARK 921   NORMALIZED FREE ENERGY PREDICTED BY IDOCK:   -5.93 KCAL/MOL
REMARK 922        TOTAL FREE ENERGY PREDICTED BY IDOCK:   -9.02 KCAL/MOL
REMARK 923 INTER-LIGAND FREE ENERGY PREDICTED BY IDOCK:   -7.43 KCAL/MOL
REMARK 924 INTRA-LIGAND FREE ENERGY PREDICTED BY IDOCK:   -1.58 KCAL/MOL
REMARK 927      BINDING AFFINITY PREDICTED BY RF-SCORE:    0.00 PKD
ROOT
HETATM    1  C   UNL     1      -7.376  11.312  68.591  1.00  0.00    -0.109 C  
HETATM    2  C   UNL     1      -6.558  11.848  67.414  1.00  0.00    -0.124 C  
HETATM    3  C   UNL     1      -6.481  10.792  66.311  1.00  0.00    -0.134 C  
ENDROOT
BRANCH   2   4
HETATM    4  N   UNL     1      -7.205  13.083  66.965  1.00  0.00    -0.351 NA 
HETATM    5  H   UNL     1      -8.057  12.873  66.445  1.00  0.00     0.000 HD 
BRANCH   4   6
HETATM    6  C   UNL     1      -7.481  14.032  68.039  1.00  0.00    -0.141 C  
BRANCH   6   7
HETATM    7  C   UNL     1      -8.784  14.785  67.765  1.00  0.00    -0.173 C  
BRANCH   7   8
HETATM    8  C   UNL     1      -9.414  14.466  66.394  1.00  0.00    -0.309 C  
BRANCH   8   9
HETATM    9  C   UNL     1     -10.791  13.756  66.459  1.00  0.00    -0.287 C  
HETATM   10  C   UNL     1     -11.404  13.896  67.861  1.00  0.00    -0.320 A  
HETATM   11  C   UNL     1     -10.629  12.234  66.350  1.00  0.00    -0.272 A  
HETATM   12  C   UNL     1     -10.132  11.497  65.284  1.00  0.00    -0.314 A  
HETATM   13  C   UNL     1     -11.779  15.059  68.521  1.00  0.00    -0.345 A  
HETATM   14  C   UNL     1      -9.986  10.121  65.450  1.00  0.00    -0.377 A  
HETATM   15  C   UNL     1     -10.329   9.506  66.666  1.00  0.00    -0.280 A  
HETATM   16  C   UNL     1     -10.842  10.254  67.733  1.00  0.00    -0.346 A  
HETATM   17  C   UNL     1     -12.230  14.948  69.836  1.00  0.00    -0.354 A  
HETATM   18  C   UNL     1     -12.299  13.695  70.467  1.00  0.00    -0.425 A  
HETATM   19  C   UNL     1     -11.924  12.527  69.793  1.00  0.00    -0.359 A  
HETATM   20  C   UNL     1     -11.478  12.632  68.485  1.00  0.00    -0.349 A  
HETATM   21  C   UNL     1     -11.000  11.618  67.566  1.00  0.00    -0.312 A  
BRANCH   9  22
HETATM   22  C   UNL     1     -11.738  14.308  65.372  1.00  0.00    -0.354 C  
HETATM   23  H1  UNL     1     -11.822  15.540  63.747  1.00  0.00     0.000 HD 
HETATM   24  N   UNL     1     -11.196  15.176  64.465  1.00  0.00    -0.655 N  
HETATM   25  O   UNL     1     -12.929  14.017  65.286  1.00  0.00    -0.743 OA 
HETATM   26  H2  UNL     1     -10.213  15.446  64.504  1.00  0.00     0.000 HD 
ENDBRANCH   9  22
ENDBRANCH   8   9
ENDBRANCH   7   8
ENDBRANCH   6   7
ENDBRANCH   4   6
ENDBRANCH   2   4
TORSDOF 6
ENDMDL
MODEL       12
REMARK 921   NORMALIZED FREE ENERGY PREDICTED BY IDOCK:   -5.93 KCAL/MOL
REMARK 922        TOTAL FREE ENERGY PREDICTED BY IDOCK:   -9.02 KCAL/MOL
REMARK 923 INTER-LIGAND FREE ENERGY PREDICTED BY IDOCK:   -7.93 KCAL/MOL
REMARK 924 INTRA-LIGAND FREE ENERGY PREDICTED BY IDOCK:   -1.09 KCAL/MOL
REMARK 927      BINDING AFFINITY PREDICTED BY RF-SCORE:    0.00 PKD
ROOT
HETATM    1  C   UNL     1     -10.975  10.993  68.921  1.00  0.00    -0.277 C  
HETATM    2  C   UNL     1     -12.030  11.740  69.740  1.00  0.00    -0.322 C  
HETATM    3  C   UNL     1     -12.403  10.923  70.977  1.00  0.00    -0.498 C  
ENDROOT
BRANCH   2   4
HETATM    4  N   UNL     1     -11.465  13.049  70.080  1.00  0.00    -0.522 NA 
HETATM    5  H   UNL     1     -10.632  13.236  69.522  1.00  0.00     0.000 HD 
BRANCH   4   6
HETATM    6  C   UNL     1     -12.415  14.152  69.969  1.00  0.00    -0.296 C  
BRANCH   6   7
HETATM    7  C   UNL     1     -11.756  15.360  69.302  1.00  0.00    -0.367 C  
BRANCH   7   8
HETATM    8  C   UNL     1     -10.264  15.531  69.654  1.00  0.00    -0.289 C  
BRANCH   8   9
HETATM    9  C   UNL     1      -9.355  15.932  68.463  1.00  0.00    -0.206 C  
HETATM   10  C   UNL     1      -9.647  17.375  68.024  1.00  0.00    -0.276 A  
HETATM   11  C   UNL     1      -9.731  15.149  67.199  1.00  0.00    -0.230 A  
HETATM   12  C   UNL     1      -9.660  13.779  66.984  1.00  0.00    -0.251 A  
HETATM   13  C   UNL     1      -9.495  18.544  68.759  1.00  0.00    -0.334 A  
HETATM   14  C   UNL     1     -10.151  13.279  65.779  1.00  0.00    -0.293 A  
HETATM   15  C   UNL     1     -10.705  14.142  64.819  1.00  0.00    -0.436 A  
HETATM   16  C   UNL     1     -10.760  15.524  65.036  1.00  0.00    -0.463 A  
HETATM   17  C   UNL     1      -9.916  19.740  68.181  1.00  0.00    -0.557 A  
HETATM   18  C   UNL     1     -10.479  19.756  66.894  1.00  0.00    -0.596 A  
HETATM   19  C   UNL     1     -10.626  18.574  66.158  1.00  0.00    -0.377 A  
HETATM   20  C   UNL     1     -10.205  17.383  66.727  1.00  0.00    -0.318 A  
HETATM   21  C   UNL     1     -10.262  16.024  66.225  1.00  0.00    -0.329 A  
BRANCH   9  22
HETATM   22  C   UNL     1      -7.867  15.745  68.830  1.00  0.00    -0.190 C  
HETATM   23  H1  UNL     1      -6.605  14.761  70.097  1.00  0.00     0.000 HD 
HETATM   24  N   UNL     1      -7.588  14.885  69.855  1.00  0.00    -0.376 N  
HETATM   25  O   UNL     1      -6.942  16.323  68.263  1.00  0.00    -0.123 OA 
HETATM   26  H2  UNL     1      -8.327  14.390  70.354  1.00  0.00     0.000 HD 
ENDBRANCH   9  22
ENDBRANCH   8   9
ENDBRANCH   7   8
ENDBRANCH   6   7
ENDBRANCH   4   6
ENDBRANCH   2   4
TORSDOF 6
ENDMDL
MODEL       13
REMARK 921   NORMALIZED FREE ENERGY PREDICTED BY IDOCK:   -5.90 KCAL/MOL
REMARK 922        TOTAL FREE ENERGY PREDICTED BY IDOCK:   -8.97 KCAL/MOL
REMARK 923 INTER-LIGAND FREE ENERGY PREDICTED BY IDOCK:   -8.83 KCAL/MOL
REMARK 924 INTRA-LIGAND FREE ENERGY PREDICTED BY IDOCK:   -0.14 KCAL/MOL
REMARK 927      BINDING AFFINITY PREDICTED BY RF-SCORE:    0.00 PKD
ROOT
HETATM    1  C   UNL     1     -10.520  11.639  64.593  1.00  0.00    -0.354 C  
HETATM    2  C   UNL     1     -11.320  12.562  63.672  1.00  0.00    -0.485 C  
HETATM    3  C   UNL     1     -12.725  11.995  63.461  1.00  0.00    -0.567 C  
ENDROOT
BRANCH   2   4
HETATM    4  N   UNL     1     -11.338  13.887  64.297  1.00  0.00    -0.567 NA 
HETATM    5  H   UNL     1     -12.295  14.174  64.503  1.00  0.00     0.000 HD 
BRANCH   4   6
HETATM    6  C   UNL     1     -10.504  13.991  65.491  1.00  0.00    -0.327 C  
BRANCH   6   7
HETATM    7  C   UNL     1     -11.181  14.872  66.541  1.00  0.00    -0.335 C  
BRANCH   7   8
HETATM    8  C   UNL     1     -12.008  14.084  67.578  1.00  0.00    -0.430 C  
BRANCH   8   9
HETATM    9  C   UNL     1     -11.284  13.819  68.924  1.00  0.00    -0.309 C  
HETATM   10  C   UNL     1     -11.000  12.319  69.096  1.00  0.00    -0.217 A  
HETATM   11  C   UNL     1     -12.218  14.088  70.111  1.00  0.00    -0.425 A  
HETATM   12  C   UNL     1     -12.801  15.290  70.490  1.00  0.00    -0.421 A  
HETATM   13  C   UNL     1     -10.202  11.500  68.308  1.00  0.00    -0.205 A  
HETATM   14  C   UNL     1     -13.699  15.275  71.556  1.00  0.00    -0.610 A  
HETATM   15  C   UNL     1     -14.006  14.074  72.217  1.00  0.00    -0.651 A  
HETATM   16  C   UNL     1     -13.405  12.868  71.837  1.00  0.00    -0.530 A  
HETATM   17  C   UNL     1     -10.167  10.138  68.604  1.00  0.00    -0.193 A  
HETATM   18  C   UNL     1     -10.921   9.616  69.668  1.00  0.00    -0.253 A  
HETATM   19  C   UNL     1     -11.719  10.449  70.462  1.00  0.00    -0.434 A  
HETATM   20  C   UNL     1     -11.754  11.804  70.173  1.00  0.00    -0.354 A  
HETATM   21  C   UNL     1     -12.502  12.882  70.790  1.00  0.00    -0.370 A  
BRANCH   9  22
HETATM   22  C   UNL     1      -9.988  14.652  69.017  1.00  0.00    -0.193 C  
HETATM   23  H1  UNL     1      -7.953  14.530  68.924  1.00  0.00     0.000 HD 
HETATM   24  N   UNL     1      -8.809  13.979  68.863  1.00  0.00    -0.377 N  
HETATM   25  O   UNL     1      -9.964  15.864  69.222  1.00  0.00    -0.222 OA 
HETATM   26  H2  UNL     1      -8.786  12.972  68.695  1.00  0.00     0.000 HD 
ENDBRANCH   9  22
ENDBRANCH   8   9
ENDBRANCH   7   8
ENDBRANCH   6   7
ENDBRANCH   4   6
ENDBRANCH   2   4
TORSDOF 6
ENDMDL
MODEL       14
REMARK 921   NORMALIZED FREE ENERGY PREDICTED BY IDOCK:   -5.89 KCAL/MOL
REMARK 922        TOTAL FREE ENERGY PREDICTED BY IDOCK:   -8.97 KCAL/MOL
REMARK 923 INTER-LIGAND FREE ENERGY PREDICTED BY IDOCK:   -7.48 KCAL/MOL
REMARK 924 INTRA-LIGAND FREE ENERGY PREDICTED BY IDOCK:   -1.49 KCAL/MOL
REMARK 927      BINDING AFFINITY PREDICTED BY RF-SCORE:    0.00 PKD
ROOT
HETATM    1  C   UNL     1      -6.932  18.323  66.003  1.00  0.00    -0.315 C  
HETATM    2  C   UNL     1      -6.192  18.316  67.342  1.00  0.00    -0.175 C  
HETATM    3  C   UNL     1      -6.329  19.680  68.019  1.00  0.00    -0.254 C  
ENDROOT
BRANCH   2   4
HETATM    4  N   UNL     1      -6.763  17.231  68.145  1.00  0.00    -0.175 NA 
HETATM    5  H   UNL     1      -7.701  17.475  68.463  1.00  0.00     0.000 HD 
BRANCH   4   6
HETATM    6  C   UNL     1      -6.771  15.936  67.472  1.00  0.00    -0.185 C  
BRANCH   6   7
HETATM    7  C   UNL     1      -7.747  14.981  68.160  1.00  0.00    -0.115 C  
BRANCH   7   8
HETATM    8  C   UNL     1      -8.686  15.670  69.172  1.00  0.00    -0.251 C  
BRANCH   8   9
HETATM    9  C   UNL     1     -10.111  15.972  68.639  1.00  0.00    -0.220 C  
HETATM   10  C   UNL     1     -10.374  15.198  67.338  1.00  0.00    -0.244 A  
HETATM   11  C   UNL     1     -10.219  17.423  68.155  1.00  0.00    -0.350 A  
HETATM   12  C   UNL     1     -10.089  18.589  68.898  1.00  0.00    -0.348 A  
HETATM   13  C   UNL     1     -10.407  13.822  67.149  1.00  0.00    -0.261 A  
HETATM   14  C   UNL     1     -10.131  19.806  68.220  1.00  0.00    -0.575 A  
HETATM   15  C   UNL     1     -10.294  19.843  66.825  1.00  0.00    -0.599 A  
HETATM   16  C   UNL     1     -10.438  18.664  66.083  1.00  0.00    -0.473 A  
HETATM   17  C   UNL     1     -10.573  13.343  65.850  1.00  0.00    -0.286 A  
HETATM   18  C   UNL     1     -10.701  14.232  64.770  1.00  0.00    -0.435 A  
HETATM   19  C   UNL     1     -10.672  15.617  64.969  1.00  0.00    -0.458 A  
HETATM   20  C   UNL     1     -10.510  16.097  66.258  1.00  0.00    -0.321 A  
HETATM   21  C   UNL     1     -10.410  17.456  66.755  1.00  0.00    -0.305 A  
BRANCH   9  22
HETATM   22  C   UNL     1     -11.171  15.647  69.713  1.00  0.00    -0.321 C  
HETATM   23  H1  UNL     1     -11.416  14.919  71.604  1.00  0.00     0.000 HD 
HETATM   24  N   UNL     1     -10.716  15.133  70.894  1.00  0.00    -0.535 N  
HETATM   25  O   UNL     1     -12.379  15.818  69.559  1.00  0.00    -0.281 OA 
HETATM   26  H2  UNL     1      -9.722  14.972  71.059  1.00  0.00     0.000 HD 
ENDBRANCH   9  22
ENDBRANCH   8   9
ENDBRANCH   7   8
ENDBRANCH   6   7
ENDBRANCH   4   6
ENDBRANCH   2   4
TORSDOF 6
ENDMDL
MODEL       15
REMARK 921   NORMALIZED FREE ENERGY PREDICTED BY IDOCK:   -5.82 KCAL/MOL
REMARK 922        TOTAL FREE ENERGY PREDICTED BY IDOCK:   -8.87 KCAL/MOL
REMARK 923 INTER-LIGAND FREE ENERGY PREDICTED BY IDOCK:   -7.42 KCAL/MOL
REMARK 924 INTRA-LIGAND FREE ENERGY PREDICTED BY IDOCK:   -1.45 KCAL/MOL
REMARK 927      BINDING AFFINITY PREDICTED BY RF-SCORE:    0.00 PKD
ROOT
HETATM    1  C   UNL     1      -8.994   9.757  68.897  1.00  0.00    -0.144 C  
HETATM    2  C   UNL     1      -9.112   9.350  67.428  1.00  0.00    -0.126 C  
HETATM    3  C   UNL     1     -10.471   8.696  67.176  1.00  0.00    -0.360 C  
ENDROOT
BRANCH   2   4
HETATM    4  N   UNL     1      -8.915  10.561  66.627  1.00  0.00    -0.141 NA 
HETATM    5  H   UNL     1      -9.810  10.924  66.299  1.00  0.00     0.000 HD 
BRANCH   4   6
HETATM    6  C   UNL     1      -8.157  11.606  67.309  1.00  0.00    -0.160 C  
BRANCH   6   7
HETATM    7  C   UNL     1      -8.710  12.986  66.953  1.00  0.00    -0.158 C  
BRANCH   7   8
HETATM    8  C   UNL     1      -9.802  12.961  65.865  1.00  0.00    -0.239 C  
BRANCH   8   9
HETATM    9  C   UNL     1     -11.147  13.615  66.274  1.00  0.00    -0.304 C  
HETATM   10  C   UNL     1     -10.969  15.127  66.482  1.00  0.00    -0.318 A  
HETATM   11  C   UNL     1     -11.570  13.164  67.678  1.00  0.00    -0.392 A  
HETATM   12  C   UNL     1     -11.891  11.884  68.109  1.00  0.00    -0.338 A  
HETATM   13  C   UNL     1     -10.589  16.083  65.549  1.00  0.00    -0.415 A  
HETATM   14  C   UNL     1     -12.156  11.696  69.465  1.00  0.00    -0.336 A  
HETATM   15  C   UNL     1     -12.090  12.775  70.363  1.00  0.00    -0.382 A  
HETATM   16  C   UNL     1     -11.779  14.066  69.919  1.00  0.00    -0.368 A  
HETATM   17  C   UNL     1     -10.401  17.391  65.992  1.00  0.00    -0.309 A  
HETATM   18  C   UNL     1     -10.589  17.725  67.343  1.00  0.00    -0.341 A  
HETATM   19  C   UNL     1     -10.977  16.757  68.277  1.00  0.00    -0.327 A  
HETATM   20  C   UNL     1     -11.168  15.456  67.841  1.00  0.00    -0.329 A  
HETATM   21  C   UNL     1     -11.530  14.258  68.573  1.00  0.00    -0.329 A  
BRANCH   9  22
HETATM   22  C   UNL     1     -12.238  13.315  65.224  1.00  0.00    -0.448 C  
HETATM   23  H1  UNL     1     -12.725  12.076  63.677  1.00  0.00     0.000 HD 
HETATM   24  N   UNL     1     -12.004  12.274  64.371  1.00  0.00    -0.391 N  
HETATM   25  O   UNL     1     -13.282  13.956  65.117  1.00  0.00    -0.768 OA 
HETATM   26  H2  UNL     1     -11.148  11.721  64.425  1.00  0.00     0.000 HD 
ENDBRANCH   9  22
ENDBRANCH   8   9
ENDBRANCH   7   8
ENDBRANCH   6   7
ENDBRANCH   4   6
ENDBRANCH   2   4
TORSDOF 6
ENDMDL
MODEL       16
REMARK 921   NORMALIZED FREE ENERGY PREDICTED BY IDOCK:   -5.80 KCAL/MOL
REMARK 922        TOTAL FREE ENERGY PREDICTED BY IDOCK:   -8.84 KCAL/MOL
REMARK 923 INTER-LIGAND FREE ENERGY PREDICTED BY IDOCK:   -7.73 KCAL/MOL
REMARK 924 INTRA-LIGAND FREE ENERGY PREDICTED BY IDOCK:   -1.11 KCAL/MOL
REMARK 927      BINDING AFFINITY PREDICTED BY RF-SCORE:    0.00 PKD
ROOT
HETATM    1  C   UNL     1     -11.395   9.659  70.969  1.00  0.00    -0.444 C  
HETATM    2  C   UNL     1     -12.322  10.803  70.553  1.00  0.00    -0.369 C  
HETATM    3  C   UNL     1     -13.213  11.205  71.729  1.00  0.00    -0.486 C  
ENDROOT
BRANCH   2   4
HETATM    4  N   UNL     1     -11.470  11.903  70.092  1.00  0.00    -0.521 NA 
HETATM    5  H   UNL     1     -11.149  11.732  69.139  1.00  0.00     0.000 HD 
BRANCH   4   6
HETATM    6  C   UNL     1     -12.093  13.219  70.194  1.00  0.00    -0.333 C  
BRANCH   6   7
HETATM    7  C   UNL     1     -11.501  14.173  69.157  1.00  0.00    -0.338 C  
BRANCH   7   8
HETATM    8  C   UNL     1     -12.215  14.131  67.791  1.00  0.00    -0.208 C  
BRANCH   8   9
HETATM    9  C   UNL     1     -11.274  13.974  66.567  1.00  0.00    -0.326 C  
HETATM   10  C   UNL     1     -10.403  12.718  66.716  1.00  0.00    -0.248 A  
HETATM   11  C   UNL     1     -10.211  15.080  66.549  1.00  0.00    -0.281 A  
HETATM   12  C   UNL     1     -10.398  16.450  66.417  1.00  0.00    -0.319 A  
HETATM   13  C   UNL     1     -10.812  11.393  66.790  1.00  0.00    -0.336 A  
HETATM   14  C   UNL     1      -9.281  17.276  66.526  1.00  0.00    -0.282 A  
HETATM   15  C   UNL     1      -8.009  16.733  66.768  1.00  0.00    -0.275 A  
HETATM   16  C   UNL     1      -7.826  15.350  66.886  1.00  0.00    -0.196 A  
HETATM   17  C   UNL     1      -9.840  10.420  67.020  1.00  0.00    -0.234 A  
HETATM   18  C   UNL     1      -8.491  10.776  67.174  1.00  0.00    -0.126 A  
HETATM   19  C   UNL     1      -8.085  12.114  67.093  1.00  0.00    -0.175 A  
HETATM   20  C   UNL     1      -9.047  13.084  66.862  1.00  0.00    -0.227 A  
HETATM   21  C   UNL     1      -8.930  14.526  66.765  1.00  0.00    -0.270 A  
BRANCH   9  22
HETATM   22  C   UNL     1     -12.089  13.943  65.257  1.00  0.00    -0.410 C  
HETATM   23  H1  UNL     1     -11.923  13.779  63.229  1.00  0.00     0.000 HD 
HETATM   24  N   UNL     1     -11.384  13.800  64.095  1.00  0.00    -0.585 N  
HETATM   25  O   UNL     1     -13.314  14.043  65.207  1.00  0.00    -0.741 OA 
HETATM   26  H2  UNL     1     -10.367  13.719  64.093  1.00  0.00     0.000 HD 
ENDBRANCH   9  22
ENDBRANCH   8   9
ENDBRANCH   7   8
ENDBRANCH   6   7
ENDBRANCH   4   6
ENDBRANCH   2   4
TORSDOF 6
ENDMDL
MODEL       17
REMARK 921   NORMALIZED FREE ENERGY PREDICTED BY IDOCK:   -5.79 KCAL/MOL
REMARK 922        TOTAL FREE ENERGY PREDICTED BY IDOCK:   -8.83 KCAL/MOL
REMARK 923 INTER-LIGAND FREE ENERGY PREDICTED BY IDOCK:   -7.42 KCAL/MOL
REMARK 924 INTRA-LIGAND FREE ENERGY PREDICTED BY IDOCK:   -1.41 KCAL/MOL
REMARK 927      BINDING AFFINITY PREDICTED BY RF-SCORE:    0.00 PKD
ROOT
HETATM    1  C   UNL     1      -6.814  15.088  69.999  1.00  0.00    -0.126 C  
HETATM    2  C   UNL     1      -7.781  14.742  68.866  1.00  0.00    -0.146 C  
HETATM    3  C   UNL     1      -7.271  15.328  67.549  1.00  0.00    -0.224 C  
ENDROOT
BRANCH   2   4
HETATM    4  N   UNL     1      -7.891  13.281  68.824  1.00  0.00    -0.309 NA 
HETATM    5  H   UNL     1      -8.786  12.978  69.209  1.00  0.00     0.000 HD 
BRANCH   4   6
HETATM    6  C   UNL     1      -7.684  12.708  67.498  1.00  0.00    -0.161 C  
BRANCH   6   7
HETATM    7  C   UNL     1      -8.942  11.979  67.027  1.00  0.00    -0.198 C  
BRANCH   7   8
HETATM    8  C   UNL     1      -9.673  12.682  65.865  1.00  0.00    -0.212 C  
BRANCH   8   9
HETATM    9  C   UNL     1     -11.051  13.291  66.234  1.00  0.00    -0.306 C  
HETATM   10  C   UNL     1     -10.919  14.798  66.503  1.00  0.00    -0.325 A  
HETATM   11  C   UNL     1     -11.527  12.781  67.600  1.00  0.00    -0.387 A  
HETATM   12  C   UNL     1     -11.837  11.479  67.971  1.00  0.00    -0.287 A  
HETATM   13  C   UNL     1     -10.520  15.795  65.622  1.00  0.00    -0.402 A  
HETATM   14  C   UNL     1     -12.158  11.237  69.305  1.00  0.00    -0.372 A  
HETATM   15  C   UNL     1     -12.160  12.283  70.243  1.00  0.00    -0.376 A  
HETATM   16  C   UNL     1     -11.860  13.596  69.859  1.00  0.00    -0.389 A  
HETATM   17  C   UNL     1     -10.383  17.091  66.119  1.00  0.00    -0.326 A  
HETATM   18  C   UNL     1     -10.641  17.372  67.471  1.00  0.00    -0.330 A  
HETATM   19  C   UNL     1     -11.048  16.362  68.351  1.00  0.00    -0.351 A  
HETATM   20  C   UNL     1     -11.188  15.073  67.861  1.00  0.00    -0.330 A  
HETATM   21  C   UNL     1     -11.554  13.842  68.533  1.00  0.00    -0.367 A  
BRANCH   9  22
HETATM   22  C   UNL     1     -12.085  13.005  65.125  1.00  0.00    -0.433 C  
HETATM   23  H1  UNL     1     -13.922  13.548  64.420  1.00  0.00     0.000 HD 
HETATM   24  N   UNL     1     -13.239  13.738  65.153  1.00  0.00    -0.682 N  
HETATM   25  O   UNL     1     -11.929  12.166  64.240  1.00  0.00    -0.380 OA 
HETATM   26  H2  UNL     1     -13.409  14.440  65.873  1.00  0.00     0.000 HD 
ENDBRANCH   9  22
ENDBRANCH   8   9
ENDBRANCH   7   8
ENDBRANCH   6   7
ENDBRANCH   4   6
ENDBRANCH   2   4
TORSDOF 6
ENDMDL
MODEL       18
REMARK 921   NORMALIZED FREE ENERGY PREDICTED BY IDOCK:   -5.78 KCAL/MOL
REMARK 922        TOTAL FREE ENERGY PREDICTED BY IDOCK:   -8.81 KCAL/MOL
REMARK 923 INTER-LIGAND FREE ENERGY PREDICTED BY IDOCK:   -7.24 KCAL/MOL
REMARK 924 INTRA-LIGAND FREE ENERGY PREDICTED BY IDOCK:   -1.57 KCAL/MOL
REMARK 927      BINDING AFFINITY PREDICTED BY RF-SCORE:    0.00 PKD
ROOT
HETATM    1  C   UNL     1     -10.161   9.968  65.456  1.00  0.00    -0.325 C  
HETATM    2  C   UNL     1      -9.430  10.942  64.529  1.00  0.00    -0.244 C  
HETATM    3  C   UNL     1     -10.330  11.311  63.349  1.00  0.00    -0.449 C  
ENDROOT
BRANCH   2   4
HETATM    4  N   UNL     1      -9.056  12.107  65.336  1.00  0.00    -0.407 NA 
HETATM    5  H   UNL     1      -9.811  12.793  65.348  1.00  0.00     0.000 HD 
BRANCH   4   6
HETATM    6  C   UNL     1      -8.642  11.778  66.697  1.00  0.00    -0.170 C  
BRANCH   6   7
HETATM    7  C   UNL     1      -8.494  13.050  67.533  1.00  0.00    -0.190 C  
BRANCH   7   8
HETATM    8  C   UNL     1      -9.628  13.259  68.557  1.00  0.00    -0.127 C  
BRANCH   8   9
HETATM    9  C   UNL     1     -10.525  14.497  68.294  1.00  0.00    -0.242 C  
HETATM   10  C   UNL     1     -11.257  14.355  66.950  1.00  0.00    -0.340 A  
HETATM   11  C   UNL     1      -9.672  15.748  68.043  1.00  0.00    -0.212 A  
HETATM   12  C   UNL     1      -8.799  16.381  68.917  1.00  0.00    -0.256 A  
HETATM   13  C   UNL     1     -12.182  13.390  66.575  1.00  0.00    -0.414 A  
HETATM   14  C   UNL     1      -8.053  17.455  68.433  1.00  0.00    -0.264 A  
HETATM   15  C   UNL     1      -8.182  17.873  67.099  1.00  0.00    -0.228 A  
HETATM   16  C   UNL     1      -9.076  17.239  66.227  1.00  0.00    -0.245 A  
HETATM   17  C   UNL     1     -12.648  13.406  65.261  1.00  0.00    -0.518 A  
HETATM   18  C   UNL     1     -12.190  14.372  64.349  1.00  0.00    -0.481 A  
HETATM   19  C   UNL     1     -11.262  15.346  64.738  1.00  0.00    -0.404 A  
HETATM   20  C   UNL     1     -10.798  15.335  66.043  1.00  0.00    -0.331 A  
HETATM   21  C   UNL     1      -9.827  16.182  66.707  1.00  0.00    -0.255 A  
BRANCH   9  22
HETATM   22  C   UNL     1     -11.517  14.705  69.457  1.00  0.00    -0.297 C  
HETATM   23  H1  UNL     1     -12.190  13.886  71.202  1.00  0.00     0.000 HD 
HETATM   24  N   UNL     1     -11.535  13.748  70.433  1.00  0.00    -0.508 N  
HETATM   25  O   UNL     1     -12.280  15.666  69.546  1.00  0.00    -0.337 OA 
HETATM   26  H2  UNL     1     -10.921  12.934  70.394  1.00  0.00     0.000 HD 
ENDBRANCH   9  22
ENDBRANCH   8   9
ENDBRANCH   7   8
ENDBRANCH   6   7
ENDBRANCH   4   6
ENDBRANCH   2   4
TORSDOF 6
ENDMDL
MODEL       19
REMARK 921   NORMALIZED FREE ENERGY PREDICTED BY IDOCK:   -5.76 KCAL/MOL
REMARK 922        TOTAL FREE ENERGY PREDICTED BY IDOCK:   -8.79 KCAL/MOL
REMARK 923 INTER-LIGAND FREE ENERGY PREDICTED BY IDOCK:   -8.27 KCAL/MOL
REMARK 924 INTRA-LIGAND FREE ENERGY PREDICTED BY IDOCK:   -0.52 KCAL/MOL
REMARK 927      BINDING AFFINITY PREDICTED BY RF-SCORE:    0.00 PKD
ROOT
HETATM    1  C   UNL     1      -8.664   9.993  67.225  1.00  0.00    -0.127 C  
HETATM    2  C   UNL     1      -9.226   8.900  66.314  1.00  0.00    -0.207 C  
HETATM    3  C   UNL     1     -10.186   8.009  67.102  1.00  0.00    -0.362 C  
ENDROOT
BRANCH   2   4
HETATM    4  N   UNL     1      -9.880   9.571  65.187  1.00  0.00    -0.437 NA 
HETATM    5  H   UNL     1     -10.846   9.800  65.418  1.00  0.00     0.000 HD 
BRANCH   4   6
HETATM    6  C   UNL     1      -9.172  10.756  64.711  1.00  0.00    -0.214 C  
BRANCH   6   7
HETATM    7  C   UNL     1     -10.162  11.874  64.384  1.00  0.00    -0.333 C  
BRANCH   7   8
HETATM    8  C   UNL     1      -9.912  13.178  65.168  1.00  0.00    -0.170 C  
BRANCH   8   9
HETATM    9  C   UNL     1     -11.178  13.811  65.802  1.00  0.00    -0.300 C  
HETATM   10  C   UNL     1     -10.915  15.277  66.182  1.00  0.00    -0.307 A  
HETATM   11  C   UNL     1     -11.474  13.191  67.173  1.00  0.00    -0.378 A  
HETATM   12  C   UNL     1     -11.803  11.874  67.468  1.00  0.00    -0.249 A  
HETATM   13  C   UNL     1     -10.593  16.336  65.345  1.00  0.00    -0.371 A  
HETATM   14  C   UNL     1     -11.933  11.516  68.808  1.00  0.00    -0.335 A  
HETATM   15  C   UNL     1     -11.730  12.463  69.826  1.00  0.00    -0.361 A  
HETATM   16  C   UNL     1     -11.411  13.792  69.521  1.00  0.00    -0.327 A  
HETATM   17  C   UNL     1     -10.305  17.569  65.930  1.00  0.00    -0.265 A  
HETATM   18  C   UNL     1     -10.338  17.725  67.325  1.00  0.00    -0.364 A  
HETATM   19  C   UNL     1     -10.668  16.653  68.163  1.00  0.00    -0.349 A  
HETATM   20  C   UNL     1     -10.959  15.428  67.586  1.00  0.00    -0.315 A  
HETATM   21  C   UNL     1     -11.294  14.154  68.192  1.00  0.00    -0.316 A  
BRANCH   9  22
HETATM   22  C   UNL     1     -12.384  13.685  64.846  1.00  0.00    -0.406 C  
HETATM   23  H1  UNL     1     -13.121  14.312  63.049  1.00  0.00     0.000 HD 
HETATM   24  N   UNL     1     -12.324  14.395  63.680  1.00  0.00    -1.106 N  
HETATM   25  O   UNL     1     -13.376  12.997  65.079  1.00  0.00    -0.671 OA 
HETATM   26  H2  UNL     1     -11.521  14.982  63.451  1.00  0.00     0.000 HD 
ENDBRANCH   9  22
ENDBRANCH   8   9
ENDBRANCH   7   8
ENDBRANCH   6   7
ENDBRANCH   4   6
ENDBRANCH   2   4
TORSDOF 6
ENDMDL
MODEL       20
REMARK 921   NORMALIZED FREE ENERGY PREDICTED BY IDOCK:   -5.70 KCAL/MOL
REMARK 922        TOTAL FREE ENERGY PREDICTED BY IDOCK:   -8.71 KCAL/MOL
REMARK 923 INTER-LIGAND FREE ENERGY PREDICTED BY IDOCK:   -7.57 KCAL/MOL
REMARK 924 INTRA-LIGAND FREE ENERGY PREDICTED BY IDOCK:   -1.14 KCAL/MOL
REMARK 927      BINDING AFFINITY PREDICTED BY RF-SCORE:    0.00 PKD
ROOT
HETATM    1  C   UNL     1     -10.637  11.407  65.232  1.00  0.00    -0.336 C  
HETATM    2  C   UNL     1     -10.851  12.149  63.911  1.00  0.00    -0.406 C  
HETATM    3  C   UNL     1     -12.333  12.130  63.538  1.00  0.00    -0.682 C  
ENDROOT
BRANCH   2   4
HETATM    4  N   UNL     1     -10.335  13.509  64.092  1.00  0.00    -0.708 NA 
HETATM    5  H   UNL     1     -10.005  13.888  63.204  1.00  0.00     0.000 HD 
BRANCH   4   6
HETATM    6  C   UNL     1     -11.283  14.425  64.719  1.00  0.00    -0.387 C  
BRANCH   6   7
HETATM    7  C   UNL     1     -10.559  15.370  65.678  1.00  0.00    -0.379 C  
BRANCH   7   8
HETATM    8  C   UNL     1      -9.231  14.807  66.226  1.00  0.00    -0.278 C  
BRANCH   8   9
HETATM    9  C   UNL     1      -8.914  15.194  67.693  1.00  0.00    -0.183 C  
HETATM   10  C   UNL     1     -10.094  14.838  68.611  1.00  0.00    -0.238 A  
HETATM   11  C   UNL     1      -8.853  16.718  67.857  1.00  0.00    -0.218 A  
HETATM   12  C   UNL     1      -7.963  17.610  67.273  1.00  0.00    -0.222 A  
HETATM   13  C   UNL     1     -10.627  13.583  68.875  1.00  0.00    -0.188 A  
HETATM   14  C   UNL     1      -8.162  18.972  67.494  1.00  0.00    -0.301 A  
HETATM   15  C   UNL     1      -9.237  19.421  68.279  1.00  0.00    -0.402 A  
HETATM   16  C   UNL     1     -10.122  18.516  68.876  1.00  0.00    -0.348 A  
HETATM   17  C   UNL     1     -11.767  13.512  69.675  1.00  0.00    -0.378 A  
HETATM   18  C   UNL     1     -12.354  14.678  70.192  1.00  0.00    -0.390 A  
HETATM   19  C   UNL     1     -11.808  15.939  69.926  1.00  0.00    -0.309 A  
HETATM   20  C   UNL     1     -10.673  16.015  69.134  1.00  0.00    -0.272 A  
HETATM   21  C   UNL     1      -9.920  17.163  68.670  1.00  0.00    -0.313 A  
BRANCH   9  22
HETATM   22  C   UNL     1      -7.610  14.516  68.164  1.00  0.00    -0.125 C  
HETATM   23  H1  UNL     1      -6.467  14.130  69.811  1.00  0.00     0.000 HD 
HETATM   24  N   UNL     1      -7.329  14.578  69.500  1.00  0.00    -0.324 N  
HETATM   25  O   UNL     1      -6.825  13.941  67.412  1.00  0.00    -0.186 OA 
HETATM   26  H2  UNL     1      -7.952  15.050  70.156  1.00  0.00     0.000 HD 
ENDBRANCH   9  22
ENDBRANCH   8   9
ENDBRANCH   7   8
ENDBRANCH   6   7
ENDBRANCH   4   6
ENDBRANCH   2   4
TORSDOF 6
ENDMDL
MODEL       21
REMARK 921   NORMALIZED FREE ENERGY PREDICTED BY IDOCK:   -5.69 KCAL/MOL
REMARK 922        TOTAL FREE ENERGY PREDICTED BY IDOCK:   -8.69 KCAL/MOL
REMARK 923 INTER-LIGAND FREE ENERGY PREDICTED BY IDOCK:   -7.97 KCAL/MOL
REMARK 924 INTRA-LIGAND FREE ENERGY PREDICTED BY IDOCK:   -0.72 KCAL/MOL
REMARK 927      BINDING AFFINITY PREDICTED BY RF-SCORE:    0.00 PKD
ROOT
HETATM    1  C   UNL     1     -11.695  12.488  63.649  1.00  0.00    -0.594 C  
HETATM    2  C   UNL     1     -10.433  13.145  64.211  1.00  0.00    -0.389 C  
HETATM    3  C   UNL     1     -10.803  14.422  64.967  1.00  0.00    -0.420 C  
ENDROOT
BRANCH   2   4
HETATM    4  N   UNL     1      -9.777  12.155  65.069  1.00  0.00    -0.431 NA 
HETATM    5  H   UNL     1      -9.652  12.524  66.012  1.00  0.00     0.000 HD 
BRANCH   4   6
HETATM    6  C   UNL     1     -10.456  10.863  65.111  1.00  0.00    -0.246 C  
BRANCH   6   7
HETATM    7  C   UNL     1     -10.768  10.470  66.555  1.00  0.00    -0.191 C  
BRANCH   7   8
HETATM    8  C   UNL     1     -11.519  11.557  67.350  1.00  0.00    -0.349 C  
BRANCH   8   9
HETATM    9  C   UNL     1     -10.893  11.910  68.725  1.00  0.00    -0.270 C  
HETATM   10  C   UNL     1     -11.394  10.942  69.808  1.00  0.00    -0.374 A  
HETATM   11  C   UNL     1     -11.430  13.250  69.244  1.00  0.00    -0.345 A  
HETATM   12  C   UNL     1     -11.277  14.511  68.684  1.00  0.00    -0.281 A  
HETATM   13  C   UNL     1     -11.211   9.568  69.883  1.00  0.00    -0.209 A  
HETATM   14  C   UNL     1     -11.941  15.579  69.285  1.00  0.00    -0.338 A  
HETATM   15  C   UNL     1     -12.743  15.376  70.420  1.00  0.00    -0.407 A  
HETATM   16  C   UNL     1     -12.882  14.104  70.987  1.00  0.00    -0.421 A  
HETATM   17  C   UNL     1     -11.842   8.879  70.918  1.00  0.00    -0.283 A  
HETATM   18  C   UNL     1     -12.639   9.561  71.852  1.00  0.00    -0.479 A  
HETATM   19  C   UNL     1     -12.815  10.948  71.773  1.00  0.00    -0.509 A  
HETATM   20  C   UNL     1     -12.187  11.637  70.748  1.00  0.00    -0.443 A  
HETATM   21  C   UNL     1     -12.214  13.044  70.401  1.00  0.00    -0.386 A  
BRANCH   9  22
HETATM   22  C   UNL     1      -9.352  11.907  68.636  1.00  0.00    -0.069 C  
HETATM   23  H1  UNL     1      -7.670  11.027  69.386  1.00  0.00     0.000 HD 
HETATM   24  N   UNL     1      -8.689  11.028  69.445  1.00  0.00    -0.376 N  
HETATM   25  O   UNL     1      -8.706  12.644  67.893  1.00  0.00    -0.163 OA 
HETATM   26  H2  UNL     1      -9.188  10.404  70.079  1.00  0.00     0.000 HD 
ENDBRANCH   9  22
ENDBRANCH   8   9
ENDBRANCH   7   8
ENDBRANCH   6   7
ENDBRANCH   4   6
ENDBRANCH   2   4
TORSDOF 6
ENDMDL
MODEL       22
REMARK 921   NORMALIZED FREE ENERGY PREDICTED BY IDOCK:   -5.67 KCAL/MOL
REMARK 922        TOTAL FREE ENERGY PREDICTED BY IDOCK:   -8.66 KCAL/MOL
REMARK 923 INTER-LIGAND FREE ENERGY PREDICTED BY IDOCK:   -7.39 KCAL/MOL
REMARK 924 INTRA-LIGAND FREE ENERGY PREDICTED BY IDOCK:   -1.27 KCAL/MOL
REMARK 927      BINDING AFFINITY PREDICTED BY RF-SCORE:    0.00 PKD
ROOT
HETATM    1  C   UNL     1      -9.881  20.513  67.529  1.00  0.00    -0.534 C  
HETATM    2  C   UNL     1      -8.590  19.775  67.171  1.00  0.00    -0.322 C  
HETATM    3  C   UNL     1      -8.029  19.076  68.410  1.00  0.00    -0.375 C  
ENDROOT
BRANCH   2   4
HETATM    4  N   UNL     1      -8.915  18.834  66.095  1.00  0.00    -0.482 NA 
HETATM    5  H   UNL     1      -8.285  18.032  66.118  1.00  0.00     0.000 HD 
BRANCH   4   6
HETATM    6  C   UNL     1     -10.306  18.394  66.092  1.00  0.00    -0.407 C  
BRANCH   6   7
HETATM    7  C   UNL     1     -10.395  16.899  66.399  1.00  0.00    -0.302 C  
BRANCH   7   8
HETATM    8  C   UNL     1     -11.122  16.575  67.720  1.00  0.00    -0.179 C  
BRANCH   8   9
HETATM    9  C   UNL     1     -10.958  15.113  68.214  1.00  0.00    -0.276 C  
HETATM   10  C   UNL     1      -9.485  14.816  68.535  1.00  0.00    -0.214 A  
HETATM   11  C   UNL     1     -11.227  14.118  67.078  1.00  0.00    -0.328 A  
HETATM   12  C   UNL     1     -12.410  13.907  66.383  1.00  0.00    -0.468 A  
HETATM   13  C   UNL     1      -8.678  15.414  69.494  1.00  0.00    -0.210 A  
HETATM   14  C   UNL     1     -12.392  13.010  65.317  1.00  0.00    -0.537 A  
HETATM   15  C   UNL     1     -11.207  12.347  64.958  1.00  0.00    -0.354 A  
HETATM   16  C   UNL     1     -10.020  12.554  65.672  1.00  0.00    -0.259 A  
HETATM   17  C   UNL     1      -7.334  15.044  69.541  1.00  0.00    -0.202 A  
HETATM   18  C   UNL     1      -6.819  14.096  68.642  1.00  0.00    -0.101 A  
HETATM   19  C   UNL     1      -7.640  13.494  67.681  1.00  0.00    -0.181 A  
HETATM   20  C   UNL     1      -8.977  13.856  67.632  1.00  0.00    -0.192 A  
HETATM   21  C   UNL     1     -10.038  13.434  66.739  1.00  0.00    -0.260 A  
BRANCH   9  22
HETATM   22  C   UNL     1     -11.865  14.848  69.434  1.00  0.00    -0.324 C  
HETATM   23  H1  UNL     1     -13.262  15.702  70.652  1.00  0.00     0.000 HD 
HETATM   24  N   UNL     1     -12.663  15.878  69.846  1.00  0.00    -0.591 N  
HETATM   25  O   UNL     1     -11.901  13.780  70.043  1.00  0.00    -0.293 OA 
HETATM   26  H2  UNL     1     -12.659  16.781  69.370  1.00  0.00     0.000 HD 
ENDBRANCH   9  22
ENDBRANCH   8   9
ENDBRANCH   7   8
ENDBRANCH   6   7
ENDBRANCH   4   6
ENDBRANCH   2   4
TORSDOF 6
ENDMDL
MODEL       23
REMARK 921   NORMALIZED FREE ENERGY PREDICTED BY IDOCK:   -5.66 KCAL/MOL
REMARK 922        TOTAL FREE ENERGY PREDICTED BY IDOCK:   -8.65 KCAL/MOL
REMARK 923 INTER-LIGAND FREE ENERGY PREDICTED BY IDOCK:   -7.23 KCAL/MOL
REMARK 924 INTRA-LIGAND FREE ENERGY PREDICTED BY IDOCK:   -1.42 KCAL/MOL
REMARK 927      BINDING AFFINITY PREDICTED BY RF-SCORE:    0.00 PKD
ROOT
HETATM    1  C   UNL     1     -10.028  10.945  63.787  1.00  0.00    -0.408 C  
HETATM    2  C   UNL     1     -10.736  12.242  63.391  1.00  0.00    -0.391 C  
HETATM    3  C   UNL     1     -12.244  12.096  63.598  1.00  0.00    -0.663 C  
ENDROOT
BRANCH   2   4
HETATM    4  N   UNL     1     -10.159  13.315  64.205  1.00  0.00    -0.699 NA 
HETATM    5  H   UNL     1      -9.380  13.757  63.716  1.00  0.00     0.000 HD 
BRANCH   4   6
HETATM    6  C   UNL     1     -11.127  14.318  64.637  1.00  0.00    -0.363 C  
BRANCH   6   7
HETATM    7  C   UNL     1     -10.622  15.048  65.882  1.00  0.00    -0.338 C  
BRANCH   7   8
HETATM    8  C   UNL     1     -11.564  14.937  67.097  1.00  0.00    -0.327 C  
BRANCH   8   9
HETATM    9  C   UNL     1     -10.967  14.196  68.321  1.00  0.00    -0.266 C  
HETATM   10  C   UNL     1      -9.550  14.708  68.622  1.00  0.00    -0.219 A  
HETATM   11  C   UNL     1     -10.693  12.723  67.990  1.00  0.00    -0.246 A  
HETATM   12  C   UNL     1     -11.607  11.735  67.650  1.00  0.00    -0.364 A  
HETATM   13  C   UNL     1      -9.160  15.989  68.989  1.00  0.00    -0.242 A  
HETATM   14  C   UNL     1     -11.113  10.481  67.293  1.00  0.00    -0.284 A  
HETATM   15  C   UNL     1      -9.729  10.235  67.274  1.00  0.00    -0.199 A  
HETATM   16  C   UNL     1      -8.814  11.233  67.631  1.00  0.00    -0.138 A  
HETATM   17  C   UNL     1      -7.796  16.246  69.120  1.00  0.00    -0.231 A  
HETATM   18  C   UNL     1      -6.850  15.235  68.883  1.00  0.00    -0.122 A  
HETATM   19  C   UNL     1      -7.251  13.944  68.518  1.00  0.00    -0.107 A  
HETATM   20  C   UNL     1      -8.606  13.684  68.390  1.00  0.00    -0.151 A  
HETATM   21  C   UNL     1      -9.302  12.474  67.999  1.00  0.00    -0.205 A  
BRANCH   9  22
HETATM   22  C   UNL     1     -11.891  14.343  69.549  1.00  0.00    -0.329 C  
HETATM   23  H1  UNL     1     -13.317  15.536  70.391  1.00  0.00     0.000 HD 
HETATM   24  N   UNL     1     -12.706  15.440  69.580  1.00  0.00    -0.610 N  
HETATM   25  O   UNL     1     -11.926  13.543  70.482  1.00  0.00    -0.326 OA 
HETATM   26  H2  UNL     1     -12.703  16.129  68.828  1.00  0.00     0.000 HD 
ENDBRANCH   9  22
ENDBRANCH   8   9
ENDBRANCH   7   8
ENDBRANCH   6   7
ENDBRANCH   4   6
ENDBRANCH   2   4
TORSDOF 6
ENDMDL
MODEL       24
REMARK 921   NORMALIZED FREE ENERGY PREDICTED BY IDOCK:   -5.64 KCAL/MOL
REMARK 922        TOTAL FREE ENERGY PREDICTED BY IDOCK:   -8.62 KCAL/MOL
REMARK 923 INTER-LIGAND FREE ENERGY PREDICTED BY IDOCK:   -7.46 KCAL/MOL
REMARK 924 INTRA-LIGAND FREE ENERGY PREDICTED BY IDOCK:   -1.16 KCAL/MOL
REMARK 927      BINDING AFFINITY PREDICTED BY RF-SCORE:    0.00 PKD
ROOT
HETATM    1  C   UNL     1     -10.443  11.063  64.724  1.00  0.00    -0.384 C  
HETATM    2  C   UNL     1     -10.811  12.142  63.704  1.00  0.00    -0.464 C  
HETATM    3  C   UNL     1     -12.331  12.213  63.548  1.00  0.00    -0.682 C  
ENDROOT
BRANCH   2   4
HETATM    4  N   UNL     1     -10.236  13.402  64.182  1.00  0.00    -0.757 NA 
HETATM    5  H   UNL     1      -9.545  13.754  63.520  1.00  0.00     0.000 HD 
BRANCH   4   6
HETATM    6  C   UNL     1     -11.227  14.430  64.483  1.00  0.00    -0.306 C  
BRANCH   6   7
HETATM    7  C   UNL     1     -10.784  15.265  65.685  1.00  0.00    -0.376 C  
BRANCH   7   8
HETATM    8  C   UNL     1     -11.450  14.852  67.013  1.00  0.00    -0.333 C  
BRANCH   8   9
HETATM    9  C   UNL     1     -10.521  14.907  68.253  1.00  0.00    -0.239 C  
HETATM   10  C   UNL     1      -9.887  16.300  68.390  1.00  0.00    -0.229 A  
HETATM   11  C   UNL     1      -9.280  14.028  68.048  1.00  0.00    -0.201 A  
HETATM   12  C   UNL     1      -9.221  12.651  67.880  1.00  0.00    -0.201 A  
HETATM   13  C   UNL     1     -10.524  17.516  68.597  1.00  0.00    -0.338 A  
HETATM   14  C   UNL     1      -7.979  12.077  67.611  1.00  0.00    -0.150 A  
HETATM   15  C   UNL     1      -6.828  12.876  67.508  1.00  0.00    -0.155 A  
HETATM   16  C   UNL     1      -6.893  14.263  67.693  1.00  0.00    -0.201 A  
HETATM   17  C   UNL     1      -9.744  18.672  68.595  1.00  0.00    -0.418 A  
HETATM   18  C   UNL     1      -8.357  18.601  68.386  1.00  0.00    -0.362 A  
HETATM   19  C   UNL     1      -7.721  17.370  68.182  1.00  0.00    -0.221 A  
HETATM   20  C   UNL     1      -8.492  16.219  68.187  1.00  0.00    -0.174 A  
HETATM   21  C   UNL     1      -8.121  14.833  67.973  1.00  0.00    -0.140 A  
BRANCH   9  22
HETATM   22  C   UNL     1     -11.295  14.513  69.529  1.00  0.00    -0.275 C  
HETATM   23  H1  UNL     1     -11.271  14.645  71.566  1.00  0.00     0.000 HD 
HETATM   24  N   UNL     1     -10.759  14.905  70.723  1.00  0.00    -0.521 N  
HETATM   25  O   UNL     1     -12.345  13.873  69.525  1.00  0.00    -0.333 OA 
HETATM   26  H2  UNL     1      -9.887  15.434  70.770  1.00  0.00     0.000 HD 
ENDBRANCH   9  22
ENDBRANCH   8   9
ENDBRANCH   7   8
ENDBRANCH   6   7
ENDBRANCH   4   6
ENDBRANCH   2   4
TORSDOF 6
ENDMDL
MODEL       25
REMARK 921   NORMALIZED FREE ENERGY PREDICTED BY IDOCK:   -5.63 KCAL/MOL
REMARK 922        TOTAL FREE ENERGY PREDICTED BY IDOCK:   -8.61 KCAL/MOL
REMARK 923 INTER-LIGAND FREE ENERGY PREDICTED BY IDOCK:   -8.09 KCAL/MOL
REMARK 924 INTRA-LIGAND FREE ENERGY PREDICTED BY IDOCK:   -0.52 KCAL/MOL
REMARK 927      BINDING AFFINITY PREDICTED BY RF-SCORE:    0.00 PKD
ROOT
HETATM    1  C   UNL     1     -12.537  11.969  63.526  1.00  0.00    -0.625 C  
HETATM    2  C   UNL     1     -11.730  13.192  63.966  1.00  0.00    -0.439 C  
HETATM    3  C   UNL     1     -12.435  13.888  65.132  1.00  0.00    -0.479 C  
ENDROOT
BRANCH   2   4
HETATM    4  N   UNL     1     -10.390  12.720  64.323  1.00  0.00    -0.466 NA 
HETATM    5  H   UNL     1     -10.011  13.266  65.096  1.00  0.00     0.000 HD 
BRANCH   4   6
HETATM    6  C   UNL     1     -10.323  11.293  64.622  1.00  0.00    -0.315 C  
BRANCH   6   7
HETATM    7  C   UNL     1      -9.759  11.066  66.025  1.00  0.00    -0.265 C  
BRANCH   7   8
HETATM    8  C   UNL     1     -10.824  11.099  67.140  1.00  0.00    -0.326 C  
BRANCH   8   9
HETATM    9  C   UNL     1     -10.344  11.709  68.483  1.00  0.00    -0.224 C  
HETATM   10  C   UNL     1     -11.178  11.160  69.651  1.00  0.00    -0.333 A  
HETATM   11  C   UNL     1     -10.672  13.206  68.553  1.00  0.00    -0.277 A  
HETATM   12  C   UNL     1     -10.193  14.229  67.747  1.00  0.00    -0.235 A  
HETATM   13  C   UNL     1     -11.284   9.846  70.087  1.00  0.00    -0.347 A  
HETATM   14  C   UNL     1     -10.711  15.510  67.937  1.00  0.00    -0.294 A  
HETATM   15  C   UNL     1     -11.692  15.748  68.914  1.00  0.00    -0.404 A  
HETATM   16  C   UNL     1     -12.161  14.713  69.733  1.00  0.00    -0.371 A  
HETATM   17  C   UNL     1     -12.181   9.568  71.117  1.00  0.00    -0.421 A  
HETATM   18  C   UNL     1     -12.952  10.592  71.692  1.00  0.00    -0.582 A  
HETATM   19  C   UNL     1     -12.836  11.916  71.250  1.00  0.00    -0.391 A  
HETATM   20  C   UNL     1     -11.943  12.197  70.228  1.00  0.00    -0.389 A  
HETATM   21  C   UNL     1     -11.639  13.444  69.556  1.00  0.00    -0.352 A  
BRANCH   9  22
HETATM   22  C   UNL     1      -8.838  11.444  68.691  1.00  0.00    -0.125 C  
HETATM   23  H1  UNL     1      -7.033  12.364  68.941  1.00  0.00     0.000 HD 
HETATM   24  N   UNL     1      -8.028  12.539  68.803  1.00  0.00    -0.323 N  
HETATM   25  O   UNL     1      -8.340  10.321  68.755  1.00  0.00    -0.110 OA 
HETATM   26  H2  UNL     1      -8.401  13.488  68.751  1.00  0.00     0.000 HD 
ENDBRANCH   9  22
ENDBRANCH   8   9
ENDBRANCH   7   8
ENDBRANCH   6   7
ENDBRANCH   4   6
ENDBRANCH   2   4
TORSDOF 6
ENDMDL
MODEL       26
REMARK 921   NORMALIZED FREE ENERGY PREDICTED BY IDOCK:   -5.59 KCAL/MOL
REMARK 922        TOTAL FREE ENERGY PREDICTED BY IDOCK:   -8.56 KCAL/MOL
REMARK 923 INTER-LIGAND FREE ENERGY PREDICTED BY IDOCK:   -8.23 KCAL/MOL
REMARK 924 INTRA-LIGAND FREE ENERGY PREDICTED BY IDOCK:   -0.34 KCAL/MOL
REMARK 927      BINDING AFFINITY PREDICTED BY RF-SCORE:    0.00 PKD
ROOT
HETATM    1  C   UNL     1      -8.541  16.202  66.122  1.00  0.00    -0.331 C  
HETATM    2  C   UNL     1     -10.033  16.377  66.414  1.00  0.00    -0.303 C  
HETATM    3  C   UNL     1     -10.360  17.861  66.581  1.00  0.00    -0.362 C  
ENDROOT
BRANCH   2   4
HETATM    4  N   UNL     1     -10.764  15.762  65.303  1.00  0.00    -0.410 NA 
HETATM    5  H   UNL     1     -10.156  15.649  64.492  1.00  0.00     0.000 HD 
BRANCH   4   6
HETATM    6  C   UNL     1     -11.406  14.496  65.643  1.00  0.00    -0.336 C  
BRANCH   6   7
HETATM    7  C   UNL     1     -11.962  14.543  67.066  1.00  0.00    -0.371 C  
BRANCH   7   8
HETATM    8  C   UNL     1     -12.049  13.163  67.749  1.00  0.00    -0.262 C  
BRANCH   8   9
HETATM    9  C   UNL     1     -11.359  13.077  69.135  1.00  0.00    -0.328 C  
HETATM   10  C   UNL     1     -11.314  11.621  69.625  1.00  0.00    -0.308 A  
HETATM   11  C   UNL     1     -12.223  13.734  70.219  1.00  0.00    -0.429 A  
HETATM   12  C   UNL     1     -12.603  15.065  70.326  1.00  0.00    -0.363 A  
HETATM   13  C   UNL     1     -10.666  10.539  69.042  1.00  0.00    -0.259 A  
HETATM   14  C   UNL     1     -13.479  15.416  71.352  1.00  0.00    -0.607 A  
HETATM   15  C   UNL     1     -13.963  14.445  72.244  1.00  0.00    -0.610 A  
HETATM   16  C   UNL     1     -13.565  13.107  72.139  1.00  0.00    -0.637 A  
HETATM   17  C   UNL     1     -10.844   9.282  69.618  1.00  0.00    -0.228 A  
HETATM   18  C   UNL     1     -11.657   9.122  70.753  1.00  0.00    -0.329 A  
HETATM   19  C   UNL     1     -12.303  10.218  71.337  1.00  0.00    -0.502 A  
HETATM   20  C   UNL     1     -12.126  11.470  70.770  1.00  0.00    -0.410 A  
HETATM   21  C   UNL     1     -12.686  12.757  71.130  1.00  0.00    -0.355 A  
BRANCH   9  22
HETATM   22  C   UNL     1      -9.946  13.696  69.078  1.00  0.00     0.103 C  
HETATM   23  H1  UNL     1      -8.765  15.155  69.878  1.00  0.00     0.000 HD 
HETATM   24  N   UNL     1      -9.698  14.746  69.916  1.00  0.00    -0.393 N  
HETATM   25  O   UNL     1      -9.055  13.304  68.328  1.00  0.00    -0.196 OA 
HETATM   26  H2  UNL     1     -10.413  15.105  70.551  1.00  0.00     0.000 HD 
ENDBRANCH   9  22
ENDBRANCH   8   9
ENDBRANCH   7   8
ENDBRANCH   6   7
ENDBRANCH   4   6
ENDBRANCH   2   4
TORSDOF 6
ENDMDL
MODEL       27
REMARK 921   NORMALIZED FREE ENERGY PREDICTED BY IDOCK:   -5.59 KCAL/MOL
REMARK 922        TOTAL FREE ENERGY PREDICTED BY IDOCK:   -8.55 KCAL/MOL
REMARK 923 INTER-LIGAND FREE ENERGY PREDICTED BY IDOCK:   -7.95 KCAL/MOL
REMARK 924 INTRA-LIGAND FREE ENERGY PREDICTED BY IDOCK:   -0.60 KCAL/MOL
REMARK 927      BINDING AFFINITY PREDICTED BY RF-SCORE:    0.00 PKD
ROOT
HETATM    1  C   UNL     1     -14.249   8.255  71.774  1.00  0.00    -0.544 C  
HETATM    2  C   UNL     1     -13.165   9.333  71.832  1.00  0.00    -0.423 C  
HETATM    3  C   UNL     1     -11.796   8.685  72.040  1.00  0.00    -0.443 C  
ENDROOT
BRANCH   2   4
HETATM    4  N   UNL     1     -13.243  10.091  70.581  1.00  0.00    -0.607 NA 
HETATM    5  H   UNL     1     -14.032  10.738  70.602  1.00  0.00     0.000 HD 
BRANCH   4   6
HETATM    6  C   UNL     1     -12.012  10.796  70.236  1.00  0.00    -0.351 C  
BRANCH   6   7
HETATM    7  C   UNL     1     -11.998  11.154  68.750  1.00  0.00    -0.337 C  
BRANCH   7   8
HETATM    8  C   UNL     1     -11.452  12.565  68.452  1.00  0.00    -0.355 C  
BRANCH   8   9
HETATM    9  C   UNL     1     -10.354  12.622  67.358  1.00  0.00    -0.224 C  
HETATM   10  C   UNL     1     -10.975  12.935  65.988  1.00  0.00    -0.301 A  
HETATM   11  C   UNL     1      -9.756  11.232  67.109  1.00  0.00    -0.201 A  
HETATM   12  C   UNL     1      -9.043  10.433  67.993  1.00  0.00    -0.136 A  
HETATM   13  C   UNL     1     -11.666  14.076  65.599  1.00  0.00    -0.356 A  
HETATM   14  C   UNL     1      -8.678   9.155  67.572  1.00  0.00    -0.120 A  
HETATM   15  C   UNL     1      -9.031   8.695  66.292  1.00  0.00    -0.211 A  
HETATM   16  C   UNL     1      -9.738   9.512  65.401  1.00  0.00    -0.314 A  
HETATM   17  C   UNL     1     -12.224  14.098  64.321  1.00  0.00    -0.449 A  
HETATM   18  C   UNL     1     -12.090  12.997  63.460  1.00  0.00    -0.617 A  
HETATM   19  C   UNL     1     -11.388  11.853  63.859  1.00  0.00    -0.509 A  
HETATM   20  C   UNL     1     -10.828  11.827  65.126  1.00  0.00    -0.351 A  
HETATM   21  C   UNL     1     -10.089  10.785  65.811  1.00  0.00    -0.320 A  
BRANCH   9  22
HETATM   22  C   UNL     1      -9.268  13.653  67.734  1.00  0.00    -0.214 C  
HETATM   23  H1  UNL     1      -7.555  14.542  67.070  1.00  0.00     0.000 HD 
HETATM   24  N   UNL     1      -8.272  13.861  66.821  1.00  0.00    -0.384 N  
HETATM   25  O   UNL     1      -9.252  14.279  68.792  1.00  0.00    -0.185 OA 
HETATM   26  H2  UNL     1      -8.247  13.358  65.934  1.00  0.00     0.000 HD 
ENDBRANCH   9  22
ENDBRANCH   8   9
ENDBRANCH   7   8
ENDBRANCH   6   7
ENDBRANCH   4   6
ENDBRANCH   2   4
TORSDOF 6
ENDMDL
MODEL       28
REMARK 921   NORMALIZED FREE ENERGY PREDICTED BY IDOCK:   -5.58 KCAL/MOL
REMARK 922        TOTAL FREE ENERGY PREDICTED BY IDOCK:   -8.54 KCAL/MOL
REMARK 923 INTER-LIGAND FREE ENERGY PREDICTED BY IDOCK:   -7.54 KCAL/MOL
REMARK 924 INTRA-LIGAND FREE ENERGY PREDICTED BY IDOCK:   -1.00 KCAL/MOL
REMARK 927      BINDING AFFINITY PREDICTED BY RF-SCORE:    0.00 PKD
ROOT
HETATM    1  C   UNL     1      -9.581  18.254  67.891  1.00  0.00    -0.297 C  
HETATM    2  C   UNL     1     -10.526  18.543  66.723  1.00  0.00    -0.394 C  
HETATM    3  C   UNL     1     -10.281  19.955  66.192  1.00  0.00    -0.611 C  
ENDROOT
BRANCH   2   4
HETATM    4  N   UNL     1     -10.286  17.512  65.709  1.00  0.00    -0.602 NA 
HETATM    5  H   UNL     1     -10.165  17.936  64.789  1.00  0.00     0.000 HD 
BRANCH   4   6
HETATM    6  C   UNL     1      -9.166  16.627  66.016  1.00  0.00    -0.228 C  
BRANCH   6   7
HETATM    7  C   UNL     1      -9.595  15.164  65.901  1.00  0.00    -0.373 C  
BRANCH   7   8
HETATM    8  C   UNL     1     -10.595  14.718  66.988  1.00  0.00    -0.290 C  
BRANCH   8   9
HETATM    9  C   UNL     1     -10.803  13.185  67.094  1.00  0.00    -0.271 C  
HETATM   10  C   UNL     1      -9.465  12.477  67.358  1.00  0.00    -0.184 A  
HETATM   11  C   UNL     1     -11.198  12.591  65.736  1.00  0.00    -0.356 A  
HETATM   12  C   UNL     1     -12.338  12.844  64.986  1.00  0.00    -0.541 A  
HETATM   13  C   UNL     1      -8.624  12.613  68.455  1.00  0.00    -0.122 A  
HETATM   14  C   UNL     1     -12.437  12.256  63.726  1.00  0.00    -0.619 A  
HETATM   15  C   UNL     1     -11.406  11.438  63.234  1.00  0.00    -0.094 A  
HETATM   16  C   UNL     1     -10.265  11.177  64.001  1.00  0.00    -0.419 A  
HETATM   17  C   UNL     1      -7.407  11.934  68.433  1.00  0.00    -0.095 A  
HETATM   18  C   UNL     1      -7.047  11.140  67.332  1.00  0.00    -0.102 A  
HETATM   19  C   UNL     1      -7.903  11.004  66.232  1.00  0.00    -0.141 A  
HETATM   20  C   UNL     1      -9.116  11.674  66.250  1.00  0.00    -0.219 A  
HETATM   21  C   UNL     1     -10.170  11.747  65.258  1.00  0.00    -0.307 A  
BRANCH   9  22
HETATM   22  C   UNL     1     -11.842  12.854  68.186  1.00  0.00    -0.336 C  
HETATM   23  H1  UNL     1     -13.062  13.689  69.593  1.00  0.00     0.000 HD 
HETATM   24  N   UNL     1     -12.375  13.909  68.872  1.00  0.00    -0.454 N  
HETATM   25  O   UNL     1     -12.202  11.712  68.468  1.00  0.00    -0.485 OA 
HETATM   26  H2  UNL     1     -12.100  14.871  68.671  1.00  0.00     0.000 HD 
ENDBRANCH   9  22
ENDBRANCH   8   9
ENDBRANCH   7   8
ENDBRANCH   6   7
ENDBRANCH   4   6
ENDBRANCH   2   4
TORSDOF 6
ENDMDL
MODEL       29
REMARK 921   NORMALIZED FREE ENERGY PREDICTED BY IDOCK:   -5.57 KCAL/MOL
REMARK 922        TOTAL FREE ENERGY PREDICTED BY IDOCK:   -8.53 KCAL/MOL
REMARK 923 INTER-LIGAND FREE ENERGY PREDICTED BY IDOCK:   -7.88 KCAL/MOL
REMARK 924 INTRA-LIGAND FREE ENERGY PREDICTED BY IDOCK:   -0.65 KCAL/MOL
REMARK 927      BINDING AFFINITY PREDICTED BY RF-SCORE:    0.00 PKD
ROOT
HETATM    1  C   UNL     1     -12.224  12.127  63.659  1.00  0.00    -0.663 C  
HETATM    2  C   UNL     1     -11.602  13.226  64.523  1.00  0.00    -0.369 C  
HETATM    3  C   UNL     1     -12.683  13.893  65.373  1.00  0.00    -0.525 C  
ENDROOT
BRANCH   2   4
HETATM    4  N   UNL     1     -10.557  12.597  65.336  1.00  0.00    -0.276 NA 
HETATM    5  H   UNL     1     -10.693  12.812  66.323  1.00  0.00     0.000 HD 
BRANCH   4   6
HETATM    6  C   UNL     1     -10.439  11.155  65.138  1.00  0.00    -0.277 C  
BRANCH   6   7
HETATM    7  C   UNL     1     -10.517  10.423  66.477  1.00  0.00    -0.262 C  
BRANCH   7   8
HETATM    8  C   UNL     1     -11.456  11.093  67.501  1.00  0.00    -0.296 C  
BRANCH   8   9
HETATM    9  C   UNL     1     -10.846  11.292  68.913  1.00  0.00    -0.253 C  
HETATM   10  C   UNL     1     -11.124  10.067  69.797  1.00  0.00    -0.319 A  
HETATM   11  C   UNL     1     -11.588  12.394  69.681  1.00  0.00    -0.330 A  
HETATM   12  C   UNL     1     -11.683  13.743  69.369  1.00  0.00    -0.379 A  
HETATM   13  C   UNL     1     -10.699   8.758  69.609  1.00  0.00    -0.212 A  
HETATM   14  C   UNL     1     -12.499  14.544  70.166  1.00  0.00    -0.375 A  
HETATM   15  C   UNL     1     -13.206  13.993  71.248  1.00  0.00    -0.373 A  
HETATM   16  C   UNL     1     -13.095  12.633  71.565  1.00  0.00    -0.373 A  
HETATM   17  C   UNL     1     -11.156   7.787  70.499  1.00  0.00    -0.265 A  
HETATM   18  C   UNL     1     -12.022   8.129  71.551  1.00  0.00    -0.334 A  
HETATM   19  C   UNL     1     -12.442   9.451  71.737  1.00  0.00    -0.471 A  
HETATM   20  C   UNL     1     -11.987  10.420  70.857  1.00  0.00    -0.478 A  
HETATM   21  C   UNL     1     -12.276  11.839  70.784  1.00  0.00    -0.424 A  
BRANCH   9  22
HETATM   22  C   UNL     1      -9.333  11.584  68.814  1.00  0.00    -0.079 C  
HETATM   23  H1  UNL     1      -7.506  11.009  69.518  1.00  0.00     0.000 HD 
HETATM   24  N   UNL     1      -8.505  10.816  69.584  1.00  0.00    -0.366 N  
HETATM   25  O   UNL     1      -8.848  12.457  68.098  1.00  0.00    -0.182 OA 
HETATM   26  H2  UNL     1      -8.869  10.085  70.195  1.00  0.00     0.000 HD 
ENDBRANCH   9  22
ENDBRANCH   8   9
ENDBRANCH   7   8
ENDBRANCH   6   7
ENDBRANCH   4   6
ENDBRANCH   2   4
TORSDOF 6
ENDMDL
MODEL       30
REMARK 921   NORMALIZED FREE ENERGY PREDICTED BY IDOCK:   -5.57 KCAL/MOL
REMARK 922        TOTAL FREE ENERGY PREDICTED BY IDOCK:   -8.53 KCAL/MOL
REMARK 923 INTER-LIGAND FREE ENERGY PREDICTED BY IDOCK:   -8.01 KCAL/MOL
REMARK 924 INTRA-LIGAND FREE ENERGY PREDICTED BY IDOCK:   -0.52 KCAL/MOL
REMARK 927      BINDING AFFINITY PREDICTED BY RF-SCORE:    0.00 PKD
ROOT
HETATM    1  C   UNL     1      -9.937  11.415  63.599  1.00  0.00    -0.402 C  
HETATM    2  C   UNL     1     -11.048  12.446  63.394  1.00  0.00    -0.402 C  
HETATM    3  C   UNL     1     -12.408  11.748  63.361  1.00  0.00    -0.476 C  
ENDROOT
BRANCH   2   4
HETATM    4  N   UNL     1     -10.942  13.418  64.486  1.00  0.00    -0.372 NA 
HETATM    5  H   UNL     1     -10.320  14.183  64.226  1.00  0.00     0.000 HD 
BRANCH   4   6
HETATM    6  C   UNL     1     -12.227  13.936  64.945  1.00  0.00    -0.422 C  
BRANCH   6   7
HETATM    7  C   UNL     1     -12.475  13.539  66.401  1.00  0.00    -0.349 C  
BRANCH   7   8
HETATM    8  C   UNL     1     -11.620  12.346  66.877  1.00  0.00    -0.437 C  
BRANCH   8   9
HETATM    9  C   UNL     1     -10.775  12.615  68.149  1.00  0.00    -0.242 C  
HETATM   10  C   UNL     1     -11.554  12.207  69.409  1.00  0.00    -0.381 A  
HETATM   11  C   UNL     1     -10.596  14.122  68.379  1.00  0.00    -0.263 A  
HETATM   12  C   UNL     1      -9.944  15.043  67.570  1.00  0.00    -0.226 A  
HETATM   13  C   UNL     1     -12.006  10.943  69.766  1.00  0.00    -0.423 A  
HETATM   14  C   UNL     1      -9.992  16.386  67.937  1.00  0.00    -0.243 A  
HETATM   15  C   UNL     1     -10.688  16.789  69.089  1.00  0.00    -0.329 A  
HETATM   16  C   UNL     1     -11.332  15.853  69.907  1.00  0.00    -0.348 A  
HETATM   17  C   UNL     1     -12.778  10.827  70.921  1.00  0.00    -0.478 A  
HETATM   18  C   UNL     1     -13.088  11.959  71.693  1.00  0.00    -0.433 A  
HETATM   19  C   UNL     1     -12.625  13.228  71.329  1.00  0.00    -0.398 A  
HETATM   20  C   UNL     1     -11.854  13.348  70.184  1.00  0.00    -0.342 A  
HETATM   21  C   UNL     1     -11.275  14.518  69.553  1.00  0.00    -0.300 A  
BRANCH   9  22
HETATM   22  C   UNL     1      -9.418  11.885  68.063  1.00  0.00    -0.197 C  
HETATM   23  H1  UNL     1      -8.068  10.806  69.150  1.00  0.00     0.000 HD 
HETATM   24  N   UNL     1      -8.965  11.289  69.207  1.00  0.00    -0.380 N  
HETATM   25  O   UNL     1      -8.737  11.819  67.042  1.00  0.00    -0.167 OA 
HETATM   26  H2  UNL     1      -9.498  11.325  70.076  1.00  0.00     0.000 HD 
ENDBRANCH   9  22
ENDBRANCH   8   9
ENDBRANCH   7   8
ENDBRANCH   6   7
ENDBRANCH   4   6
ENDBRANCH   2   4
TORSDOF 6
ENDMDL
MODEL       31
REMARK 921   NORMALIZED FREE ENERGY PREDICTED BY IDOCK:   -5.57 KCAL/MOL
REMARK 922        TOTAL FREE ENERGY PREDICTED BY IDOCK:   -8.52 KCAL/MOL
REMARK 923 INTER-LIGAND FREE ENERGY PREDICTED BY IDOCK:   -7.48 KCAL/MOL
REMARK 924 INTRA-LIGAND FREE ENERGY PREDICTED BY IDOCK:   -1.05 KCAL/MOL
REMARK 927      BINDING AFFINITY PREDICTED BY RF-SCORE:    0.00 PKD
ROOT
HETATM    1  C   UNL     1     -11.763  12.138  65.743  1.00  0.00    -0.391 C  
HETATM    2  C   UNL     1     -11.837  12.857  64.395  1.00  0.00    -0.383 C  
HETATM    3  C   UNL     1     -12.593  11.993  63.385  1.00  0.00    -0.592 C  
ENDROOT
BRANCH   2   4
HETATM    4  N   UNL     1     -12.490  14.148  64.630  1.00  0.00    -0.638 NA 
HETATM    5  H   UNL     1     -12.762  14.239  65.609  1.00  0.00     0.000 HD 
BRANCH   4   6
HETATM    6  C   UNL     1     -11.698  15.299  64.209  1.00  0.00    -0.215 C  
BRANCH   6   7
HETATM    7  C   UNL     1     -10.786  15.766  65.344  1.00  0.00    -0.376 C  
BRANCH   7   8
HETATM    8  C   UNL     1     -11.398  15.587  66.749  1.00  0.00    -0.054 C  
BRANCH   8   9
HETATM    9  C   UNL     1     -10.540  16.152  67.911  1.00  0.00    -0.309 C  
HETATM   10  C   UNL     1     -10.094  17.590  67.601  1.00  0.00    -0.328 A  
HETATM   11  C   UNL     1      -9.189  15.429  67.997  1.00  0.00    -0.184 A  
HETATM   12  C   UNL     1      -8.948  14.090  68.272  1.00  0.00    -0.190 A  
HETATM   13  C   UNL     1     -10.889  18.713  67.412  1.00  0.00    -0.381 A  
HETATM   14  C   UNL     1      -7.633  13.633  68.201  1.00  0.00    -0.137 A  
HETATM   15  C   UNL     1      -6.589  14.507  67.854  1.00  0.00    -0.178 A  
HETATM   16  C   UNL     1      -6.838  15.859  67.591  1.00  0.00    -0.191 A  
HETATM   17  C   UNL     1     -10.264  19.904  67.046  1.00  0.00    -0.588 A  
HETATM   18  C   UNL     1      -8.871  19.958  66.873  1.00  0.00    -0.419 A  
HETATM   19  C   UNL     1      -8.076  18.823  67.071  1.00  0.00    -0.266 A  
HETATM   20  C   UNL     1      -8.693  17.638  67.438  1.00  0.00    -0.235 A  
HETATM   21  C   UNL     1      -8.140  16.319  67.674  1.00  0.00    -0.161 A  
BRANCH   9  22
HETATM   22  C   UNL     1     -11.314  16.077  69.244  1.00  0.00    -0.356 C  
HETATM   23  H1  UNL     1     -13.006  15.337  70.115  1.00  0.00     0.000 HD 
HETATM   24  N   UNL     1     -12.494  15.386  69.234  1.00  0.00    -0.603 N  
HETATM   25  O   UNL     1     -10.934  16.599  70.290  1.00  0.00    -0.300 OA 
HETATM   26  H2  UNL     1     -12.846  14.942  68.385  1.00  0.00     0.000 HD 
ENDBRANCH   9  22
ENDBRANCH   8   9
ENDBRANCH   7   8
ENDBRANCH   6   7
ENDBRANCH   4   6
ENDBRANCH   2   4
TORSDOF 6
ENDMDL
MODEL       32
REMARK 921   NORMALIZED FREE ENERGY PREDICTED BY IDOCK:   -5.55 KCAL/MOL
REMARK 922        TOTAL FREE ENERGY PREDICTED BY IDOCK:   -8.50 KCAL/MOL
REMARK 923 INTER-LIGAND FREE ENERGY PREDICTED BY IDOCK:   -8.07 KCAL/MOL
REMARK 924 INTRA-LIGAND FREE ENERGY PREDICTED BY IDOCK:   -0.43 KCAL/MOL
REMARK 927      BINDING AFFINITY PREDICTED BY RF-SCORE:    0.00 PKD
ROOT
HETATM    1  C   UNL     1      -6.459  15.767  68.911  1.00  0.00    -0.116 C  
HETATM    2  C   UNL     1      -7.197  15.055  67.776  1.00  0.00    -0.168 C  
HETATM    3  C   UNL     1      -6.754  13.593  67.704  1.00  0.00    -0.185 C  
ENDROOT
BRANCH   2   4
HETATM    4  N   UNL     1      -8.632  15.194  68.039  1.00  0.00    -0.153 NA 
HETATM    5  H   UNL     1      -8.817  15.163  69.042  1.00  0.00     0.000 HD 
BRANCH   4   6
HETATM    6  C   UNL     1      -9.231  16.385  67.445  1.00  0.00    -0.208 C  
BRANCH   6   7
HETATM    7  C   UNL     1     -10.357  15.996  66.486  1.00  0.00    -0.303 C  
BRANCH   7   8
HETATM    8  C   UNL     1     -10.021  14.788  65.587  1.00  0.00    -0.390 C  
BRANCH   8   9
HETATM    9  C   UNL     1     -11.099  13.673  65.564  1.00  0.00    -0.301 C  
HETATM   10  C   UNL     1     -11.364  13.151  66.985  1.00  0.00    -0.349 A  
HETATM   11  C   UNL     1     -10.567  12.411  64.873  1.00  0.00    -0.326 A  
HETATM   12  C   UNL     1     -10.168  12.259  63.552  1.00  0.00    -0.410 A  
HETATM   13  C   UNL     1     -11.862  13.850  68.077  1.00  0.00    -0.411 A  
HETATM   14  C   UNL     1      -9.623  11.034  63.169  1.00  0.00    -0.384 A  
HETATM   15  C   UNL     1      -9.480   9.992  64.100  1.00  0.00    -0.314 A  
HETATM   16  C   UNL     1      -9.896  10.148  65.428  1.00  0.00    -0.375 A  
HETATM   17  C   UNL     1     -11.931  13.187  69.302  1.00  0.00    -0.344 A  
HETATM   18  C   UNL     1     -11.505  11.854  69.421  1.00  0.00    -0.366 A  
HETATM   19  C   UNL     1     -11.008  11.155  68.314  1.00  0.00    -0.278 A  
HETATM   20  C   UNL     1     -10.942  11.808  67.094  1.00  0.00    -0.326 A  
HETATM   21  C   UNL     1     -10.450  11.357  65.807  1.00  0.00    -0.314 A  
BRANCH   9  22
HETATM   22  C   UNL     1     -12.395  14.184  64.901  1.00  0.00    -0.430 C  
HETATM   23  H1  UNL     1     -13.108  15.373  63.402  1.00  0.00     0.000 HD 
HETATM   24  N   UNL     1     -12.252  15.035  63.841  1.00  0.00    -1.005 N  
HETATM   25  O   UNL     1     -13.526  13.876  65.273  1.00  0.00    -0.612 OA 
HETATM   26  H2  UNL     1     -11.331  15.319  63.504  1.00  0.00     0.000 HD 
ENDBRANCH   9  22
ENDBRANCH   8   9
ENDBRANCH   7   8
ENDBRANCH   6   7
ENDBRANCH   4   6
ENDBRANCH   2   4
TORSDOF 6
ENDMDL
MODEL       33
REMARK 921   NORMALIZED FREE ENERGY PREDICTED BY IDOCK:   -5.52 KCAL/MOL
REMARK 922        TOTAL FREE ENERGY PREDICTED BY IDOCK:   -8.46 KCAL/MOL
REMARK 923 INTER-LIGAND FREE ENERGY PREDICTED BY IDOCK:   -7.29 KCAL/MOL
REMARK 924 INTRA-LIGAND FREE ENERGY PREDICTED BY IDOCK:   -1.17 KCAL/MOL
REMARK 927      BINDING AFFINITY PREDICTED BY RF-SCORE:    0.00 PKD
ROOT
HETATM    1  C   UNL     1     -11.332  10.855  69.126  1.00  0.00    -0.350 C  
HETATM    2  C   UNL     1     -12.321  11.262  70.220  1.00  0.00    -0.307 C  
HETATM    3  C   UNL     1     -12.318  10.219  71.339  1.00  0.00    -0.502 C  
ENDROOT
BRANCH   2   4
HETATM    4  N   UNL     1     -11.922  12.591  70.690  1.00  0.00    -0.513 NA 
HETATM    5  H   UNL     1     -10.910  12.639  70.812  1.00  0.00     0.000 HD 
BRANCH   4   6
HETATM    6  C   UNL     1     -12.388  13.685  69.844  1.00  0.00    -0.249 C  
BRANCH   6   7
HETATM    7  C   UNL     1     -11.327  14.781  69.753  1.00  0.00    -0.319 C  
BRANCH   7   8
HETATM    8  C   UNL     1     -11.530  15.751  68.571  1.00  0.00    -0.381 C  
BRANCH   8   9
HETATM    9  C   UNL     1     -10.551  15.549  67.385  1.00  0.00    -0.292 C  
HETATM   10  C   UNL     1     -11.021  14.392  66.490  1.00  0.00    -0.316 A  
HETATM   11  C   UNL     1      -9.197  15.021  67.877  1.00  0.00    -0.182 A  
HETATM   12  C   UNL     1      -8.285  15.645  68.717  1.00  0.00    -0.183 A  
HETATM   13  C   UNL     1     -12.198  14.296  65.760  1.00  0.00    -0.415 A  
HETATM   14  C   UNL     1      -7.156  14.927  69.107  1.00  0.00    -0.148 A  
HETATM   15  C   UNL     1      -6.958  13.609  68.664  1.00  0.00    -0.103 A  
HETATM   16  C   UNL     1      -7.875  12.990  67.806  1.00  0.00    -0.157 A  
HETATM   17  C   UNL     1     -12.456  13.101  65.088  1.00  0.00    -0.539 A  
HETATM   18  C   UNL     1     -11.548  12.031  65.155  1.00  0.00    -0.330 A  
HETATM   19  C   UNL     1     -10.361  12.138  65.890  1.00  0.00    -0.286 A  
HETATM   20  C   UNL     1     -10.100  13.324  66.556  1.00  0.00    -0.275 A  
HETATM   21  C   UNL     1      -8.989  13.705  67.406  1.00  0.00    -0.218 A  
BRANCH   9  22
HETATM   22  C   UNL     1     -10.396  16.858  66.581  1.00  0.00    -0.299 C  
HETATM   23  H1  UNL     1     -10.585  18.886  66.703  1.00  0.00     0.000 HD 
HETATM   24  N   UNL     1     -10.687  18.022  67.235  1.00  0.00    -0.342 N  
HETATM   25  O   UNL     1     -10.037  16.903  65.406  1.00  0.00    -0.586 OA 
HETATM   26  H2  UNL     1     -10.993  18.027  68.208  1.00  0.00     0.000 HD 
ENDBRANCH   9  22
ENDBRANCH   8   9
ENDBRANCH   7   8
ENDBRANCH   6   7
ENDBRANCH   4   6
ENDBRANCH   2   4
TORSDOF 6
ENDMDL
MODEL       34
REMARK 921   NORMALIZED FREE ENERGY PREDICTED BY IDOCK:   -5.50 KCAL/MOL
REMARK 922        TOTAL FREE ENERGY PREDICTED BY IDOCK:   -8.44 KCAL/MOL
REMARK 923 INTER-LIGAND FREE ENERGY PREDICTED BY IDOCK:   -7.66 KCAL/MOL
REMARK 924 INTRA-LIGAND FREE ENERGY PREDICTED BY IDOCK:   -0.79 KCAL/MOL
REMARK 927      BINDING AFFINITY PREDICTED BY RF-SCORE:    0.00 PKD
ROOT
HETATM    1  C   UNL     1      -5.982  12.501  68.966  1.00  0.00    -0.076 C  
HETATM    2  C   UNL     1      -7.294  11.888  68.473  1.00  0.00    -0.111 C  
HETATM    3  C   UNL     1      -7.724  10.758  69.409  1.00  0.00    -0.107 C  
ENDROOT
BRANCH   2   4
HETATM    4  N   UNL     1      -8.280  12.971  68.410  1.00  0.00    -0.220 NA 
HETATM    5  H   UNL     1      -8.146  13.623  69.182  1.00  0.00     0.000 HD 
BRANCH   4   6
HETATM    6  C   UNL     1      -8.297  13.683  67.136  1.00  0.00    -0.137 C  
BRANCH   6   7
HETATM    7  C   UNL     1      -9.677  14.291  66.881  1.00  0.00    -0.268 C  
BRANCH   7   8
HETATM    8  C   UNL     1     -10.214  14.045  65.457  1.00  0.00    -0.362 C  
BRANCH   8   9
HETATM    9  C   UNL     1     -11.072  12.763  65.295  1.00  0.00    -0.320 C  
HETATM   10  C   UNL     1     -11.323  12.107  66.661  1.00  0.00    -0.405 A  
HETATM   11  C   UNL     1     -10.283  11.664  64.572  1.00  0.00    -0.337 A  
HETATM   12  C   UNL     1      -9.786  11.674  63.275  1.00  0.00    -0.428 A  
HETATM   13  C   UNL     1     -12.002  12.632  67.754  1.00  0.00    -0.303 A  
HETATM   14  C   UNL     1      -9.010  10.592  62.863  1.00  0.00    -0.272 A  
HETATM   15  C   UNL     1      -8.738   9.530  63.741  1.00  0.00    -0.237 A  
HETATM   16  C   UNL     1      -9.254   9.520  65.043  1.00  0.00    -0.297 A  
HETATM   17  C   UNL     1     -12.024  11.886  68.931  1.00  0.00    -0.313 A  
HETATM   18  C   UNL     1     -11.374  10.642  69.004  1.00  0.00    -0.340 A  
HETATM   19  C   UNL     1     -10.696  10.118  67.897  1.00  0.00    -0.317 A  
HETATM   20  C   UNL     1     -10.675  10.855  66.724  1.00  0.00    -0.309 A  
HETATM   21  C   UNL     1     -10.036  10.585  65.451  1.00  0.00    -0.353 A  
BRANCH   9  22
HETATM   22  C   UNL     1     -12.398  13.085  64.572  1.00  0.00    -0.398 C  
HETATM   23  H1  UNL     1     -13.319  14.461  63.379  1.00  0.00     0.000 HD 
HETATM   24  N   UNL     1     -12.444  14.249  63.856  1.00  0.00    -0.969 N  
HETATM   25  O   UNL     1     -13.394  12.365  64.611  1.00  0.00    -0.778 OA 
HETATM   26  H2  UNL     1     -11.640  14.875  63.802  1.00  0.00     0.000 HD 
ENDBRANCH   9  22
ENDBRANCH   8   9
ENDBRANCH   7   8
ENDBRANCH   6   7
ENDBRANCH   4   6
ENDBRANCH   2   4
TORSDOF 6
ENDMDL
MODEL       35
REMARK 921   NORMALIZED FREE ENERGY PREDICTED BY IDOCK:   -5.49 KCAL/MOL
REMARK 922        TOTAL FREE ENERGY PREDICTED BY IDOCK:   -8.42 KCAL/MOL
REMARK 923 INTER-LIGAND FREE ENERGY PREDICTED BY IDOCK:   -8.31 KCAL/MOL
REMARK 924 INTRA-LIGAND FREE ENERGY PREDICTED BY IDOCK:   -0.10 KCAL/MOL
REMARK 927      BINDING AFFINITY PREDICTED BY RF-SCORE:    0.00 PKD
ROOT
HETATM    1  C   UNL     1      -9.813  10.476  63.479  1.00  0.00    -0.339 C  
HETATM    2  C   UNL     1     -10.324  11.914  63.374  1.00  0.00    -0.444 C  
HETATM    3  C   UNL     1     -11.848  11.935  63.489  1.00  0.00    -0.560 C  
ENDROOT
BRANCH   2   4
HETATM    4  N   UNL     1      -9.670  12.684  64.436  1.00  0.00    -0.552 NA 
HETATM    5  H   UNL     1     -10.167  13.559  64.603  1.00  0.00     0.000 HD 
BRANCH   4   6
HETATM    6  C   UNL     1      -9.498  11.945  65.683  1.00  0.00    -0.166 C  
BRANCH   6   7
HETATM    7  C   UNL     1      -9.479  12.904  66.874  1.00  0.00    -0.237 C  
BRANCH   7   8
HETATM    8  C   UNL     1      -9.447  14.394  66.476  1.00  0.00    -0.309 C  
BRANCH   8   9
HETATM    9  C   UNL     1     -10.755  15.175  66.766  1.00  0.00    -0.311 C  
HETATM   10  C   UNL     1     -10.461  16.674  66.933  1.00  0.00    -0.271 A  
HETATM   11  C   UNL     1     -11.309  14.820  68.152  1.00  0.00    -0.324 A  
HETATM   12  C   UNL     1     -11.768  13.590  68.604  1.00  0.00    -0.389 A  
HETATM   13  C   UNL     1      -9.938  17.556  65.995  1.00  0.00    -0.231 A  
HETATM   14  C   UNL     1     -12.138  13.481  69.943  1.00  0.00    -0.408 A  
HETATM   15  C   UNL     1     -12.040  14.586  70.805  1.00  0.00    -0.398 A  
HETATM   16  C   UNL     1     -11.589  15.827  70.339  1.00  0.00    -0.376 A  
HETATM   17  C   UNL     1      -9.668  18.861  66.404  1.00  0.00    -0.395 A  
HETATM   18  C   UNL     1      -9.917  19.265  67.726  1.00  0.00    -0.460 A  
HETATM   19  C   UNL     1     -10.448  18.371  68.664  1.00  0.00    -0.157 A  
HETATM   20  C   UNL     1     -10.722  17.074  68.261  1.00  0.00    -0.372 A  
HETATM   21  C   UNL     1     -11.235  15.942  69.007  1.00  0.00    -0.327 A  
BRANCH   9  22
HETATM   22  C   UNL     1     -11.795  14.925  65.653  1.00  0.00    -0.131 C  
HETATM   23  H1  UNL     1     -12.184  15.243  63.675  1.00  0.00     0.000 HD 
HETATM   24  N   UNL     1     -11.497  15.408  64.410  1.00  0.00    -0.697 N  
HETATM   25  O   UNL     1     -12.857  14.331  65.827  1.00  0.00    -0.460 OA 
HETATM   26  H2  UNL     1     -10.628  15.911  64.226  1.00  0.00     0.000 HD 
ENDBRANCH   9  22
ENDBRANCH   8   9
ENDBRANCH   7   8
ENDBRANCH   6   7
ENDBRANCH   4   6
ENDBRANCH   2   4
TORSDOF 6
ENDMDL
MODEL       36
REMARK 921   NORMALIZED FREE ENERGY PREDICTED BY IDOCK:   -5.39 KCAL/MOL
REMARK 922        TOTAL FREE ENERGY PREDICTED BY IDOCK:   -8.29 KCAL/MOL
REMARK 923 INTER-LIGAND FREE ENERGY PREDICTED BY IDOCK:   -7.30 KCAL/MOL
REMARK 924 INTRA-LIGAND FREE ENERGY PREDICTED BY IDOCK:   -0.98 KCAL/MOL
REMARK 927      BINDING AFFINITY PREDICTED BY RF-SCORE:    0.00 PKD
ROOT
HETATM    1  C   UNL     1     -11.955  16.106  72.436  1.00  0.00    -0.649 C  
HETATM    2  C   UNL     1     -12.368  14.698  72.005  1.00  0.00    -0.321 C  
HETATM    3  C   UNL     1     -13.881  14.642  71.790  1.00  0.00    -0.530 C  
ENDROOT
BRANCH   2   4
HETATM    4  N   UNL     1     -11.616  14.381  70.787  1.00  0.00    -0.489 NA 
HETATM    5  H   UNL     1     -11.082  13.521  70.909  1.00  0.00     0.000 HD 
BRANCH   4   6
HETATM    6  C   UNL     1     -12.440  14.307  69.584  1.00  0.00    -0.171 C  
BRANCH   6   7
HETATM    7  C   UNL     1     -11.731  13.494  68.501  1.00  0.00    -0.392 C  
BRANCH   7   8
HETATM    8  C   UNL     1     -10.224  13.289  68.758  1.00  0.00    -0.119 C  
BRANCH   8   9
HETATM    9  C   UNL     1      -9.308  13.585  67.543  1.00  0.00    -0.220 C  
HETATM   10  C   UNL     1      -9.595  14.986  66.980  1.00  0.00    -0.233 A  
HETATM   11  C   UNL     1      -9.679  12.697  66.348  1.00  0.00    -0.259 A  
HETATM   12  C   UNL     1      -9.611  11.314  66.251  1.00  0.00    -0.235 A  
HETATM   13  C   UNL     1      -9.443  16.212  67.614  1.00  0.00    -0.220 A  
HETATM   14  C   UNL     1     -10.097  10.714  65.091  1.00  0.00    -0.374 A  
HETATM   15  C   UNL     1     -10.644  11.492  64.057  1.00  0.00    -0.437 A  
HETATM   16  C   UNL     1     -10.697  12.888  64.156  1.00  0.00    -0.443 A  
HETATM   17  C   UNL     1      -9.859  17.356  66.933  1.00  0.00    -0.289 A  
HETATM   18  C   UNL     1     -10.416  17.263  65.647  1.00  0.00    -0.191 A  
HETATM   19  C   UNL     1     -10.562  16.023  65.014  1.00  0.00    -0.342 A  
HETATM   20  C   UNL     1     -10.147  14.884  65.685  1.00  0.00    -0.387 A  
HETATM   21  C   UNL     1     -10.204  13.487  65.300  1.00  0.00    -0.323 A  
BRANCH   9  22
HETATM   22  C   UNL     1      -7.823  13.427  67.932  1.00  0.00    -0.152 C  
HETATM   23  H1  UNL     1      -6.567  12.543  69.277  1.00  0.00     0.000 HD 
HETATM   24  N   UNL     1      -7.549  12.647  69.020  1.00  0.00    -0.323 N  
HETATM   25  O   UNL     1      -6.894  13.961  67.328  1.00  0.00    -0.205 OA 
HETATM   26  H2  UNL     1      -8.291  12.190  69.551  1.00  0.00     0.000 HD 
ENDBRANCH   9  22
ENDBRANCH   8   9
ENDBRANCH   7   8
ENDBRANCH   6   7
ENDBRANCH   4   6
ENDBRANCH   2   4
TORSDOF 6
ENDMDL
MODEL       37
REMARK 921   NORMALIZED FREE ENERGY PREDICTED BY IDOCK:   -5.35 KCAL/MOL
REMARK 922        TOTAL FREE ENERGY PREDICTED BY IDOCK:   -8.24 KCAL/MOL
REMARK 923 INTER-LIGAND FREE ENERGY PREDICTED BY IDOCK:   -7.26 KCAL/MOL
REMARK 924 INTRA-LIGAND FREE ENERGY PREDICTED BY IDOCK:   -0.98 KCAL/MOL
REMARK 927      BINDING AFFINITY PREDICTED BY RF-SCORE:    0.00 PKD
ROOT
HETATM    1  C   UNL     1     -10.795   8.941  71.914  1.00  0.00    -0.433 C  
HETATM    2  C   UNL     1     -11.790   9.565  70.934  1.00  0.00    -0.309 C  
HETATM    3  C   UNL     1     -13.005  10.097  71.695  1.00  0.00    -0.561 C  
ENDROOT
BRANCH   2   4
HETATM    4  N   UNL     1     -11.077  10.620  70.208  1.00  0.00    -0.425 NA 
HETATM    5  H   UNL     1     -10.678  10.253  69.344  1.00  0.00     0.000 HD 
BRANCH   4   6
HETATM    6  C   UNL     1     -11.886  11.804  69.936  1.00  0.00    -0.348 C  
BRANCH   6   7
HETATM    7  C   UNL     1     -11.862  12.138  68.445  1.00  0.00    -0.360 C  
BRANCH   7   8
HETATM    8  C   UNL     1     -11.451  13.593  68.137  1.00  0.00    -0.348 C  
BRANCH   8   9
HETATM    9  C   UNL     1     -10.423  13.752  66.987  1.00  0.00    -0.274 C  
HETATM   10  C   UNL     1     -11.008  13.228  65.666  1.00  0.00    -0.292 A  
HETATM   11  C   UNL     1      -9.230  12.808  67.185  1.00  0.00    -0.219 A  
HETATM   12  C   UNL     1      -8.299  12.804  68.215  1.00  0.00    -0.161 A  
HETATM   13  C   UNL     1     -12.116  13.697  64.973  1.00  0.00    -0.418 A  
HETATM   14  C   UNL     1      -7.351  11.782  68.237  1.00  0.00    -0.095 A  
HETATM   15  C   UNL     1      -7.348  10.787  67.245  1.00  0.00    -0.097 A  
HETATM   16  C   UNL     1      -8.281  10.805  66.202  1.00  0.00    -0.163 A  
HETATM   17  C   UNL     1     -12.519  13.000  63.834  1.00  0.00    -0.377 A  
HETATM   18  C   UNL     1     -11.821  11.857  63.409  1.00  0.00    -0.512 A  
HETATM   19  C   UNL     1     -10.702  11.394  64.111  1.00  0.00    -0.434 A  
HETATM   20  C   UNL     1     -10.296  12.086  65.241  1.00  0.00    -0.311 A  
HETATM   21  C   UNL     1      -9.214  11.825  66.170  1.00  0.00    -0.218 A  
BRANCH   9  22
HETATM   22  C   UNL     1      -9.973  15.223  66.861  1.00  0.00    -0.239 C  
HETATM   23  H1  UNL     1      -8.786  16.485  65.782  1.00  0.00     0.000 HD 
HETATM   24  N   UNL     1      -9.083  15.513  65.865  1.00  0.00    -0.398 N  
HETATM   25  O   UNL     1     -10.364  16.126  67.598  1.00  0.00    -0.273 OA 
HETATM   26  H2  UNL     1      -8.731  14.791  65.235  1.00  0.00     0.000 HD 
ENDBRANCH   9  22
ENDBRANCH   8   9
ENDBRANCH   7   8
ENDBRANCH   6   7
ENDBRANCH   4   6
ENDBRANCH   2   4
TORSDOF 6
ENDMDL
MODEL       38
REMARK 921   NORMALIZED FREE ENERGY PREDICTED BY IDOCK:   -5.35 KCAL/MOL
REMARK 922        TOTAL FREE ENERGY PREDICTED BY IDOCK:   -8.24 KCAL/MOL
REMARK 923 INTER-LIGAND FREE ENERGY PREDICTED BY IDOCK:   -8.24 KCAL/MOL
REMARK 924 INTRA-LIGAND FREE ENERGY PREDICTED BY IDOCK:    0.00 KCAL/MOL
REMARK 927      BINDING AFFINITY PREDICTED BY RF-SCORE:    0.00 PKD
ROOT
HETATM    1  C   UNL     1     -13.895  13.145  72.273  1.00  0.00    -0.586 C  
HETATM    2  C   UNL     1     -14.070  14.639  71.996  1.00  0.00    -0.511 C  
HETATM    3  C   UNL     1     -13.185  15.451  72.943  1.00  0.00    -0.622 C  
ENDROOT
BRANCH   2   4
HETATM    4  N   UNL     1     -13.734  14.859  70.587  1.00  0.00    -0.600 NA 
HETATM    5  H   UNL     1     -14.447  15.430  70.133  1.00  0.00     0.000 HD 
BRANCH   4   6
HETATM    6  C   UNL     1     -12.408  15.432  70.375  1.00  0.00    -0.402 C  
BRANCH   6   7
HETATM    7  C   UNL     1     -11.468  14.394  69.762  1.00  0.00    -0.328 C  
BRANCH   7   8
HETATM    8  C   UNL     1     -11.892  13.920  68.357  1.00  0.00    -0.409 C  
BRANCH   8   9
HETATM    9  C   UNL     1     -10.730  13.423  67.458  1.00  0.00    -0.263 C  
HETATM   10  C   UNL     1     -11.184  13.335  65.993  1.00  0.00    -0.316 A  
HETATM   11  C   UNL     1     -10.392  11.958  67.759  1.00  0.00    -0.214 A  
HETATM   12  C   UNL     1      -9.908  11.413  68.941  1.00  0.00    -0.127 A  
HETATM   13  C   UNL     1     -11.616  14.363  65.164  1.00  0.00    -0.361 A  
HETATM   14  C   UNL     1      -9.765  10.028  69.014  1.00  0.00    -0.204 A  
HETATM   15  C   UNL     1     -10.109   9.215  67.921  1.00  0.00    -0.246 A  
HETATM   16  C   UNL     1     -10.584   9.772  66.728  1.00  0.00    -0.208 A  
HETATM   17  C   UNL     1     -12.070  14.028  63.889  1.00  0.00    -0.350 A  
HETATM   18  C   UNL     1     -12.089  12.690  63.463  1.00  0.00    -0.648 A  
HETATM   19  C   UNL     1     -11.647  11.660  64.302  1.00  0.00    -0.306 A  
HETATM   20  C   UNL     1     -11.192  11.988  65.569  1.00  0.00    -0.372 A  
HETATM   21  C   UNL     1     -10.714  11.146  66.648  1.00  0.00    -0.322 A  
BRANCH   9  22
HETATM   22  C   UNL     1      -9.496  14.338  67.612  1.00  0.00    -0.211 C  
HETATM   23  H1  UNL     1      -7.619  14.690  66.892  1.00  0.00     0.000 HD 
HETATM   24  N   UNL     1      -8.434  14.085  66.790  1.00  0.00    -0.438 N  
HETATM   25  O   UNL     1      -9.421  15.259  68.424  1.00  0.00    -0.196 OA 
HETATM   26  H2  UNL     1      -8.456  13.328  66.106  1.00  0.00     0.000 HD 
ENDBRANCH   9  22
ENDBRANCH   8   9
ENDBRANCH   7   8
ENDBRANCH   6   7
ENDBRANCH   4   6
ENDBRANCH   2   4
TORSDOF 6
ENDMDL
MODEL       39
REMARK 921   NORMALIZED FREE ENERGY PREDICTED BY IDOCK:   -5.35 KCAL/MOL
REMARK 922        TOTAL FREE ENERGY PREDICTED BY IDOCK:   -8.24 KCAL/MOL
REMARK 923 INTER-LIGAND FREE ENERGY PREDICTED BY IDOCK:   -7.18 KCAL/MOL
REMARK 924 INTRA-LIGAND FREE ENERGY PREDICTED BY IDOCK:   -1.06 KCAL/MOL
REMARK 927      BINDING AFFINITY PREDICTED BY RF-SCORE:    0.00 PKD
ROOT
HETATM    1  C   UNL     1     -10.054   8.949  71.747  1.00  0.00    -0.407 C  
HETATM    2  C   UNL     1     -11.173   9.377  70.795  1.00  0.00    -0.302 C  
HETATM    3  C   UNL     1     -12.451   9.655  71.586  1.00  0.00    -0.494 C  
ENDROOT
BRANCH   2   4
HETATM    4  N   UNL     1     -10.694  10.556  70.069  1.00  0.00    -0.420 NA 
HETATM    5  H   UNL     1     -10.257  10.282  69.189  1.00  0.00     0.000 HD 
BRANCH   4   6
HETATM    6  C   UNL     1     -11.720  11.569  69.839  1.00  0.00    -0.343 C  
BRANCH   6   7
HETATM    7  C   UNL     1     -11.637  12.099  68.408  1.00  0.00    -0.381 C  
BRANCH   7   8
HETATM    8  C   UNL     1     -11.090  11.074  67.393  1.00  0.00    -0.370 C  
BRANCH   8   9
HETATM    9  C   UNL     1     -10.140  11.664  66.318  1.00  0.00    -0.254 C  
HETATM   10  C   UNL     1      -9.042  12.512  66.977  1.00  0.00    -0.213 A  
HETATM   11  C   UNL     1     -10.862  12.714  65.465  1.00  0.00    -0.310 A  
HETATM   12  C   UNL     1     -11.949  12.534  64.620  1.00  0.00    -0.468 A  
HETATM   13  C   UNL     1      -8.059  12.101  67.869  1.00  0.00    -0.153 A  
HETATM   14  C   UNL     1     -12.503  13.663  64.016  1.00  0.00    -0.285 A  
HETATM   15  C   UNL     1     -11.975  14.940  64.266  1.00  0.00    -0.355 A  
HETATM   16  C   UNL     1     -10.870  15.112  65.109  1.00  0.00    -0.437 A  
HETATM   17  C   UNL     1      -7.221  13.074  68.413  1.00  0.00    -0.110 A  
HETATM   18  C   UNL     1      -7.373  14.427  68.066  1.00  0.00    -0.148 A  
HETATM   19  C   UNL     1      -8.363  14.832  67.163  1.00  0.00    -0.240 A  
HETATM   20  C   UNL     1      -9.196  13.868  66.617  1.00  0.00    -0.253 A  
HETATM   21  C   UNL     1     -10.310  13.993  65.698  1.00  0.00    -0.342 A  
BRANCH   9  22
HETATM   22  C   UNL     1      -9.538  10.538  65.450  1.00  0.00    -0.237 C  
HETATM   23  H1  UNL     1      -8.230  10.166  63.928  1.00  0.00     0.000 HD 
HETATM   24  N   UNL     1      -8.627  10.910  64.502  1.00  0.00    -0.365 N  
HETATM   25  O   UNL     1      -9.835   9.350  65.563  1.00  0.00    -0.290 OA 
HETATM   26  H2  UNL     1      -8.357  11.885  64.373  1.00  0.00     0.000 HD 
ENDBRANCH   9  22
ENDBRANCH   8   9
ENDBRANCH   7   8
ENDBRANCH   6   7
ENDBRANCH   4   6
ENDBRANCH   2   4
TORSDOF 6
ENDMDL
MODEL       40
REMARK 921   NORMALIZED FREE ENERGY PREDICTED BY IDOCK:   -5.33 KCAL/MOL
REMARK 922        TOTAL FREE ENERGY PREDICTED BY IDOCK:   -8.21 KCAL/MOL
REMARK 923 INTER-LIGAND FREE ENERGY PREDICTED BY IDOCK:   -6.93 KCAL/MOL
REMARK 924 INTRA-LIGAND FREE ENERGY PREDICTED BY IDOCK:   -1.29 KCAL/MOL
REMARK 927      BINDING AFFINITY PREDICTED BY RF-SCORE:    0.00 PKD
ROOT
HETATM    1  C   UNL     1     -10.947   5.736  70.840  1.00  0.00    -0.305 C  
HETATM    2  C   UNL     1     -10.301   5.895  69.462  1.00  0.00    -0.248 C  
HETATM    3  C   UNL     1      -9.778   4.543  68.974  1.00  0.00    -0.235 C  
ENDROOT
BRANCH   2   4
HETATM    4  N   UNL     1     -11.318   6.459  68.571  1.00  0.00    -0.550 NA 
HETATM    5  H   UNL     1     -11.725   7.300  68.978  1.00  0.00     0.000 HD 
BRANCH   4   6
HETATM    6  C   UNL     1     -10.838   6.725  67.218  1.00  0.00    -0.373 C  
BRANCH   6   7
HETATM    7  C   UNL     1     -10.628   8.225  67.010  1.00  0.00    -0.328 C  
BRANCH   7   8
HETATM    8  C   UNL     1      -9.258   8.737  67.499  1.00  0.00    -0.154 C  
BRANCH   8   9
HETATM    9  C   UNL     1      -9.287  10.130  68.180  1.00  0.00    -0.140 C  
HETATM   10  C   UNL     1     -10.247  10.122  69.381  1.00  0.00    -0.246 A  
HETATM   11  C   UNL     1      -9.950  11.172  67.270  1.00  0.00    -0.211 A  
HETATM   12  C   UNL     1      -9.523  11.623  66.028  1.00  0.00    -0.246 A  
HETATM   13  C   UNL     1     -10.163   9.364  70.541  1.00  0.00    -0.332 A  
HETATM   14  C   UNL     1     -10.346  12.510  65.336  1.00  0.00    -0.305 A  
HETATM   15  C   UNL     1     -11.572  12.925  65.882  1.00  0.00    -0.423 A  
HETATM   16  C   UNL     1     -11.990  12.476  67.141  1.00  0.00    -0.285 A  
HETATM   17  C   UNL     1     -11.208   9.456  71.460  1.00  0.00    -0.457 A  
HETATM   18  C   UNL     1     -12.310  10.291  71.211  1.00  0.00    -0.506 A  
HETATM   19  C   UNL     1     -12.384  11.056  70.041  1.00  0.00    -0.377 A  
HETATM   20  C   UNL     1     -11.347  10.970  69.127  1.00  0.00    -0.348 A  
HETATM   21  C   UNL     1     -11.170  11.607  67.836  1.00  0.00    -0.334 A  
BRANCH   9  22
HETATM   22  C   UNL     1      -7.865  10.559  68.599  1.00  0.00    -0.116 C  
HETATM   23  H1  UNL     1      -6.804  12.053  69.499  1.00  0.00     0.000 HD 
HETATM   24  N   UNL     1      -7.744  11.770  69.222  1.00  0.00    -0.344 N  
HETATM   25  O   UNL     1      -6.857   9.884  68.398  1.00  0.00    -0.062 OA 
HETATM   26  H2  UNL     1      -8.555  12.362  69.403  1.00  0.00     0.000 HD 
ENDBRANCH   9  22
ENDBRANCH   8   9
ENDBRANCH   7   8
ENDBRANCH   6   7
ENDBRANCH   4   6
ENDBRANCH   2   4
TORSDOF 6
ENDMDL
MODEL       41
REMARK 921   NORMALIZED FREE ENERGY PREDICTED BY IDOCK:   -5.32 KCAL/MOL
REMARK 922        TOTAL FREE ENERGY PREDICTED BY IDOCK:   -8.20 KCAL/MOL
REMARK 923 INTER-LIGAND FREE ENERGY PREDICTED BY IDOCK:   -7.55 KCAL/MOL
REMARK 924 INTRA-LIGAND FREE ENERGY PREDICTED BY IDOCK:   -0.65 KCAL/MOL
REMARK 927      BINDING AFFINITY PREDICTED BY RF-SCORE:    0.00 PKD
ROOT
HETATM    1  C   UNL     1     -11.224   9.606  70.973  1.00  0.00    -0.445 C  
HETATM    2  C   UNL     1     -12.601  10.164  70.609  1.00  0.00    -0.269 C  
HETATM    3  C   UNL     1     -13.132  11.027  71.754  1.00  0.00    -0.554 C  
ENDROOT
BRANCH   2   4
HETATM    4  N   UNL     1     -12.445  10.919  69.363  1.00  0.00    -0.591 NA 
HETATM    5  H   UNL     1     -12.400  11.920  69.553  1.00  0.00     0.000 HD 
BRANCH   4   6
HETATM    6  C   UNL     1     -11.305  10.499  68.554  1.00  0.00    -0.257 C  
BRANCH   6   7
HETATM    7  C   UNL     1     -10.789  11.666  67.711  1.00  0.00    -0.264 C  
BRANCH   7   8
HETATM    8  C   UNL     1     -10.048  12.745  68.527  1.00  0.00    -0.189 C  
BRANCH   8   9
HETATM    9  C   UNL     1     -10.548  14.195  68.298  1.00  0.00    -0.254 C  
HETATM   10  C   UNL     1     -11.322  14.294  66.974  1.00  0.00    -0.354 A  
HETATM   11  C   UNL     1      -9.373  15.145  68.034  1.00  0.00    -0.187 A  
HETATM   12  C   UNL     1      -8.332  15.481  68.888  1.00  0.00    -0.205 A  
HETATM   13  C   UNL     1     -12.498  13.647  66.617  1.00  0.00    -0.291 A  
HETATM   14  C   UNL     1      -7.316  16.297  68.393  1.00  0.00    -0.158 A  
HETATM   15  C   UNL     1      -7.349  16.756  67.065  1.00  0.00    -0.238 A  
HETATM   16  C   UNL     1      -8.410  16.424  66.214  1.00  0.00    -0.362 A  
HETATM   17  C   UNL     1     -12.970  13.820  65.316  1.00  0.00    -0.328 A  
HETATM   18  C   UNL     1     -12.272  14.624  64.400  1.00  0.00    -0.473 A  
HETATM   19  C   UNL     1     -11.090  15.277  64.770  1.00  0.00    -0.407 A  
HETATM   20  C   UNL     1     -10.618  15.111  66.062  1.00  0.00    -0.329 A  
HETATM   21  C   UNL     1      -9.426  15.626  66.706  1.00  0.00    -0.261 A  
BRANCH   9  22
HETATM   22  C   UNL     1     -11.408  14.667  69.490  1.00  0.00    -0.280 C  
HETATM   23  H1  UNL     1     -12.029  14.152  71.365  1.00  0.00     0.000 HD 
HETATM   24  N   UNL     1     -11.461  13.840  70.578  1.00  0.00    -0.502 N  
HETATM   25  O   UNL     1     -12.037  15.723  69.508  1.00  0.00    -0.353 OA 
HETATM   26  H2  UNL     1     -10.957  12.953  70.601  1.00  0.00     0.000 HD 
ENDBRANCH   9  22
ENDBRANCH   8   9
ENDBRANCH   7   8
ENDBRANCH   6   7
ENDBRANCH   4   6
ENDBRANCH   2   4
TORSDOF 6
ENDMDL
MODEL       42
REMARK 921   NORMALIZED FREE ENERGY PREDICTED BY IDOCK:   -5.29 KCAL/MOL
REMARK 922        TOTAL FREE ENERGY PREDICTED BY IDOCK:   -8.15 KCAL/MOL
REMARK 923 INTER-LIGAND FREE ENERGY PREDICTED BY IDOCK:   -7.21 KCAL/MOL
REMARK 924 INTRA-LIGAND FREE ENERGY PREDICTED BY IDOCK:   -0.94 KCAL/MOL
REMARK 927      BINDING AFFINITY PREDICTED BY RF-SCORE:    0.00 PKD
ROOT
HETATM    1  C   UNL     1     -13.664   9.215  71.595  1.00  0.00    -0.433 C  
HETATM    2  C   UNL     1     -12.444  10.085  71.289  1.00  0.00    -0.392 C  
HETATM    3  C   UNL     1     -11.164   9.337  71.662  1.00  0.00    -0.449 C  
ENDROOT
BRANCH   2   4
HETATM    4  N   UNL     1     -12.502  10.424  69.865  1.00  0.00    -0.543 NA 
HETATM    5  H   UNL     1     -13.320  10.999  69.666  1.00  0.00     0.000 HD 
BRANCH   4   6
HETATM    6  C   UNL     1     -11.291  11.063  69.357  1.00  0.00    -0.284 C  
BRANCH   6   7
HETATM    7  C   UNL     1     -11.514  12.564  69.176  1.00  0.00    -0.361 C  
BRANCH   7   8
HETATM    8  C   UNL     1     -12.122  12.946  67.811  1.00  0.00    -0.218 C  
BRANCH   8   9
HETATM    9  C   UNL     1     -11.138  13.629  66.826  1.00  0.00    -0.315 C  
HETATM   10  C   UNL     1      -9.941  12.709  66.536  1.00  0.00    -0.256 A  
HETATM   11  C   UNL     1     -10.445  14.827  67.487  1.00  0.00    -0.245 A  
HETATM   12  C   UNL     1     -11.021  16.000  67.957  1.00  0.00    -0.341 A  
HETATM   13  C   UNL     1      -9.947  11.458  65.935  1.00  0.00    -0.274 A  
HETATM   14  C   UNL     1     -10.200  16.915  68.613  1.00  0.00    -0.301 A  
HETATM   15  C   UNL     1      -8.832  16.649  68.794  1.00  0.00    -0.264 A  
HETATM   16  C   UNL     1      -8.256  15.471  68.305  1.00  0.00    -0.142 A  
HETATM   17  C   UNL     1      -8.740  10.762  65.861  1.00  0.00    -0.189 A  
HETATM   18  C   UNL     1      -7.560  11.316  66.383  1.00  0.00    -0.072 A  
HETATM   19  C   UNL     1      -7.562  12.580  66.984  1.00  0.00    -0.020 A  
HETATM   20  C   UNL     1      -8.758  13.277  67.057  1.00  0.00    -0.192 A  
HETATM   21  C   UNL     1      -9.065  14.567  67.642  1.00  0.00    -0.195 A  
BRANCH   9  22
HETATM   22  C   UNL     1     -11.865  14.034  65.526  1.00  0.00    -0.365 C  
HETATM   23  H1  UNL     1     -11.586  14.880  63.689  1.00  0.00     0.000 HD 
HETATM   24  N   UNL     1     -11.105  14.612  64.548  1.00  0.00    -0.610 N  
HETATM   25  O   UNL     1     -13.068  13.871  65.333  1.00  0.00    -0.752 OA 
HETATM   26  H2  UNL     1     -10.104  14.769  64.672  1.00  0.00     0.000 HD 
ENDBRANCH   9  22
ENDBRANCH   8   9
ENDBRANCH   7   8
ENDBRANCH   6   7
ENDBRANCH   4   6
ENDBRANCH   2   4
TORSDOF 6
ENDMDL
MODEL       43
REMARK 921   NORMALIZED FREE ENERGY PREDICTED BY IDOCK:   -5.29 KCAL/MOL
REMARK 922        TOTAL FREE ENERGY PREDICTED BY IDOCK:   -8.15 KCAL/MOL
REMARK 923 INTER-LIGAND FREE ENERGY PREDICTED BY IDOCK:   -6.74 KCAL/MOL
REMARK 924 INTRA-LIGAND FREE ENERGY PREDICTED BY IDOCK:   -1.41 KCAL/MOL
REMARK 927      BINDING AFFINITY PREDICTED BY RF-SCORE:    0.00 PKD
ROOT
HETATM    1  C   UNL     1      -8.785   9.195  70.717  1.00  0.00    -0.285 C  
HETATM    2  C   UNL     1      -9.896   9.584  69.741  1.00  0.00    -0.215 C  
HETATM    3  C   UNL     1     -10.633   8.331  69.265  1.00  0.00    -0.191 C  
ENDROOT
BRANCH   2   4
HETATM    4  N   UNL     1     -10.778  10.521  70.442  1.00  0.00    -0.436 NA 
HETATM    5  H   UNL     1     -10.241  11.299  70.827  1.00  0.00     0.000 HD 
BRANCH   4   6
HETATM    6  C   UNL     1     -11.884  11.016  69.629  1.00  0.00    -0.342 C  
BRANCH   6   7
HETATM    7  C   UNL     1     -11.501  12.330  68.947  1.00  0.00    -0.355 C  
BRANCH   7   8
HETATM    8  C   UNL     1     -12.160  12.534  67.568  1.00  0.00    -0.124 C  
BRANCH   8   9
HETATM    9  C   UNL     1     -11.172  12.833  66.410  1.00  0.00    -0.339 C  
HETATM   10  C   UNL     1     -10.116  11.721  66.303  1.00  0.00    -0.248 A  
HETATM   11  C   UNL     1     -10.298  14.050  66.737  1.00  0.00    -0.271 A  
HETATM   12  C   UNL     1     -10.696  15.365  66.935  1.00  0.00    -0.314 A  
HETATM   13  C   UNL     1     -10.312  10.376  66.020  1.00  0.00    -0.262 A  
HETATM   14  C   UNL     1      -9.728  16.292  67.320  1.00  0.00    -0.237 A  
HETATM   15  C   UNL     1      -8.393  15.897  67.506  1.00  0.00    -0.180 A  
HETATM   16  C   UNL     1      -7.996  14.572  67.291  1.00  0.00    -0.216 A  
HETATM   17  C   UNL     1      -9.205   9.529  66.068  1.00  0.00    -0.248 A  
HETATM   18  C   UNL     1      -7.934  10.029  66.396  1.00  0.00    -0.116 A  
HETATM   19  C   UNL     1      -7.744  11.387  66.676  1.00  0.00    -0.129 A  
HETATM   20  C   UNL     1      -8.841  12.233  66.626  1.00  0.00    -0.167 A  
HETATM   21  C   UNL     1      -8.951  13.653  66.896  1.00  0.00    -0.229 A  
BRANCH   9  22
HETATM   22  C   UNL     1     -11.934  13.016  65.080  1.00  0.00    -0.402 C  
HETATM   23  H1  UNL     1     -11.752  13.719  63.173  1.00  0.00     0.000 HD 
HETATM   24  N   UNL     1     -11.248  13.598  64.051  1.00  0.00    -0.584 N  
HETATM   25  O   UNL     1     -13.103  12.678  64.906  1.00  0.00    -0.850 OA 
HETATM   26  H2  UNL     1     -10.278  13.897  64.157  1.00  0.00     0.000 HD 
ENDBRANCH   9  22
ENDBRANCH   8   9
ENDBRANCH   7   8
ENDBRANCH   6   7
ENDBRANCH   4   6
ENDBRANCH   2   4
TORSDOF 6
ENDMDL
MODEL       44
REMARK 921   NORMALIZED FREE ENERGY PREDICTED BY IDOCK:   -5.29 KCAL/MOL
REMARK 922        TOTAL FREE ENERGY PREDICTED BY IDOCK:   -8.15 KCAL/MOL
REMARK 923 INTER-LIGAND FREE ENERGY PREDICTED BY IDOCK:   -7.03 KCAL/MOL
REMARK 924 INTRA-LIGAND FREE ENERGY PREDICTED BY IDOCK:   -1.12 KCAL/MOL
REMARK 927      BINDING AFFINITY PREDICTED BY RF-SCORE:    0.00 PKD
ROOT
HETATM    1  C   UNL     1     -10.933   9.780  68.049  1.00  0.00    -0.236 C  
HETATM    2  C   UNL     1     -10.422  10.329  69.382  1.00  0.00    -0.236 C  
HETATM    3  C   UNL     1      -8.923  10.062  69.514  1.00  0.00    -0.220 C  
ENDROOT
BRANCH   2   4
HETATM    4  N   UNL     1     -10.743  11.759  69.412  1.00  0.00    -0.448 NA 
HETATM    5  H   UNL     1      -9.956  12.310  69.070  1.00  0.00     0.000 HD 
BRANCH   4   6
HETATM    6  C   UNL     1     -11.964  12.108  68.692  1.00  0.00    -0.237 C  
BRANCH   6   7
HETATM    7  C   UNL     1     -12.020  13.614  68.433  1.00  0.00    -0.391 C  
BRANCH   7   8
HETATM    8  C   UNL     1     -12.206  13.985  66.947  1.00  0.00    -0.415 C  
BRANCH   8   9
HETATM    9  C   UNL     1     -10.889  14.250  66.172  1.00  0.00    -0.310 C  
HETATM   10  C   UNL     1     -10.252  12.925  65.724  1.00  0.00    -0.298 A  
HETATM   11  C   UNL     1      -9.806  14.807  67.104  1.00  0.00    -0.232 A  
HETATM   12  C   UNL     1      -9.809  16.006  67.805  1.00  0.00    -0.231 A  
HETATM   13  C   UNL     1     -10.773  11.972  64.859  1.00  0.00    -0.346 A  
HETATM   14  C   UNL     1      -8.749  16.258  68.674  1.00  0.00    -0.226 A  
HETATM   15  C   UNL     1      -7.716  15.320  68.836  1.00  0.00    -0.167 A  
HETATM   16  C   UNL     1      -7.713  14.120  68.116  1.00  0.00    -0.140 A  
HETATM   17  C   UNL     1     -10.050  10.794  64.671  1.00  0.00    -0.410 A  
HETATM   18  C   UNL     1      -8.834  10.585  65.342  1.00  0.00    -0.203 A  
HETATM   19  C   UNL     1      -8.313  11.554  66.209  1.00  0.00    -0.076 A  
HETATM   20  C   UNL     1      -9.026  12.727  66.395  1.00  0.00    -0.037 A  
HETATM   21  C   UNL     1      -8.756  13.872  67.242  1.00  0.00    -0.225 A  
BRANCH   9  22
HETATM   22  C   UNL     1     -11.146  15.186  64.971  1.00  0.00    -0.419 C  
HETATM   23  H1  UNL     1     -12.238  15.390  63.259  1.00  0.00     0.000 HD 
HETATM   24  N   UNL     1     -12.068  14.772  64.052  1.00  0.00    -0.869 N  
HETATM   25  O   UNL     1     -10.571  16.260  64.802  1.00  0.00    -0.658 OA 
HETATM   26  H2  UNL     1     -12.564  13.885  64.153  1.00  0.00     0.000 HD 
ENDBRANCH   9  22
ENDBRANCH   8   9
ENDBRANCH   7   8
ENDBRANCH   6   7
ENDBRANCH   4   6
ENDBRANCH   2   4
TORSDOF 6
ENDMDL
MODEL       45
REMARK 921   NORMALIZED FREE ENERGY PREDICTED BY IDOCK:   -5.28 KCAL/MOL
REMARK 922        TOTAL FREE ENERGY PREDICTED BY IDOCK:   -8.13 KCAL/MOL
REMARK 923 INTER-LIGAND FREE ENERGY PREDICTED BY IDOCK:   -6.78 KCAL/MOL
REMARK 924 INTRA-LIGAND FREE ENERGY PREDICTED BY IDOCK:   -1.36 KCAL/MOL
REMARK 927      BINDING AFFINITY PREDICTED BY RF-SCORE:    0.00 PKD
ROOT
HETATM    1  C   UNL     1      -9.586   9.349  69.459  1.00  0.00    -0.188 C  
HETATM    2  C   UNL     1      -9.514  10.357  68.310  1.00  0.00    -0.148 C  
HETATM    3  C   UNL     1     -10.795  10.290  67.478  1.00  0.00    -0.355 C  
ENDROOT
BRANCH   2   4
HETATM    4  N   UNL     1      -9.301  11.678  68.908  1.00  0.00    -0.404 NA 
HETATM    5  H   UNL     1      -9.263  11.609  69.925  1.00  0.00     0.000 HD 
BRANCH   4   6
HETATM    6  C   UNL     1      -8.126  12.377  68.397  1.00  0.00    -0.143 C  
BRANCH   6   7
HETATM    7  C   UNL     1      -8.391  12.912  66.990  1.00  0.00    -0.112 C  
BRANCH   7   8
HETATM    8  C   UNL     1      -8.310  14.448  66.879  1.00  0.00    -0.109 C  
BRANCH   8   9
HETATM    9  C   UNL     1      -9.675  15.162  66.699  1.00  0.00    -0.274 C  
HETATM   10  C   UNL     1     -10.439  15.208  68.031  1.00  0.00    -0.247 A  
HETATM   11  C   UNL     1     -10.623  14.322  65.834  1.00  0.00    -0.306 A  
HETATM   12  C   UNL     1     -10.472  13.952  64.504  1.00  0.00    -0.334 A  
HETATM   13  C   UNL     1     -10.069  15.838  69.212  1.00  0.00    -0.255 A  
HETATM   14  C   UNL     1     -11.424  13.097  63.951  1.00  0.00    -0.451 A  
HETATM   15  C   UNL     1     -12.497  12.623  64.724  1.00  0.00    -0.555 A  
HETATM   16  C   UNL     1     -12.650  13.011  66.061  1.00  0.00    -0.089 A  
HETATM   17  C   UNL     1     -10.883  15.664  70.330  1.00  0.00    -0.366 A  
HETATM   18  C   UNL     1     -12.040  14.871  70.258  1.00  0.00    -0.379 A  
HETATM   19  C   UNL     1     -12.409  14.242  69.062  1.00  0.00    -0.147 A  
HETATM   20  C   UNL     1     -11.605  14.416  67.948  1.00  0.00    -0.374 A  
HETATM   21  C   UNL     1     -11.715  13.870  66.609  1.00  0.00    -0.417 A  
BRANCH   9  22
HETATM   22  C   UNL     1      -9.473  16.578  66.116  1.00  0.00    -0.315 C  
HETATM   23  H1  UNL     1     -10.467  18.206  65.390  1.00  0.00     0.000 HD 
HETATM   24  N   UNL     1     -10.600  17.271  65.775  1.00  0.00    -0.282 N  
HETATM   25  O   UNL     1      -8.373  17.099  65.943  1.00  0.00    -0.527 OA 
HETATM   26  H2  UNL     1     -11.532  16.872  65.899  1.00  0.00     0.000 HD 
ENDBRANCH   9  22
ENDBRANCH   8   9
ENDBRANCH   7   8
ENDBRANCH   6   7
ENDBRANCH   4   6
ENDBRANCH   2   4
TORSDOF 6
ENDMDL
MODEL       46
REMARK 921   NORMALIZED FREE ENERGY PREDICTED BY IDOCK:   -5.28 KCAL/MOL
REMARK 922        TOTAL FREE ENERGY PREDICTED BY IDOCK:   -8.13 KCAL/MOL
REMARK 923 INTER-LIGAND FREE ENERGY PREDICTED BY IDOCK:   -7.99 KCAL/MOL
REMARK 924 INTRA-LIGAND FREE ENERGY PREDICTED BY IDOCK:   -0.14 KCAL/MOL
REMARK 927      BINDING AFFINITY PREDICTED BY RF-SCORE:    0.00 PKD
ROOT
HETATM    1  C   UNL     1     -14.328   8.302  71.799  1.00  0.00    -0.574 C  
HETATM    2  C   UNL     1     -13.183   9.315  71.823  1.00  0.00    -0.403 C  
HETATM    3  C   UNL     1     -11.866   8.605  72.140  1.00  0.00    -0.447 C  
ENDROOT
BRANCH   2   4
HETATM    4  N   UNL     1     -13.163   9.976  70.515  1.00  0.00    -0.601 NA 
HETATM    5  H   UNL     1     -13.894  10.685  70.461  1.00  0.00     0.000 HD 
BRANCH   4   6
HETATM    6  C   UNL     1     -11.868  10.547  70.158  1.00  0.00    -0.320 C  
BRANCH   6   7
HETATM    7  C   UNL     1     -11.903  11.103  68.734  1.00  0.00    -0.388 C  
BRANCH   7   8
HETATM    8  C   UNL     1     -11.016  10.327  67.739  1.00  0.00    -0.360 C  
BRANCH   8   9
HETATM    9  C   UNL     1     -10.081  11.210  66.873  1.00  0.00    -0.250 C  
HETATM   10  C   UNL     1     -10.903  12.180  66.010  1.00  0.00    -0.318 A  
HETATM   11  C   UNL     1      -9.376  10.373  65.799  1.00  0.00    -0.230 A  
HETATM   12  C   UNL     1      -8.474   9.331  65.976  1.00  0.00    -0.144 A  
HETATM   13  C   UNL     1     -11.755  13.193  66.431  1.00  0.00    -0.429 A  
HETATM   14  C   UNL     1      -8.034   8.647  64.844  1.00  0.00    -0.138 A  
HETATM   15  C   UNL     1      -8.498   9.003  63.566  1.00  0.00    -0.173 A  
HETATM   16  C   UNL     1      -9.396  10.062  63.394  1.00  0.00    -0.300 A  
HETATM   17  C   UNL     1     -12.473  13.890  65.460  1.00  0.00    -0.541 A  
HETATM   18  C   UNL     1     -12.335  13.571  64.099  1.00  0.00    -0.387 A  
HETATM   19  C   UNL     1     -11.470  12.552  63.682  1.00  0.00    -0.568 A  
HETATM   20  C   UNL     1     -10.752  11.859  64.643  1.00  0.00    -0.356 A  
HETATM   21  C   UNL     1      -9.825  10.752  64.514  1.00  0.00    -0.369 A  
BRANCH   9  22
HETATM   22  C   UNL     1      -9.071  11.966  67.763  1.00  0.00    -0.180 C  
HETATM   23  H1  UNL     1      -7.947  11.809  69.459  1.00  0.00     0.000 HD 
HETATM   24  N   UNL     1      -8.614  11.310  68.872  1.00  0.00    -0.333 N  
HETATM   25  O   UNL     1      -8.669  13.105  67.532  1.00  0.00    -0.178 OA 
HETATM   26  H2  UNL     1      -8.926  10.366  69.101  1.00  0.00     0.000 HD 
ENDBRANCH   9  22
ENDBRANCH   8   9
ENDBRANCH   7   8
ENDBRANCH   6   7
ENDBRANCH   4   6
ENDBRANCH   2   4
TORSDOF 6
ENDMDL
MODEL       47
REMARK 921   NORMALIZED FREE ENERGY PREDICTED BY IDOCK:   -5.25 KCAL/MOL
REMARK 922        TOTAL FREE ENERGY PREDICTED BY IDOCK:   -8.09 KCAL/MOL
REMARK 923 INTER-LIGAND FREE ENERGY PREDICTED BY IDOCK:   -7.94 KCAL/MOL
REMARK 924 INTRA-LIGAND FREE ENERGY PREDICTED BY IDOCK:   -0.16 KCAL/MOL
REMARK 927      BINDING AFFINITY PREDICTED BY RF-SCORE:    0.00 PKD
ROOT
HETATM    1  C   UNL     1     -10.250  11.041  63.846  1.00  0.00    -0.425 C  
HETATM    2  C   UNL     1     -10.755  12.424  63.429  1.00  0.00    -0.352 C  
HETATM    3  C   UNL     1     -12.281  12.469  63.512  1.00  0.00    -0.652 C  
ENDROOT
BRANCH   2   4
HETATM    4  N   UNL     1     -10.115  13.402  64.313  1.00  0.00    -0.748 NA 
HETATM    5  H   UNL     1     -10.299  14.352  63.990  1.00  0.00     0.000 HD 
BRANCH   4   6
HETATM    6  C   UNL     1     -10.481  13.259  65.719  1.00  0.00    -0.284 C  
BRANCH   6   7
HETATM    7  C   UNL     1      -9.407  13.875  66.617  1.00  0.00    -0.282 C  
BRANCH   7   8
HETATM    8  C   UNL     1      -9.362  15.415  66.568  1.00  0.00    -0.311 C  
BRANCH   8   9
HETATM    9  C   UNL     1      -9.489  16.115  67.946  1.00  0.00    -0.214 C  
HETATM   10  C   UNL     1      -9.717  17.624  67.765  1.00  0.00    -0.280 A  
HETATM   11  C   UNL     1      -8.150  16.099  68.695  1.00  0.00    -0.203 A  
HETATM   12  C   UNL     1      -7.435  15.001  69.153  1.00  0.00    -0.169 A  
HETATM   13  C   UNL     1     -10.785  18.263  67.148  1.00  0.00    -0.334 A  
HETATM   14  C   UNL     1      -6.185  15.226  69.726  1.00  0.00    -0.155 A  
HETATM   15  C   UNL     1      -5.668  16.529  69.828  1.00  0.00    -0.191 A  
HETATM   16  C   UNL     1      -6.401  17.633  69.376  1.00  0.00    -0.243 A  
HETATM   17  C   UNL     1     -10.731  19.650  67.018  1.00  0.00    -0.575 A  
HETATM   18  C   UNL     1      -9.626  20.373  67.497  1.00  0.00    -0.560 A  
HETATM   19  C   UNL     1      -8.556  19.722  68.122  1.00  0.00    -0.333 A  
HETATM   20  C   UNL     1      -8.607  18.344  68.257  1.00  0.00    -0.321 A  
HETATM   21  C   UNL     1      -7.647  17.414  68.820  1.00  0.00    -0.252 A  
BRANCH   9  22
HETATM   22  C   UNL     1     -10.618  15.471  68.780  1.00  0.00    -0.242 C  
HETATM   23  H1  UNL     1     -11.062  14.707  70.619  1.00  0.00     0.000 HD 
HETATM   24  N   UNL     1     -10.317  15.132  70.069  1.00  0.00    -0.468 N  
HETATM   25  O   UNL     1     -11.747  15.247  68.349  1.00  0.00    -0.342 OA 
HETATM   26  H2  UNL     1      -9.390  15.298  70.463  1.00  0.00     0.000 HD 
ENDBRANCH   9  22
ENDBRANCH   8   9
ENDBRANCH   7   8
ENDBRANCH   6   7
ENDBRANCH   4   6
ENDBRANCH   2   4
TORSDOF 6
ENDMDL
MODEL       48
REMARK 921   NORMALIZED FREE ENERGY PREDICTED BY IDOCK:   -5.24 KCAL/MOL
REMARK 922        TOTAL FREE ENERGY PREDICTED BY IDOCK:   -8.08 KCAL/MOL
REMARK 923 INTER-LIGAND FREE ENERGY PREDICTED BY IDOCK:   -6.96 KCAL/MOL
REMARK 924 INTRA-LIGAND FREE ENERGY PREDICTED BY IDOCK:   -1.12 KCAL/MOL
REMARK 927      BINDING AFFINITY PREDICTED BY RF-SCORE:    0.00 PKD
ROOT
HETATM    1  C   UNL     1      -9.577  15.124  66.171  1.00  0.00    -0.344 C  
HETATM    2  C   UNL     1      -8.719  14.566  67.308  1.00  0.00    -0.210 C  
HETATM    3  C   UNL     1      -9.617  14.038  68.427  1.00  0.00    -0.222 C  
ENDROOT
BRANCH   2   4
HETATM    4  N   UNL     1      -7.866  13.522  66.733  1.00  0.00    -0.285 NA 
HETATM    5  H   UNL     1      -6.939  13.892  66.522  1.00  0.00     0.000 HD 
BRANCH   4   6
HETATM    6  C   UNL     1      -7.763  12.321  67.556  1.00  0.00    -0.158 C  
BRANCH   6   7
HETATM    7  C   UNL     1      -7.724  11.071  66.676  1.00  0.00    -0.153 C  
BRANCH   7   8
HETATM    8  C   UNL     1      -8.218   9.793  67.383  1.00  0.00    -0.114 C  
BRANCH   8   9
HETATM    9  C   UNL     1      -9.726   9.484  67.194  1.00  0.00    -0.221 C  
HETATM   10  C   UNL     1     -10.339  10.418  66.139  1.00  0.00    -0.269 A  
HETATM   11  C   UNL     1     -10.526   9.874  68.444  1.00  0.00    -0.239 A  
HETATM   12  C   UNL     1     -10.427   9.349  69.726  1.00  0.00    -0.243 A  
HETATM   13  C   UNL     1     -10.014  10.522  64.793  1.00  0.00    -0.412 A  
HETATM   14  C   UNL     1     -11.195   9.931  70.733  1.00  0.00    -0.427 A  
HETATM   15  C   UNL     1     -12.037  11.021  70.453  1.00  0.00    -0.463 A  
HETATM   16  C   UNL     1     -12.142  11.536  69.155  1.00  0.00    -0.329 A  
HETATM   17  C   UNL     1     -10.644  11.514  64.042  1.00  0.00    -0.437 A  
HETATM   18  C   UNL     1     -11.576  12.380  64.637  1.00  0.00    -0.400 A  
HETATM   19  C   UNL     1     -11.902  12.266  65.994  1.00  0.00    -0.409 A  
HETATM   20  C   UNL     1     -11.281  11.279  66.743  1.00  0.00    -0.265 A  
HETATM   21  C   UNL     1     -11.392  10.952  68.151  1.00  0.00    -0.383 A  
BRANCH   9  22
HETATM   22  C   UNL     1      -9.934   8.001  66.823  1.00  0.00    -0.274 C  
HETATM   23  H1  UNL     1     -11.275   6.464  66.907  1.00  0.00     0.000 HD 
HETATM   24  N   UNL     1     -11.138   7.444  67.152  1.00  0.00    -0.537 N  
HETATM   25  O   UNL     1      -9.086   7.308  66.262  1.00  0.00    -0.162 OA 
HETATM   26  H2  UNL     1     -11.866   7.984  67.622  1.00  0.00     0.000 HD 
ENDBRANCH   9  22
ENDBRANCH   8   9
ENDBRANCH   7   8
ENDBRANCH   6   7
ENDBRANCH   4   6
ENDBRANCH   2   4
TORSDOF 6
ENDMDL
MODEL       49
REMARK 921   NORMALIZED FREE ENERGY PREDICTED BY IDOCK:   -5.20 KCAL/MOL
REMARK 922        TOTAL FREE ENERGY PREDICTED BY IDOCK:   -8.03 KCAL/MOL
REMARK 923 INTER-LIGAND FREE ENERGY PREDICTED BY IDOCK:   -7.08 KCAL/MOL
REMARK 924 INTRA-LIGAND FREE ENERGY PREDICTED BY IDOCK:   -0.96 KCAL/MOL
REMARK 927      BINDING AFFINITY PREDICTED BY RF-SCORE:    0.00 PKD
ROOT
HETATM    1  C   UNL     1      -5.165  11.170  66.691  1.00  0.00    -0.101 C  
HETATM    2  C   UNL     1      -6.250  10.650  65.746  1.00  0.00    -0.126 C  
HETATM    3  C   UNL     1      -6.501   9.165  66.008  1.00  0.00    -0.068 C  
ENDROOT
BRANCH   2   4
HETATM    4  N   UNL     1      -7.445  11.469  65.968  1.00  0.00    -0.355 NA 
HETATM    5  H   UNL     1      -8.289  10.907  65.863  1.00  0.00     0.000 HD 
BRANCH   4   6
HETATM    6  C   UNL     1      -7.453  12.171  67.248  1.00  0.00    -0.152 C  
BRANCH   6   7
HETATM    7  C   UNL     1      -8.462  13.320  67.222  1.00  0.00    -0.203 C  
BRANCH   7   8
HETATM    8  C   UNL     1      -9.576  13.148  66.170  1.00  0.00    -0.209 C  
BRANCH   8   9
HETATM    9  C   UNL     1     -10.955  13.730  66.578  1.00  0.00    -0.299 C  
HETATM   10  C   UNL     1     -10.815  15.201  66.998  1.00  0.00    -0.314 A  
HETATM   11  C   UNL     1     -11.455  13.090  67.880  1.00  0.00    -0.352 A  
HETATM   12  C   UNL     1     -11.780  11.760  68.114  1.00  0.00    -0.377 A  
HETATM   13  C   UNL     1     -10.396  16.277  66.227  1.00  0.00    -0.335 A  
HETATM   14  C   UNL     1     -12.123  11.389  69.413  1.00  0.00    -0.358 A  
HETATM   15  C   UNL     1     -12.131  12.337  70.450  1.00  0.00    -0.385 A  
HETATM   16  C   UNL     1     -11.815  13.679  70.204  1.00  0.00    -0.351 A  
HETATM   17  C   UNL     1     -10.258  17.516  66.852  1.00  0.00    -0.329 A  
HETATM   18  C   UNL     1     -10.534  17.663  68.222  1.00  0.00    -0.376 A  
HETATM   19  C   UNL     1     -10.961  16.574  68.991  1.00  0.00    -0.306 A  
HETATM   20  C   UNL     1     -11.103  15.342  68.373  1.00  0.00    -0.289 A  
HETATM   21  C   UNL     1     -11.488  14.053  68.914  1.00  0.00    -0.331 A  
BRANCH   9  22
HETATM   22  C   UNL     1     -11.975  13.565  65.432  1.00  0.00    -0.379 C  
HETATM   23  H1  UNL     1     -12.306  12.605  63.661  1.00  0.00     0.000 HD 
HETATM   24  N   UNL     1     -11.632  12.714  64.418  1.00  0.00    -0.336 N  
HETATM   25  O   UNL     1     -13.054  14.151  65.383  1.00  0.00    -0.743 OA 
HETATM   26  H2  UNL     1     -10.743  12.212  64.419  1.00  0.00     0.000 HD 
ENDBRANCH   9  22
ENDBRANCH   8   9
ENDBRANCH   7   8
ENDBRANCH   6   7
ENDBRANCH   4   6
ENDBRANCH   2   4
TORSDOF 6
ENDMDL
MODEL       50
REMARK 921   NORMALIZED FREE ENERGY PREDICTED BY IDOCK:   -5.20 KCAL/MOL
REMARK 922        TOTAL FREE ENERGY PREDICTED BY IDOCK:   -8.03 KCAL/MOL
REMARK 923 INTER-LIGAND FREE ENERGY PREDICTED BY IDOCK:   -7.52 KCAL/MOL
REMARK 924 INTRA-LIGAND FREE ENERGY PREDICTED BY IDOCK:   -0.51 KCAL/MOL
REMARK 927      BINDING AFFINITY PREDICTED BY RF-SCORE:    0.00 PKD
ROOT
HETATM    1  C   UNL     1      -8.292  18.484  67.397  1.00  0.00    -0.264 C  
HETATM    2  C   UNL     1      -7.895  17.591  66.220  1.00  0.00    -0.287 C  
HETATM    3  C   UNL     1      -6.388  17.686  65.979  1.00  0.00    -0.253 C  
ENDROOT
BRANCH   2   4
HETATM    4  N   UNL     1      -8.325  16.229  66.547  1.00  0.00    -0.279 NA 
HETATM    5  H   UNL     1      -7.981  15.567  65.852  1.00  0.00     0.000 HD 
BRANCH   4   6
HETATM    6  C   UNL     1      -7.957  15.797  67.892  1.00  0.00    -0.138 C  
BRANCH   6   7
HETATM    7  C   UNL     1      -8.700  14.513  68.264  1.00  0.00    -0.173 C  
BRANCH   7   8
HETATM    8  C   UNL     1      -9.791  14.711  69.336  1.00  0.00    -0.008 C  
BRANCH   8   9
HETATM    9  C   UNL     1     -11.163  14.074  68.995  1.00  0.00    -0.311 C  
HETATM   10  C   UNL     1     -12.157  14.289  70.147  1.00  0.00    -0.403 A  
HETATM   11  C   UNL     1     -11.064  12.544  68.962  1.00  0.00    -0.287 A  
HETATM   12  C   UNL     1     -10.316  11.750  68.103  1.00  0.00    -0.213 A  
HETATM   13  C   UNL     1     -12.643  15.489  70.649  1.00  0.00    -0.493 A  
HETATM   14  C   UNL     1     -10.307  10.374  68.324  1.00  0.00    -0.198 A  
HETATM   15  C   UNL     1     -11.031   9.815  69.391  1.00  0.00    -0.241 A  
HETATM   16  C   UNL     1     -11.795  10.621  70.244  1.00  0.00    -0.430 A  
HETATM   17  C   UNL     1     -13.472  15.442  71.770  1.00  0.00    -0.581 A  
HETATM   18  C   UNL     1     -13.798  14.214  72.369  1.00  0.00    -0.638 A  
HETATM   19  C   UNL     1     -13.308  13.008  71.854  1.00  0.00    -0.539 A  
HETATM   20  C   UNL     1     -12.487  13.050  70.739  1.00  0.00    -0.384 A  
HETATM   21  C   UNL     1     -11.817  11.985  70.019  1.00  0.00    -0.392 A  
BRANCH   9  22
HETATM   22  C   UNL     1     -11.709  14.641  67.667  1.00  0.00    -0.363 C  
HETATM   23  H1  UNL     1     -13.019  14.273  66.146  1.00  0.00     0.000 HD 
HETATM   24  N   UNL     1     -12.659  13.899  67.023  1.00  0.00    -0.414 N  
HETATM   25  O   UNL     1     -11.336  15.701  67.168  1.00  0.00    -0.229 OA 
HETATM   26  H2  UNL     1     -12.992  13.011  67.402  1.00  0.00     0.000 HD 
ENDBRANCH   9  22
ENDBRANCH   8   9
ENDBRANCH   7   8
ENDBRANCH   6   7
ENDBRANCH   4   6
ENDBRANCH   2   4
TORSDOF 6
ENDMDL
MODEL       51
REMARK 921   NORMALIZED FREE ENERGY PREDICTED BY IDOCK:   -5.19 KCAL/MOL
REMARK 922        TOTAL FREE ENERGY PREDICTED BY IDOCK:   -8.02 KCAL/MOL
REMARK 923 INTER-LIGAND FREE ENERGY PREDICTED BY IDOCK:   -6.33 KCAL/MOL
REMARK 924 INTRA-LIGAND FREE ENERGY PREDICTED BY IDOCK:   -1.68 KCAL/MOL
REMARK 927      BINDING AFFINITY PREDICTED BY RF-SCORE:    0.00 PKD
ROOT
HETATM    1  C   UNL     1     -10.075   7.765  66.929  1.00  0.00    -0.356 C  
HETATM    2  C   UNL     1     -10.070   7.720  68.458  1.00  0.00    -0.199 C  
HETATM    3  C   UNL     1      -8.736   8.244  68.990  1.00  0.00    -0.143 C  
ENDROOT
BRANCH   2   4
HETATM    4  N   UNL     1     -11.210   8.519  68.917  1.00  0.00    -0.282 NA 
HETATM    5  H   UNL     1     -11.671   8.066  69.706  1.00  0.00     0.000 HD 
BRANCH   4   6
HETATM    6  C   UNL     1     -10.872   9.901  69.245  1.00  0.00    -0.227 C  
BRANCH   6   7
HETATM    7  C   UNL     1     -11.475  10.858  68.216  1.00  0.00    -0.376 C  
BRANCH   7   8
HETATM    8  C   UNL     1     -10.959  12.306  68.332  1.00  0.00    -0.270 C  
BRANCH   8   9
HETATM    9  C   UNL     1     -10.204  12.832  67.084  1.00  0.00    -0.235 C  
HETATM   10  C   UNL     1     -11.073  12.682  65.826  1.00  0.00    -0.332 A  
HETATM   11  C   UNL     1      -9.015  11.926  66.741  1.00  0.00    -0.196 A  
HETATM   12  C   UNL     1      -7.882  11.670  67.502  1.00  0.00    -0.137 A  
HETATM   13  C   UNL     1     -12.296  13.279  65.551  1.00  0.00    -0.533 A  
HETATM   14  C   UNL     1      -6.972  10.729  67.025  1.00  0.00    -0.100 A  
HETATM   15  C   UNL     1      -7.204  10.058  65.812  1.00  0.00    -0.117 A  
HETATM   16  C   UNL     1      -8.341  10.332  65.043  1.00  0.00    -0.169 A  
HETATM   17  C   UNL     1     -12.951  12.918  64.374  1.00  0.00    -0.107 A  
HETATM   18  C   UNL     1     -12.385  11.977  63.498  1.00  0.00    -0.661 A  
HETATM   19  C   UNL     1     -11.149  11.383  63.780  1.00  0.00    -0.417 A  
HETATM   20  C   UNL     1     -10.493  11.741  64.947  1.00  0.00    -0.334 A  
HETATM   21  C   UNL     1      -9.239  11.275  65.507  1.00  0.00    -0.220 A  
BRANCH   9  22
HETATM   22  C   UNL     1      -9.764  14.297  67.294  1.00  0.00    -0.234 C  
HETATM   23  H1  UNL     1      -8.712  15.828  66.447  1.00  0.00     0.000 HD 
HETATM   24  N   UNL     1      -9.002  14.860  66.308  1.00  0.00    -0.473 N  
HETATM   25  O   UNL     1     -10.055  14.967  68.283  1.00  0.00    -0.215 OA 
HETATM   26  H2  UNL     1      -8.736  14.337  65.474  1.00  0.00     0.000 HD 
ENDBRANCH   9  22
ENDBRANCH   8   9
ENDBRANCH   7   8
ENDBRANCH   6   7
ENDBRANCH   4   6
ENDBRANCH   2   4
TORSDOF 6
ENDMDL
MODEL       52
REMARK 921   NORMALIZED FREE ENERGY PREDICTED BY IDOCK:   -5.18 KCAL/MOL
REMARK 922        TOTAL FREE ENERGY PREDICTED BY IDOCK:   -8.01 KCAL/MOL
REMARK 923 INTER-LIGAND FREE ENERGY PREDICTED BY IDOCK:   -6.78 KCAL/MOL
REMARK 924 INTRA-LIGAND FREE ENERGY PREDICTED BY IDOCK:   -1.22 KCAL/MOL
REMARK 927      BINDING AFFINITY PREDICTED BY RF-SCORE:    0.00 PKD
ROOT
HETATM    1  C   UNL     1      -9.605  19.239  67.821  1.00  0.00    -0.395 C  
HETATM    2  C   UNL     1     -10.504  18.786  66.669  1.00  0.00    -0.426 C  
HETATM    3  C   UNL     1     -10.672  19.924  65.662  1.00  0.00    -0.377 C  
ENDROOT
BRANCH   2   4
HETATM    4  N   UNL     1      -9.880  17.600  66.076  1.00  0.00    -0.524 NA 
HETATM    5  H   UNL     1      -9.301  17.118  66.763  1.00  0.00     0.000 HD 
BRANCH   4   6
HETATM    6  C   UNL     1     -10.829  16.673  65.466  1.00  0.00    -0.163 C  
BRANCH   6   7
HETATM    7  C   UNL     1     -10.377  15.228  65.677  1.00  0.00    -0.389 C  
BRANCH   7   8
HETATM    8  C   UNL     1      -8.978  15.098  66.315  1.00  0.00    -0.274 C  
BRANCH   8   9
HETATM    9  C   UNL     1      -8.926  14.239  67.604  1.00  0.00    -0.194 C  
HETATM   10  C   UNL     1      -9.475  12.829  67.335  1.00  0.00    -0.190 A  
HETATM   11  C   UNL     1      -9.923  14.757  68.649  1.00  0.00    -0.232 A  
HETATM   12  C   UNL     1      -9.932  15.988  69.291  1.00  0.00    -0.252 A  
HETATM   13  C   UNL     1      -8.979  11.866  66.466  1.00  0.00    -0.199 A  
HETATM   14  C   UNL     1     -11.001  16.277  70.138  1.00  0.00    -0.335 A  
HETATM   15  C   UNL     1     -12.038  15.348  70.325  1.00  0.00    -0.402 A  
HETATM   16  C   UNL     1     -12.016  14.103  69.684  1.00  0.00    -0.389 A  
HETATM   17  C   UNL     1      -9.703  10.684  66.316  1.00  0.00    -0.245 A  
HETATM   18  C   UNL     1     -10.899  10.481  67.024  1.00  0.00    -0.288 A  
HETATM   19  C   UNL     1     -11.390  11.455  67.902  1.00  0.00    -0.371 A  
HETATM   20  C   UNL     1     -10.672  12.630  68.056  1.00  0.00    -0.243 A  
HETATM   21  C   UNL     1     -10.950  13.808  68.854  1.00  0.00    -0.281 A  
BRANCH   9  22
HETATM   22  C   UNL     1      -7.488  14.186  68.164  1.00  0.00    -0.129 C  
HETATM   23  H1  UNL     1      -6.371  13.553  69.750  1.00  0.00     0.000 HD 
HETATM   24  N   UNL     1      -7.321  13.588  69.381  1.00  0.00    -0.316 N  
HETATM   25  O   UNL     1      -6.509  14.651  67.584  1.00  0.00    -0.167 OA 
HETATM   26  H2  UNL     1      -8.109  13.194  69.896  1.00  0.00     0.000 HD 
ENDBRANCH   9  22
ENDBRANCH   8   9
ENDBRANCH   7   8
ENDBRANCH   6   7
ENDBRANCH   4   6
ENDBRANCH   2   4
TORSDOF 6
ENDMDL
MODEL       53
REMARK 921   NORMALIZED FREE ENERGY PREDICTED BY IDOCK:   -5.16 KCAL/MOL
REMARK 922        TOTAL FREE ENERGY PREDICTED BY IDOCK:   -7.97 KCAL/MOL
REMARK 923 INTER-LIGAND FREE ENERGY PREDICTED BY IDOCK:   -6.20 KCAL/MOL
REMARK 924 INTRA-LIGAND FREE ENERGY PREDICTED BY IDOCK:   -1.77 KCAL/MOL
REMARK 927      BINDING AFFINITY PREDICTED BY RF-SCORE:    0.00 PKD
ROOT
HETATM    1  C   UNL     1      -8.349   7.252  65.981  1.00  0.00    -0.140 C  
HETATM    2  C   UNL     1      -9.583   7.628  66.805  1.00  0.00    -0.209 C  
HETATM    3  C   UNL     1     -10.106   8.995  66.365  1.00  0.00    -0.351 C  
ENDROOT
BRANCH   2   4
HETATM    4  N   UNL     1     -10.570   6.561  66.615  1.00  0.00    -0.486 NA 
HETATM    5  H   UNL     1     -10.337   5.998  65.797  1.00  0.00     0.000 HD 
BRANCH   4   6
HETATM    6  C   UNL     1     -10.756   5.710  67.787  1.00  0.00    -0.166 C  
BRANCH   6   7
HETATM    7  C   UNL     1     -11.313   6.524  68.956  1.00  0.00    -0.296 C  
BRANCH   7   8
HETATM    8  C   UNL     1     -10.808   6.058  70.337  1.00  0.00    -0.386 C  
BRANCH   8   9
HETATM    9  C   UNL     1     -10.303   7.194  71.264  1.00  0.00    -0.209 C  
HETATM   10  C   UNL     1     -11.392   8.261  71.452  1.00  0.00    -0.309 A  
HETATM   11  C   UNL     1      -9.197   8.008  70.580  1.00  0.00    -0.154 A  
HETATM   12  C   UNL     1      -7.941   7.579  70.172  1.00  0.00    -0.111 A  
HETATM   13  C   UNL     1     -12.647   8.113  72.029  1.00  0.00    -0.366 A  
HETATM   14  C   UNL     1      -7.135   8.480  69.479  1.00  0.00    -0.052 A  
HETATM   15  C   UNL     1      -7.589   9.779  69.198  1.00  0.00    -0.085 A  
HETATM   16  C   UNL     1      -8.852  10.209  69.624  1.00  0.00    -0.184 A  
HETATM   17  C   UNL     1     -13.511   9.207  72.006  1.00  0.00    -0.510 A  
HETATM   18  C   UNL     1     -13.118  10.419  71.413  1.00  0.00    -0.512 A  
HETATM   19  C   UNL     1     -11.849  10.561  70.838  1.00  0.00    -0.455 A  
HETATM   20  C   UNL     1     -10.986   9.477  70.862  1.00  0.00    -0.407 A  
HETATM   21  C   UNL     1      -9.649   9.323  70.324  1.00  0.00    -0.276 A  
BRANCH   9  22
HETATM   22  C   UNL     1      -9.835   6.621  72.619  1.00  0.00    -0.168 C  
HETATM   23  H1  UNL     1      -9.367   4.887  73.589  1.00  0.00     0.000 HD 
HETATM   24  N   UNL     1      -9.676   5.265  72.694  1.00  0.00    -0.150 N  
HETATM   25  O   UNL     1      -9.608   7.307  73.613  1.00  0.00    -0.219 OA 
HETATM   26  H2  UNL     1      -9.859   4.660  71.892  1.00  0.00     0.000 HD 
ENDBRANCH   9  22
ENDBRANCH   8   9
ENDBRANCH   7   8
ENDBRANCH   6   7
ENDBRANCH   4   6
ENDBRANCH   2   4
TORSDOF 6
ENDMDL
MODEL       54
REMARK 921   NORMALIZED FREE ENERGY PREDICTED BY IDOCK:   -5.14 KCAL/MOL
REMARK 922        TOTAL FREE ENERGY PREDICTED BY IDOCK:   -7.95 KCAL/MOL
REMARK 923 INTER-LIGAND FREE ENERGY PREDICTED BY IDOCK:   -6.66 KCAL/MOL
REMARK 924 INTRA-LIGAND FREE ENERGY PREDICTED BY IDOCK:   -1.29 KCAL/MOL
REMARK 927      BINDING AFFINITY PREDICTED BY RF-SCORE:    0.00 PKD
ROOT
HETATM    1  C   UNL     1      -9.619   5.550  69.848  1.00  0.00    -0.217 C  
HETATM    2  C   UNL     1     -11.126   5.782  69.981  1.00  0.00    -0.258 C  
HETATM    3  C   UNL     1     -11.437   6.411  71.339  1.00  0.00    -0.363 C  
ENDROOT
BRANCH   2   4
HETATM    4  N   UNL     1     -11.531   6.635  68.860  1.00  0.00    -0.602 NA 
HETATM    5  H   UNL     1     -11.588   7.610  69.154  1.00  0.00     0.000 HD 
BRANCH   4   6
HETATM    6  C   UNL     1     -10.685   6.504  67.678  1.00  0.00    -0.307 C  
BRANCH   6   7
HETATM    7  C   UNL     1     -10.643   7.820  66.902  1.00  0.00    -0.347 C  
BRANCH   7   8
HETATM    8  C   UNL     1      -9.239   8.454  66.823  1.00  0.00    -0.214 C  
BRANCH   8   9
HETATM    9  C   UNL     1      -9.164   9.934  67.278  1.00  0.00    -0.156 C  
HETATM   10  C   UNL     1      -9.994  10.148  68.554  1.00  0.00    -0.177 A  
HETATM   11  C   UNL     1      -9.893  10.850  66.286  1.00  0.00    -0.261 A  
HETATM   12  C   UNL     1      -9.587  11.089  64.953  1.00  0.00    -0.289 A  
HETATM   13  C   UNL     1      -9.808   9.573  69.804  1.00  0.00    -0.236 A  
HETATM   14  C   UNL     1     -10.456  11.892  64.216  1.00  0.00    -0.370 A  
HETATM   15  C   UNL     1     -11.608  12.433  64.809  1.00  0.00    -0.395 A  
HETATM   16  C   UNL     1     -11.904  12.199  66.157  1.00  0.00    -0.327 A  
HETATM   17  C   UNL     1     -10.750   9.846  70.796  1.00  0.00    -0.350 A  
HETATM   18  C   UNL     1     -11.851  10.676  70.530  1.00  0.00    -0.453 A  
HETATM   19  C   UNL     1     -12.029  11.255  69.268  1.00  0.00    -0.411 A  
HETATM   20  C   UNL     1     -11.094  10.990  68.281  1.00  0.00    -0.316 A  
HETATM   21  C   UNL     1     -11.036  11.414  66.896  1.00  0.00    -0.356 A  
BRANCH   9  22
HETATM   22  C   UNL     1      -7.696  10.366  67.482  1.00  0.00    -0.094 C  
HETATM   23  H1  UNL     1      -5.806   9.654  67.779  1.00  0.00     0.000 HD 
HETATM   24  N   UNL     1      -6.776   9.369  67.645  1.00  0.00    -0.067 N  
HETATM   25  O   UNL     1      -7.322  11.537  67.509  1.00  0.00    -0.098 OA 
HETATM   26  H2  UNL     1      -7.047   8.385  67.633  1.00  0.00     0.000 HD 
ENDBRANCH   9  22
ENDBRANCH   8   9
ENDBRANCH   7   8
ENDBRANCH   6   7
ENDBRANCH   4   6
ENDBRANCH   2   4
TORSDOF 6
ENDMDL
MODEL       55
REMARK 921   NORMALIZED FREE ENERGY PREDICTED BY IDOCK:   -5.13 KCAL/MOL
REMARK 922        TOTAL FREE ENERGY PREDICTED BY IDOCK:   -7.93 KCAL/MOL
REMARK 923 INTER-LIGAND FREE ENERGY PREDICTED BY IDOCK:   -7.54 KCAL/MOL
REMARK 924 INTRA-LIGAND FREE ENERGY PREDICTED BY IDOCK:   -0.39 KCAL/MOL
REMARK 927      BINDING AFFINITY PREDICTED BY RF-SCORE:    0.00 PKD
ROOT
HETATM    1  C   UNL     1     -10.434  17.649  68.761  1.00  0.00    -0.287 C  
HETATM    2  C   UNL     1      -9.139  17.451  67.972  1.00  0.00    -0.259 C  
HETATM    3  C   UNL     1      -8.237  18.676  68.137  1.00  0.00    -0.327 C  
ENDROOT
BRANCH   2   4
HETATM    4  N   UNL     1      -8.513  16.223  68.470  1.00  0.00    -0.195 NA 
HETATM    5  H   UNL     1      -9.103  15.781  69.175  1.00  0.00     0.000 HD 
BRANCH   4   6
HETATM    6  C   UNL     1      -8.165  15.269  67.422  1.00  0.00    -0.184 C  
BRANCH   6   7
HETATM    7  C   UNL     1      -9.413  14.845  66.647  1.00  0.00    -0.286 C  
BRANCH   7   8
HETATM    8  C   UNL     1      -9.387  13.376  66.176  1.00  0.00    -0.075 C  
BRANCH   8   9
HETATM    9  C   UNL     1     -10.734  12.621  66.320  1.00  0.00    -0.280 C  
HETATM   10  C   UNL     1     -11.366  12.904  67.691  1.00  0.00    -0.349 A  
HETATM   11  C   UNL     1     -10.506  11.106  66.399  1.00  0.00    -0.311 A  
HETATM   12  C   UNL     1      -9.968  10.266  65.433  1.00  0.00    -0.371 A  
HETATM   13  C   UNL     1     -11.796  14.122  68.203  1.00  0.00    -0.387 A  
HETATM   14  C   UNL     1      -9.767   8.928  65.766  1.00  0.00    -0.193 A  
HETATM   15  C   UNL     1     -10.095   8.452  67.047  1.00  0.00    -0.354 A  
HETATM   16  C   UNL     1     -10.650   9.301  68.012  1.00  0.00    -0.262 A  
HETATM   17  C   UNL     1     -12.256  14.153  69.519  1.00  0.00    -0.351 A  
HETATM   18  C   UNL     1     -12.278  12.984  70.298  1.00  0.00    -0.368 A  
HETATM   19  C   UNL     1     -11.848  11.760  69.773  1.00  0.00    -0.420 A  
HETATM   20  C   UNL     1     -11.394  11.724  68.465  1.00  0.00    -0.328 A  
HETATM   21  C   UNL     1     -10.864  10.627  67.679  1.00  0.00    -0.346 A  
BRANCH   9  22
HETATM   22  C   UNL     1     -11.691  12.996  65.169  1.00  0.00    -0.343 C  
HETATM   23  H1  UNL     1     -11.752  13.676  63.245  1.00  0.00     0.000 HD 
HETATM   24  N   UNL     1     -11.119  13.428  64.005  1.00  0.00    -0.556 N  
HETATM   25  O   UNL     1     -12.917  12.931  65.247  1.00  0.00    -0.703 OA 
HETATM   26  H2  UNL     1     -10.106  13.500  63.902  1.00  0.00     0.000 HD 
ENDBRANCH   9  22
ENDBRANCH   8   9
ENDBRANCH   7   8
ENDBRANCH   6   7
ENDBRANCH   4   6
ENDBRANCH   2   4
TORSDOF 6
ENDMDL
MODEL       56
REMARK 921   NORMALIZED FREE ENERGY PREDICTED BY IDOCK:   -5.12 KCAL/MOL
REMARK 922        TOTAL FREE ENERGY PREDICTED BY IDOCK:   -7.92 KCAL/MOL
REMARK 923 INTER-LIGAND FREE ENERGY PREDICTED BY IDOCK:   -6.31 KCAL/MOL
REMARK 924 INTRA-LIGAND FREE ENERGY PREDICTED BY IDOCK:   -1.61 KCAL/MOL
REMARK 927      BINDING AFFINITY PREDICTED BY RF-SCORE:    0.00 PKD
ROOT
HETATM    1  C   UNL     1      -6.718  15.854  69.286  1.00  0.00    -0.176 C  
HETATM    2  C   UNL     1      -7.165  15.321  67.923  1.00  0.00    -0.143 C  
HETATM    3  C   UNL     1      -7.307  16.477  66.933  1.00  0.00    -0.260 C  
ENDROOT
BRANCH   2   4
HETATM    4  N   UNL     1      -6.167  14.336  67.497  1.00  0.00    -0.337 NA 
HETATM    5  H   UNL     1      -5.290  14.475  67.998  1.00  0.00     0.000 HD 
BRANCH   4   6
HETATM    6  C   UNL     1      -6.612  12.951  67.617  1.00  0.00    -0.155 C  
BRANCH   6   7
HETATM    7  C   UNL     1      -8.027  12.793  67.059  1.00  0.00    -0.045 C  
BRANCH   7   8
HETATM    8  C   UNL     1      -8.980  12.011  67.986  1.00  0.00    -0.187 C  
BRANCH   8   9
HETATM    9  C   UNL     1     -10.467  12.444  67.907  1.00  0.00    -0.227 C  
HETATM   10  C   UNL     1     -10.940  12.485  66.446  1.00  0.00    -0.309 A  
HETATM   11  C   UNL     1     -10.633  13.912  68.320  1.00  0.00    -0.263 A  
HETATM   12  C   UNL     1     -10.375  14.492  69.555  1.00  0.00    -0.028 A  
HETATM   13  C   UNL     1     -11.018  11.435  65.539  1.00  0.00    -0.248 A  
HETATM   14  C   UNL     1     -10.509  15.874  69.670  1.00  0.00    -0.295 A  
HETATM   15  C   UNL     1     -10.887  16.652  68.563  1.00  0.00    -0.356 A  
HETATM   16  C   UNL     1     -11.158  16.059  67.324  1.00  0.00    -0.131 A  
HETATM   17  C   UNL     1     -11.391  11.729  64.229  1.00  0.00    -0.400 A  
HETATM   18  C   UNL     1     -11.675  13.050  63.843  1.00  0.00    -0.531 A  
HETATM   19  C   UNL     1     -11.599  14.101  64.764  1.00  0.00    -0.400 A  
HETATM   20  C   UNL     1     -11.232  13.813  66.069  1.00  0.00    -0.307 A  
HETATM   21  C   UNL     1     -11.040  14.686  67.210  1.00  0.00    -0.331 A  
BRANCH   9  22
HETATM   22  C   UNL     1     -11.351  11.508  68.759  1.00  0.00    -0.265 C  
HETATM   23  H1  UNL     1     -11.383  10.398  70.472  1.00  0.00     0.000 HD 
HETATM   24  N   UNL     1     -10.799  11.016  69.909  1.00  0.00    -0.463 N  
HETATM   25  O   UNL     1     -12.498  11.185  68.459  1.00  0.00    -0.452 OA 
HETATM   26  H2  UNL     1      -9.849  11.257  70.192  1.00  0.00     0.000 HD 
ENDBRANCH   9  22
ENDBRANCH   8   9
ENDBRANCH   7   8
ENDBRANCH   6   7
ENDBRANCH   4   6
ENDBRANCH   2   4
TORSDOF 6
ENDMDL
MODEL       57
REMARK 921   NORMALIZED FREE ENERGY PREDICTED BY IDOCK:   -5.10 KCAL/MOL
REMARK 922        TOTAL FREE ENERGY PREDICTED BY IDOCK:   -7.89 KCAL/MOL
REMARK 923 INTER-LIGAND FREE ENERGY PREDICTED BY IDOCK:   -7.59 KCAL/MOL
REMARK 924 INTRA-LIGAND FREE ENERGY PREDICTED BY IDOCK:   -0.30 KCAL/MOL
REMARK 927      BINDING AFFINITY PREDICTED BY RF-SCORE:    0.00 PKD
ROOT
HETATM    1  C   UNL     1     -13.516   9.279  71.917  1.00  0.00    -0.497 C  
HETATM    2  C   UNL     1     -12.340  10.143  71.457  1.00  0.00    -0.408 C  
HETATM    3  C   UNL     1     -11.040   9.345  71.555  1.00  0.00    -0.446 C  
ENDROOT
BRANCH   2   4
HETATM    4  N   UNL     1     -12.632  10.576  70.088  1.00  0.00    -0.498 NA 
HETATM    5  H   UNL     1     -13.058  11.503  70.088  1.00  0.00     0.000 HD 
BRANCH   4   6
HETATM    6  C   UNL     1     -11.477  10.543  69.197  1.00  0.00    -0.247 C  
BRANCH   6   7
HETATM    7  C   UNL     1     -11.561  11.672  68.170  1.00  0.00    -0.389 C  
BRANCH   7   8
HETATM    8  C   UNL     1     -10.639  12.869  68.480  1.00  0.00    -0.270 C  
BRANCH   8   9
HETATM    9  C   UNL     1      -9.654  13.246  67.343  1.00  0.00    -0.223 C  
HETATM   10  C   UNL     1      -9.892  14.693  66.883  1.00  0.00    -0.252 A  
HETATM   11  C   UNL     1      -9.973  12.465  66.061  1.00  0.00    -0.270 A  
HETATM   12  C   UNL     1      -9.918  11.093  65.855  1.00  0.00    -0.285 A  
HETATM   13  C   UNL     1      -9.758  15.861  67.622  1.00  0.00    -0.223 A  
HETATM   14  C   UNL     1     -10.349  10.598  64.626  1.00  0.00    -0.353 A  
HETATM   15  C   UNL     1     -10.828  11.467  63.632  1.00  0.00    -0.488 A  
HETATM   16  C   UNL     1     -10.868  12.851  63.841  1.00  0.00    -0.402 A  
HETATM   17  C   UNL     1     -10.120  17.064  67.016  1.00  0.00    -0.295 A  
HETATM   18  C   UNL     1     -10.609  17.085  65.699  1.00  0.00    -0.206 A  
HETATM   19  C   UNL     1     -10.736  15.903  64.960  1.00  0.00    -0.426 A  
HETATM   20  C   UNL     1     -10.374  14.706  65.556  1.00  0.00    -0.383 A  
HETATM   21  C   UNL     1     -10.429  13.347  65.055  1.00  0.00    -0.378 A  
BRANCH   9  22
HETATM   22  C   UNL     1      -8.194  13.031  67.795  1.00  0.00    -0.168 C  
HETATM   23  H1  UNL     1      -7.027  12.024  69.133  1.00  0.00     0.000 HD 
HETATM   24  N   UNL     1      -7.991  12.166  68.834  1.00  0.00    -0.345 N  
HETATM   25  O   UNL     1      -7.227  13.591  67.283  1.00  0.00    -0.137 OA 
HETATM   26  H2  UNL     1      -8.768  11.685  69.289  1.00  0.00     0.000 HD 
ENDBRANCH   9  22
ENDBRANCH   8   9
ENDBRANCH   7   8
ENDBRANCH   6   7
ENDBRANCH   4   6
ENDBRANCH   2   4
TORSDOF 6
ENDMDL
MODEL       58
REMARK 921   NORMALIZED FREE ENERGY PREDICTED BY IDOCK:   -5.08 KCAL/MOL
REMARK 922        TOTAL FREE ENERGY PREDICTED BY IDOCK:   -7.86 KCAL/MOL
REMARK 923 INTER-LIGAND FREE ENERGY PREDICTED BY IDOCK:   -7.39 KCAL/MOL
REMARK 924 INTRA-LIGAND FREE ENERGY PREDICTED BY IDOCK:   -0.48 KCAL/MOL
REMARK 927      BINDING AFFINITY PREDICTED BY RF-SCORE:    0.00 PKD
ROOT
HETATM    1  C   UNL     1     -12.680   9.420  71.870  1.00  0.00    -0.484 C  
HETATM    2  C   UNL     1     -11.210   9.396  71.448  1.00  0.00    -0.381 C  
HETATM    3  C   UNL     1     -10.906   8.100  70.695  1.00  0.00    -0.246 C  
ENDROOT
BRANCH   2   4
HETATM    4  N   UNL     1     -10.976  10.589  70.629  1.00  0.00    -0.398 NA 
HETATM    5  H   UNL     1     -10.326  10.381  69.870  1.00  0.00     0.000 HD 
BRANCH   4   6
HETATM    6  C   UNL     1     -12.195  11.198  70.107  1.00  0.00    -0.337 C  
BRANCH   6   7
HETATM    7  C   UNL     1     -11.958  11.751  68.702  1.00  0.00    -0.299 C  
BRANCH   7   8
HETATM    8  C   UNL     1     -11.438  13.203  68.681  1.00  0.00    -0.342 C  
BRANCH   8   9
HETATM    9  C   UNL     1     -10.422  13.516  67.553  1.00  0.00    -0.237 C  
HETATM   10  C   UNL     1     -10.028  15.001  67.580  1.00  0.00    -0.225 A  
HETATM   11  C   UNL     1     -11.083  13.404  66.173  1.00  0.00    -0.299 A  
HETATM   12  C   UNL     1     -11.630  12.278  65.572  1.00  0.00    -0.422 A  
HETATM   13  C   UNL     1      -9.382  15.699  68.592  1.00  0.00    -0.201 A  
HETATM   14  C   UNL     1     -12.268  12.438  64.343  1.00  0.00    -0.519 A  
HETATM   15  C   UNL     1     -12.358  13.704  63.741  1.00  0.00    -0.357 A  
HETATM   16  C   UNL     1     -11.792  14.832  64.347  1.00  0.00    -0.393 A  
HETATM   17  C   UNL     1      -9.211  17.074  68.433  1.00  0.00    -0.259 A  
HETATM   18  C   UNL     1      -9.682  17.727  67.281  1.00  0.00    -0.285 A  
HETATM   19  C   UNL     1     -10.327  17.015  66.263  1.00  0.00    -0.309 A  
HETATM   20  C   UNL     1     -10.497  15.648  66.416  1.00  0.00    -0.309 A  
HETATM   21  C   UNL     1     -11.146  14.675  65.559  1.00  0.00    -0.345 A  
BRANCH   9  22
HETATM   22  C   UNL     1      -9.183  12.602  67.669  1.00  0.00    -0.191 C  
HETATM   23  H1  UNL     1      -7.551  11.920  66.650  1.00  0.00     0.000 HD 
HETATM   24  N   UNL     1      -8.369  12.524  66.574  1.00  0.00    -0.408 N  
HETATM   25  O   UNL     1      -8.902  11.951  68.673  1.00  0.00    -0.139 OA 
HETATM   26  H2  UNL     1      -8.570  13.045  65.719  1.00  0.00     0.000 HD 
ENDBRANCH   9  22
ENDBRANCH   8   9
ENDBRANCH   7   8
ENDBRANCH   6   7
ENDBRANCH   4   6
ENDBRANCH   2   4
TORSDOF 6
ENDMDL
MODEL       59
REMARK 921   NORMALIZED FREE ENERGY PREDICTED BY IDOCK:   -5.07 KCAL/MOL
REMARK 922        TOTAL FREE ENERGY PREDICTED BY IDOCK:   -7.86 KCAL/MOL
REMARK 923 INTER-LIGAND FREE ENERGY PREDICTED BY IDOCK:   -7.95 KCAL/MOL
REMARK 924 INTRA-LIGAND FREE ENERGY PREDICTED BY IDOCK:    0.09 KCAL/MOL
REMARK 927      BINDING AFFINITY PREDICTED BY RF-SCORE:    0.00 PKD
ROOT
HETATM    1  C   UNL     1      -9.735  18.134  69.118  1.00  0.00    -0.113 C  
HETATM    2  C   UNL     1     -10.768  17.957  68.004  1.00  0.00    -0.294 C  
HETATM    3  C   UNL     1     -10.679  19.126  67.022  1.00  0.00    -0.542 C  
ENDROOT
BRANCH   2   4
HETATM    4  N   UNL     1     -10.499  16.666  67.366  1.00  0.00    -0.315 NA 
HETATM    5  H   UNL     1     -10.460  16.768  66.352  1.00  0.00     0.000 HD 
BRANCH   4   6
HETATM    6  C   UNL     1      -9.299  15.999  67.861  1.00  0.00    -0.208 C  
BRANCH   6   7
HETATM    7  C   UNL     1      -9.393  14.490  67.633  1.00  0.00    -0.202 C  
BRANCH   7   8
HETATM    8  C   UNL     1      -9.803  13.693  68.888  1.00  0.00     0.019 C  
BRANCH   8   9
HETATM    9  C   UNL     1     -11.191  13.006  68.800  1.00  0.00    -0.325 C  
HETATM   10  C   UNL     1     -12.082  13.441  69.974  1.00  0.00    -0.404 A  
HETATM   11  C   UNL     1     -11.073  11.498  69.052  1.00  0.00    -0.302 A  
HETATM   12  C   UNL     1     -10.392  10.552  68.297  1.00  0.00    -0.193 A  
HETATM   13  C   UNL     1     -12.539  14.716  70.279  1.00  0.00    -0.370 A  
HETATM   14  C   UNL     1     -10.343   9.244  68.776  1.00  0.00    -0.231 A  
HETATM   15  C   UNL     1     -10.961   8.902  69.991  1.00  0.00    -0.217 A  
HETATM   16  C   UNL     1     -11.658   9.859  70.740  1.00  0.00    -0.430 A  
HETATM   17  C   UNL     1     -13.264  14.887  71.458  1.00  0.00    -0.448 A  
HETATM   18  C   UNL     1     -13.518  13.799  72.308  1.00  0.00    -0.638 A  
HETATM   19  C   UNL     1     -13.058  12.515  71.991  1.00  0.00    -0.472 A  
HETATM   20  C   UNL     1     -12.340  12.339  70.819  1.00  0.00    -0.383 A  
HETATM   21  C   UNL     1     -11.720  11.154  70.260  1.00  0.00    -0.431 A  
BRANCH   9  22
HETATM   22  C   UNL     1     -11.861  13.309  67.443  1.00  0.00    -0.366 C  
HETATM   23  H1  UNL     1     -12.822  14.762  66.379  1.00  0.00     0.000 HD 
HETATM   24  N   UNL     1     -12.379  14.562  67.276  1.00  0.00    -0.562 N  
HETATM   25  O   UNL     1     -11.955  12.494  66.526  1.00  0.00    -0.522 OA 
HETATM   26  H2  UNL     1     -12.326  15.266  68.013  1.00  0.00     0.000 HD 
ENDBRANCH   9  22
ENDBRANCH   8   9
ENDBRANCH   7   8
ENDBRANCH   6   7
ENDBRANCH   4   6
ENDBRANCH   2   4
TORSDOF 6
ENDMDL
MODEL       60
REMARK 921   NORMALIZED FREE ENERGY PREDICTED BY IDOCK:   -5.06 KCAL/MOL
REMARK 922        TOTAL FREE ENERGY PREDICTED BY IDOCK:   -7.84 KCAL/MOL
REMARK 923 INTER-LIGAND FREE ENERGY PREDICTED BY IDOCK:   -7.26 KCAL/MOL
REMARK 924 INTRA-LIGAND FREE ENERGY PREDICTED BY IDOCK:   -0.58 KCAL/MOL
REMARK 927      BINDING AFFINITY PREDICTED BY RF-SCORE:    0.00 PKD
ROOT
HETATM    1  C   UNL     1     -11.691   6.938  70.650  1.00  0.00    -0.417 C  
HETATM    2  C   UNL     1     -11.823   8.273  71.385  1.00  0.00    -0.293 C  
HETATM    3  C   UNL     1     -10.549   8.556  72.182  1.00  0.00    -0.419 C  
ENDROOT
BRANCH   2   4
HETATM    4  N   UNL     1     -12.091   9.298  70.373  1.00  0.00    -0.468 NA 
HETATM    5  H   UNL     1     -12.759   8.955  69.683  1.00  0.00     0.000 HD 
BRANCH   4   6
HETATM    6  C   UNL     1     -12.536  10.574  70.926  1.00  0.00    -0.398 C  
BRANCH   6   7
HETATM    7  C   UNL     1     -12.282  11.706  69.930  1.00  0.00    -0.310 C  
BRANCH   7   8
HETATM    8  C   UNL     1     -11.811  11.223  68.543  1.00  0.00    -0.355 C  
BRANCH   8   9
HETATM    9  C   UNL     1     -10.540  11.929  68.003  1.00  0.00    -0.234 C  
HETATM   10  C   UNL     1     -10.674  13.454  68.135  1.00  0.00    -0.267 A  
HETATM   11  C   UNL     1     -10.427  11.766  66.482  1.00  0.00    -0.265 A  
HETATM   12  C   UNL     1     -10.266  10.595  65.753  1.00  0.00    -0.317 A  
HETATM   13  C   UNL     1     -10.810  14.207  69.294  1.00  0.00    -0.219 A  
HETATM   14  C   UNL     1     -10.286  10.681  64.362  1.00  0.00    -0.400 A  
HETATM   15  C   UNL     1     -10.468  11.920  63.724  1.00  0.00    -0.468 A  
HETATM   16  C   UNL     1     -10.616  13.098  64.465  1.00  0.00    -0.425 A  
HETATM   17  C   UNL     1     -11.010  15.580  69.163  1.00  0.00    -0.259 A  
HETATM   18  C   UNL     1     -11.075  16.177  67.893  1.00  0.00    -0.293 A  
HETATM   19  C   UNL     1     -10.932  15.413  66.729  1.00  0.00    -0.282 A  
HETATM   20  C   UNL     1     -10.729  14.048  66.855  1.00  0.00    -0.285 A  
HETATM   21  C   UNL     1     -10.583  13.018  65.845  1.00  0.00    -0.288 A  
BRANCH   9  22
HETATM   22  C   UNL     1      -9.281  11.409  68.729  1.00  0.00    -0.100 C  
HETATM   23  H1  UNL     1      -7.327  11.842  69.132  1.00  0.00     0.000 HD 
HETATM   24  N   UNL     1      -8.159  12.186  68.653  1.00  0.00    -0.297 N  
HETATM   25  O   UNL     1      -9.236  10.351  69.354  1.00  0.00    -0.201 OA 
HETATM   26  H2  UNL     1      -8.154  13.069  68.140  1.00  0.00     0.000 HD 
ENDBRANCH   9  22
ENDBRANCH   8   9
ENDBRANCH   7   8
ENDBRANCH   6   7
ENDBRANCH   4   6
ENDBRANCH   2   4
TORSDOF 6
ENDMDL
MODEL       61
REMARK 921   NORMALIZED FREE ENERGY PREDICTED BY IDOCK:   -5.06 KCAL/MOL
REMARK 922        TOTAL FREE ENERGY PREDICTED BY IDOCK:   -7.84 KCAL/MOL
REMARK 923 INTER-LIGAND FREE ENERGY PREDICTED BY IDOCK:   -6.81 KCAL/MOL
REMARK 924 INTRA-LIGAND FREE ENERGY PREDICTED BY IDOCK:   -1.03 KCAL/MOL
REMARK 927      BINDING AFFINITY PREDICTED BY RF-SCORE:    0.00 PKD
ROOT
HETATM    1  C   UNL     1     -10.280   5.110  66.218  1.00  0.00    -0.289 C  
HETATM    2  C   UNL     1      -9.439   6.157  66.951  1.00  0.00    -0.136 C  
HETATM    3  C   UNL     1      -9.755   7.551  66.409  1.00  0.00    -0.180 C  
ENDROOT
BRANCH   2   4
HETATM    4  N   UNL     1      -9.741   6.028  68.380  1.00  0.00    -0.122 NA 
HETATM    5  H   UNL     1      -9.162   6.666  68.927  1.00  0.00     0.000 HD 
BRANCH   4   6
HETATM    6  C   UNL     1     -11.152   6.209  68.707  1.00  0.00    -0.319 C  
BRANCH   6   7
HETATM    7  C   UNL     1     -11.344   6.286  70.222  1.00  0.00    -0.457 C  
BRANCH   7   8
HETATM    8  C   UNL     1     -12.348   7.368  70.670  1.00  0.00    -0.081 C  
BRANCH   8   9
HETATM    9  C   UNL     1     -11.713   8.592  71.380  1.00  0.00    -0.355 C  
HETATM   10  C   UNL     1     -10.901   9.432  70.383  1.00  0.00    -0.321 A  
HETATM   11  C   UNL     1     -10.621   8.150  72.363  1.00  0.00    -0.393 A  
HETATM   12  C   UNL     1     -10.757   7.370  73.504  1.00  0.00    -0.347 A  
HETATM   13  C   UNL     1     -11.357  10.104  69.256  1.00  0.00    -0.211 A  
HETATM   14  C   UNL     1      -9.599   7.013  74.194  1.00  0.00    -0.298 A  
HETATM   15  C   UNL     1      -8.337   7.429  73.739  1.00  0.00    -0.196 A  
HETATM   16  C   UNL     1      -8.209   8.226  72.595  1.00  0.00    -0.223 A  
HETATM   17  C   UNL     1     -10.414  10.730  68.441  1.00  0.00    -0.207 A  
HETATM   18  C   UNL     1      -9.046  10.676  68.755  1.00  0.00    -0.170 A  
HETATM   19  C   UNL     1      -8.595  10.001  69.896  1.00  0.00    -0.171 A  
HETATM   20  C   UNL     1      -9.529   9.380  70.710  1.00  0.00    -0.307 A  
HETATM   21  C   UNL     1      -9.356   8.593  71.916  1.00  0.00    -0.357 A  
BRANCH   9  22
HETATM   22  C   UNL     1     -12.800   9.439  72.077  1.00  0.00    -0.414 C  
HETATM   23  H1  UNL     1     -14.510   9.317  73.184  1.00  0.00     0.000 HD 
HETATM   24  N   UNL     1     -13.792   8.757  72.724  1.00  0.00    -0.831 N  
HETATM   25  O   UNL     1     -12.820  10.668  72.074  1.00  0.00    -0.422 OA 
HETATM   26  H2  UNL     1     -13.814   7.737  72.746  1.00  0.00     0.000 HD 
ENDBRANCH   9  22
ENDBRANCH   8   9
ENDBRANCH   7   8
ENDBRANCH   6   7
ENDBRANCH   4   6
ENDBRANCH   2   4
TORSDOF 6
ENDMDL
MODEL       62
REMARK 921   NORMALIZED FREE ENERGY PREDICTED BY IDOCK:   -5.05 KCAL/MOL
REMARK 922        TOTAL FREE ENERGY PREDICTED BY IDOCK:   -7.83 KCAL/MOL
REMARK 923 INTER-LIGAND FREE ENERGY PREDICTED BY IDOCK:   -6.30 KCAL/MOL
REMARK 924 INTRA-LIGAND FREE ENERGY PREDICTED BY IDOCK:   -1.53 KCAL/MOL
REMARK 927      BINDING AFFINITY PREDICTED BY RF-SCORE:    0.00 PKD
ROOT
HETATM    1  C   UNL     1      -8.904   7.215  74.351  1.00  0.00    -0.238 C  
HETATM    2  C   UNL     1      -7.489   7.341  73.785  1.00  0.00    -0.101 C  
HETATM    3  C   UNL     1      -7.169   6.130  72.908  1.00  0.00    -0.092 C  
ENDROOT
BRANCH   2   4
HETATM    4  N   UNL     1      -7.432   8.603  73.042  1.00  0.00    -0.362 NA 
HETATM    5  H   UNL     1      -6.744   9.232  73.457  1.00  0.00     0.000 HD 
BRANCH   4   6
HETATM    6  C   UNL     1      -7.181   8.439  71.613  1.00  0.00    -0.091 C  
BRANCH   6   7
HETATM    7  C   UNL     1      -8.284   9.112  70.796  1.00  0.00    -0.226 C  
BRANCH   7   8
HETATM    8  C   UNL     1      -8.608   8.392  69.472  1.00  0.00    -0.129 C  
BRANCH   8   9
HETATM    9  C   UNL     1     -10.059   7.854  69.360  1.00  0.00    -0.196 C  
HETATM   10  C   UNL     1     -11.051   8.846  69.986  1.00  0.00    -0.180 A  
HETATM   11  C   UNL     1     -10.257   6.623  70.254  1.00  0.00    -0.215 A  
HETATM   12  C   UNL     1      -9.633   5.386  70.163  1.00  0.00    -0.235 A  
HETATM   13  C   UNL     1     -11.321  10.151  69.597  1.00  0.00    -0.289 A  
HETATM   14  C   UNL     1      -9.902   4.442  71.153  1.00  0.00    -0.258 A  
HETATM   15  C   UNL     1     -10.776   4.743  72.211  1.00  0.00    -0.185 A  
HETATM   16  C   UNL     1     -11.412   5.988  72.289  1.00  0.00    -0.364 A  
HETATM   17  C   UNL     1     -12.200  10.899  70.379  1.00  0.00    -0.453 A  
HETATM   18  C   UNL     1     -12.789  10.343  71.527  1.00  0.00    -0.569 A  
HETATM   19  C   UNL     1     -12.516   9.025  71.910  1.00  0.00    -0.454 A  
HETATM   20  C   UNL     1     -11.645   8.277  71.134  1.00  0.00    -0.310 A  
HETATM   21  C   UNL     1     -11.157   6.922  71.301  1.00  0.00    -0.293 A  
BRANCH   9  22
HETATM   22  C   UNL     1     -10.414   7.554  67.888  1.00  0.00    -0.204 C  
HETATM   23  H1  UNL     1     -11.724   6.543  66.693  1.00  0.00     0.000 HD 
HETATM   24  N   UNL     1     -11.489   6.740  67.666  1.00  0.00    -0.653 N  
HETATM   25  O   UNL     1      -9.789   7.998  66.927  1.00  0.00    -0.203 OA 
HETATM   26  H2  UNL     1     -12.031   6.348  68.437  1.00  0.00     0.000 HD 
ENDBRANCH   9  22
ENDBRANCH   8   9
ENDBRANCH   7   8
ENDBRANCH   6   7
ENDBRANCH   4   6
ENDBRANCH   2   4
TORSDOF 6
ENDMDL
MODEL       63
REMARK 921   NORMALIZED FREE ENERGY PREDICTED BY IDOCK:   -5.05 KCAL/MOL
REMARK 922        TOTAL FREE ENERGY PREDICTED BY IDOCK:   -7.82 KCAL/MOL
REMARK 923 INTER-LIGAND FREE ENERGY PREDICTED BY IDOCK:   -6.27 KCAL/MOL
REMARK 924 INTRA-LIGAND FREE ENERGY PREDICTED BY IDOCK:   -1.56 KCAL/MOL
REMARK 927      BINDING AFFINITY PREDICTED BY RF-SCORE:    0.00 PKD
ROOT
HETATM    1  C   UNL     1      -9.341  12.515  66.991  1.00  0.00    -0.210 C  
HETATM    2  C   UNL     1     -10.513  12.537  66.008  1.00  0.00    -0.258 C  
HETATM    3  C   UNL     1     -11.791  12.964  66.731  1.00  0.00    -0.452 C  
ENDROOT
BRANCH   2   4
HETATM    4  N   UNL     1     -10.149  13.453  64.923  1.00  0.00    -0.559 NA 
HETATM    5  H   UNL     1     -10.359  13.036  64.016  1.00  0.00     0.000 HD 
BRANCH   4   6
HETATM    6  C   UNL     1     -10.759  14.774  65.032  1.00  0.00    -0.433 C  
BRANCH   6   7
HETATM    7  C   UNL     1      -9.725  15.805  65.486  1.00  0.00    -0.255 C  
BRANCH   7   8
HETATM    8  C   UNL     1     -10.321  17.193  65.796  1.00  0.00    -0.253 C  
BRANCH   8   9
HETATM    9  C   UNL     1     -10.013  17.734  67.216  1.00  0.00    -0.324 C  
HETATM   10  C   UNL     1      -8.503  17.683  67.496  1.00  0.00    -0.220 A  
HETATM   11  C   UNL     1     -10.553  16.784  68.293  1.00  0.00    -0.352 A  
HETATM   12  C   UNL     1     -11.873  16.437  68.549  1.00  0.00     0.176 A  
HETATM   13  C   UNL     1      -7.484  18.352  66.832  1.00  0.00    -0.232 A  
HETATM   14  C   UNL     1     -12.119  15.472  69.524  1.00  0.00    -0.326 A  
HETATM   15  C   UNL     1     -11.057  14.868  70.218  1.00  0.00    -0.228 A  
HETATM   16  C   UNL     1      -9.730  15.232  69.964  1.00  0.00    -0.010 A  
HETATM   17  C   UNL     1      -6.169  18.077  67.205  1.00  0.00    -0.177 A  
HETATM   18  C   UNL     1      -5.891  17.147  68.220  1.00  0.00    -0.135 A  
HETATM   19  C   UNL     1      -6.924  16.479  68.888  1.00  0.00    -0.191 A  
HETATM   20  C   UNL     1      -8.233  16.753  68.524  1.00  0.00    -0.242 A  
HETATM   21  C   UNL     1      -9.483  16.200  69.007  1.00  0.00    -0.246 A  
BRANCH   9  22
HETATM   22  C   UNL     1     -10.569  19.164  67.385  1.00  0.00    -0.481 C  
HETATM   23  H1  UNL     1     -10.909  20.637  68.756  1.00  0.00     0.000 HD 
HETATM   24  N   UNL     1     -10.541  19.693  68.645  1.00  0.00    -0.457 N  
HETATM   25  O   UNL     1     -11.031  19.834  66.463  1.00  0.00    -0.399 OA 
HETATM   26  H2  UNL     1     -10.170  19.167  69.437  1.00  0.00     0.000 HD 
ENDBRANCH   9  22
ENDBRANCH   8   9
ENDBRANCH   7   8
ENDBRANCH   6   7
ENDBRANCH   4   6
ENDBRANCH   2   4
TORSDOF 6
ENDMDL
MODEL       64
REMARK 921   NORMALIZED FREE ENERGY PREDICTED BY IDOCK:   -5.04 KCAL/MOL
REMARK 922        TOTAL FREE ENERGY PREDICTED BY IDOCK:   -7.82 KCAL/MOL
REMARK 923 INTER-LIGAND FREE ENERGY PREDICTED BY IDOCK:   -7.04 KCAL/MOL
REMARK 924 INTRA-LIGAND FREE ENERGY PREDICTED BY IDOCK:   -0.78 KCAL/MOL
REMARK 927      BINDING AFFINITY PREDICTED BY RF-SCORE:    0.00 PKD
ROOT
HETATM    1  C   UNL     1     -10.749  13.756  64.809  1.00  0.00    -0.429 C  
HETATM    2  C   UNL     1     -12.092  13.030  64.900  1.00  0.00    -0.413 C  
HETATM    3  C   UNL     1     -12.236  12.054  63.731  1.00  0.00    -0.600 C  
ENDROOT
BRANCH   2   4
HETATM    4  N   UNL     1     -12.132  12.357  66.201  1.00  0.00    -0.641 NA 
HETATM    5  H   UNL     1     -13.023  11.877  66.330  1.00  0.00     0.000 HD 
BRANCH   4   6
HETATM    6  C   UNL     1     -11.019  11.441  66.429  1.00  0.00    -0.260 C  
BRANCH   6   7
HETATM    7  C   UNL     1     -11.244  10.635  67.709  1.00  0.00    -0.383 C  
BRANCH   7   8
HETATM    8  C   UNL     1     -10.179  10.881  68.798  1.00  0.00    -0.210 C  
BRANCH   8   9
HETATM    9  C   UNL     1      -9.505   9.599  69.353  1.00  0.00    -0.201 C  
HETATM   10  C   UNL     1      -9.309   8.565  68.233  1.00  0.00    -0.143 A  
HETATM   11  C   UNL     1     -10.452   8.846  70.296  1.00  0.00    -0.239 A  
HETATM   12  C   UNL     1     -10.976   9.275  71.508  1.00  0.00    -0.446 A  
HETATM   13  C   UNL     1      -8.539   8.681  67.083  1.00  0.00    -0.123 A  
HETATM   14  C   UNL     1     -11.901   8.452  72.150  1.00  0.00    -0.441 A  
HETATM   15  C   UNL     1     -12.290   7.230  71.577  1.00  0.00    -0.397 A  
HETATM   16  C   UNL     1     -11.747   6.798  70.360  1.00  0.00    -0.418 A  
HETATM   17  C   UNL     1      -8.587   7.642  66.155  1.00  0.00    -0.160 A  
HETATM   18  C   UNL     1      -9.395   6.515  66.382  1.00  0.00    -0.175 A  
HETATM   19  C   UNL     1     -10.165   6.404  67.546  1.00  0.00    -0.211 A  
HETATM   20  C   UNL     1     -10.117   7.433  68.472  1.00  0.00    -0.187 A  
HETATM   21  C   UNL     1     -10.820   7.606  69.729  1.00  0.00    -0.222 A  
BRANCH   9  22
HETATM   22  C   UNL     1      -8.168   9.944  70.041  1.00  0.00    -0.168 C  
HETATM   23  H1  UNL     1      -6.621  11.276  70.039  1.00  0.00     0.000 HD 
HETATM   24  N   UNL     1      -7.504  11.048  69.583  1.00  0.00    -0.352 N  
HETATM   25  O   UNL     1      -7.677   9.287  70.958  1.00  0.00    -0.223 OA 
HETATM   26  H2  UNL     1      -7.875  11.617  68.822  1.00  0.00     0.000 HD 
ENDBRANCH   9  22
ENDBRANCH   8   9
ENDBRANCH   7   8
ENDBRANCH   6   7
ENDBRANCH   4   6
ENDBRANCH   2   4
TORSDOF 6
ENDMDL
MODEL       65
REMARK 921   NORMALIZED FREE ENERGY PREDICTED BY IDOCK:   -5.01 KCAL/MOL
REMARK 922        TOTAL FREE ENERGY PREDICTED BY IDOCK:   -7.78 KCAL/MOL
REMARK 923 INTER-LIGAND FREE ENERGY PREDICTED BY IDOCK:   -7.59 KCAL/MOL
REMARK 924 INTRA-LIGAND FREE ENERGY PREDICTED BY IDOCK:   -0.19 KCAL/MOL
REMARK 927      BINDING AFFINITY PREDICTED BY RF-SCORE:    0.00 PKD
ROOT
HETATM    1  C   UNL     1     -12.274  14.130  64.039  1.00  0.00    -0.369 C  
HETATM    2  C   UNL     1     -12.211  12.618  64.260  1.00  0.00    -0.445 C  
HETATM    3  C   UNL     1     -10.909  12.062  63.682  1.00  0.00    -0.510 C  
ENDROOT
BRANCH   2   4
HETATM    4  N   UNL     1     -12.328  12.387  65.702  1.00  0.00    -0.621 NA 
HETATM    5  H   UNL     1     -13.079  11.725  65.900  1.00  0.00     0.000 HD 
BRANCH   4   6
HETATM    6  C   UNL     1     -11.086  11.957  66.337  1.00  0.00    -0.309 C  
BRANCH   6   7
HETATM    7  C   UNL     1     -11.377  11.273  67.673  1.00  0.00    -0.352 C  
BRANCH   7   8
HETATM    8  C   UNL     1     -10.878   9.816  67.750  1.00  0.00    -0.306 C  
BRANCH   8   9
HETATM    9  C   UNL     1     -10.291   9.399  69.124  1.00  0.00    -0.221 C  
HETATM   10  C   UNL     1     -10.120   7.874  69.196  1.00  0.00    -0.197 A  
HETATM   11  C   UNL     1     -11.305   9.643  70.250  1.00  0.00    -0.311 A  
HETATM   12  C   UNL     1     -11.839  10.851  70.678  1.00  0.00    -0.453 A  
HETATM   13  C   UNL     1      -9.312   7.063  68.410  1.00  0.00    -0.130 A  
HETATM   14  C   UNL     1     -12.825  10.819  71.662  1.00  0.00    -0.562 A  
HETATM   15  C   UNL     1     -13.264   9.596  72.196  1.00  0.00    -0.535 A  
HETATM   16  C   UNL     1     -12.711   8.382  71.770  1.00  0.00    -0.373 A  
HETATM   17  C   UNL     1      -9.390   5.683  68.596  1.00  0.00    -0.142 A  
HETATM   18  C   UNL     1     -10.265   5.137  69.550  1.00  0.00    -0.318 A  
HETATM   19  C   UNL     1     -11.073   5.962  70.342  1.00  0.00    -0.353 A  
HETATM   20  C   UNL     1     -10.996   7.333  70.163  1.00  0.00    -0.280 A  
HETATM   21  C   UNL     1     -11.723   8.412  70.803  1.00  0.00    -0.219 A  
BRANCH   9  22
HETATM   22  C   UNL     1      -8.957  10.129  69.388  1.00  0.00    -0.191 C  
HETATM   23  H1  UNL     1      -7.425  10.307  70.725  1.00  0.00     0.000 HD 
HETATM   24  N   UNL     1      -8.307   9.825  70.551  1.00  0.00    -0.248 N  
HETATM   25  O   UNL     1      -8.464  10.956  68.624  1.00  0.00    -0.138 OA 
HETATM   26  H2  UNL     1      -8.685   9.147  71.214  1.00  0.00     0.000 HD 
ENDBRANCH   9  22
ENDBRANCH   8   9
ENDBRANCH   7   8
ENDBRANCH   6   7
ENDBRANCH   4   6
ENDBRANCH   2   4
TORSDOF 6
ENDMDL
MODEL       66
REMARK 921   NORMALIZED FREE ENERGY PREDICTED BY IDOCK:   -5.00 KCAL/MOL
REMARK 922        TOTAL FREE ENERGY PREDICTED BY IDOCK:   -7.76 KCAL/MOL
REMARK 923 INTER-LIGAND FREE ENERGY PREDICTED BY IDOCK:   -6.40 KCAL/MOL
REMARK 924 INTRA-LIGAND FREE ENERGY PREDICTED BY IDOCK:   -1.36 KCAL/MOL
REMARK 927      BINDING AFFINITY PREDICTED BY RF-SCORE:    0.00 PKD
ROOT
HETATM    1  C   UNL     1     -12.761  12.030  63.336  1.00  0.00    -0.527 C  
HETATM    2  C   UNL     1     -11.919  13.167  63.917  1.00  0.00    -0.488 C  
HETATM    3  C   UNL     1     -12.590  13.722  65.174  1.00  0.00    -0.471 C  
ENDROOT
BRANCH   2   4
HETATM    4  N   UNL     1     -10.586  12.623  64.187  1.00  0.00    -0.382 NA 
HETATM    5  H   UNL     1     -10.172  13.073  65.003  1.00  0.00     0.000 HD 
BRANCH   4   6
HETATM    6  C   UNL     1     -10.556  11.171  64.333  1.00  0.00    -0.343 C  
BRANCH   6   7
HETATM    7  C   UNL     1     -10.146  10.785  65.755  1.00  0.00    -0.320 C  
BRANCH   7   8
HETATM    8  C   UNL     1      -8.839  11.451  66.231  1.00  0.00    -0.196 C  
BRANCH   8   9
HETATM    9  C   UNL     1      -8.783  11.767  67.748  1.00  0.00    -0.155 C  
HETATM   10  C   UNL     1      -9.304  10.575  68.566  1.00  0.00    -0.168 A  
HETATM   11  C   UNL     1      -9.798  12.856  68.119  1.00  0.00    -0.227 A  
HETATM   12  C   UNL     1      -9.835  14.177  67.694  1.00  0.00    -0.229 A  
HETATM   13  C   UNL     1      -8.782   9.290  68.638  1.00  0.00    -0.132 A  
HETATM   14  C   UNL     1     -10.916  14.962  68.090  1.00  0.00    -0.276 A  
HETATM   15  C   UNL     1     -11.938  14.423  68.890  1.00  0.00    -0.337 A  
HETATM   16  C   UNL     1     -11.887  13.094  69.326  1.00  0.00    -0.377 A  
HETATM   17  C   UNL     1      -9.483   8.340  69.380  1.00  0.00    -0.159 A  
HETATM   18  C   UNL     1     -10.681   8.679  70.029  1.00  0.00    -0.233 A  
HETATM   19  C   UNL     1     -11.198   9.978  69.956  1.00  0.00    -0.345 A  
HETATM   20  C   UNL     1     -10.503  10.926  69.223  1.00  0.00    -0.230 A  
HETATM   21  C   UNL     1     -10.808  12.316  68.946  1.00  0.00    -0.238 A  
BRANCH   9  22
HETATM   22  C   UNL     1      -7.349  12.156  68.168  1.00  0.00    -0.103 C  
HETATM   23  H1  UNL     1      -6.162  12.529  69.786  1.00  0.00     0.000 HD 
HETATM   24  N   UNL     1      -7.109  12.272  69.508  1.00  0.00    -0.335 N  
HETATM   25  O   UNL     1      -6.434  12.366  67.374  1.00  0.00    -0.132 OA 
HETATM   26  H2  UNL     1      -7.842  12.110  70.199  1.00  0.00     0.000 HD 
ENDBRANCH   9  22
ENDBRANCH   8   9
ENDBRANCH   7   8
ENDBRANCH   6   7
ENDBRANCH   4   6
ENDBRANCH   2   4
TORSDOF 6
ENDMDL
MODEL       67
REMARK 921   NORMALIZED FREE ENERGY PREDICTED BY IDOCK:   -4.98 KCAL/MOL
REMARK 922        TOTAL FREE ENERGY PREDICTED BY IDOCK:   -7.73 KCAL/MOL
REMARK 923 INTER-LIGAND FREE ENERGY PREDICTED BY IDOCK:   -7.73 KCAL/MOL
REMARK 924 INTRA-LIGAND FREE ENERGY PREDICTED BY IDOCK:   -0.00 KCAL/MOL
REMARK 927      BINDING AFFINITY PREDICTED BY RF-SCORE:    0.00 PKD
ROOT
HETATM    1  C   UNL     1     -12.186  15.834  72.259  1.00  0.00    -0.555 C  
HETATM    2  C   UNL     1     -12.878  14.652  71.576  1.00  0.00    -0.333 C  
HETATM    3  C   UNL     1     -14.394  14.848  71.607  1.00  0.00    -0.660 C  
ENDROOT
BRANCH   2   4
HETATM    4  N   UNL     1     -12.350  14.574  70.211  1.00  0.00    -0.333 NA 
HETATM    5  H   UNL     1     -13.111  14.577  69.532  1.00  0.00     0.000 HD 
BRANCH   4   6
HETATM    6  C   UNL     1     -11.374  15.611  69.892  1.00  0.00    -0.337 C  
BRANCH   6   7
HETATM    7  C   UNL     1     -11.658  16.207  68.513  1.00  0.00    -0.265 C  
BRANCH   7   8
HETATM    8  C   UNL     1     -11.543  15.192  67.358  1.00  0.00    -0.251 C  
BRANCH   8   9
HETATM    9  C   UNL     1     -10.336  15.416  66.410  1.00  0.00    -0.303 C  
HETATM   10  C   UNL     1      -9.098  14.668  66.929  1.00  0.00    -0.272 A  
HETATM   11  C   UNL     1      -9.857  16.872  66.468  1.00  0.00    -0.307 A  
HETATM   12  C   UNL     1     -10.549  18.019  66.101  1.00  0.00    -0.269 A  
HETATM   13  C   UNL     1      -8.930  13.301  67.101  1.00  0.00    -0.229 A  
HETATM   14  C   UNL     1      -9.942  19.252  66.334  1.00  0.00    -0.479 A  
HETATM   15  C   UNL     1      -8.671  19.324  66.928  1.00  0.00    -0.323 A  
HETATM   16  C   UNL     1      -7.974  18.162  67.283  1.00  0.00    -0.227 A  
HETATM   17  C   UNL     1      -7.743  12.854  67.679  1.00  0.00    -0.162 A  
HETATM   18  C   UNL     1      -6.751  13.767  68.076  1.00  0.00    -0.140 A  
HETATM   19  C   UNL     1      -6.926  15.144  67.894  1.00  0.00    -0.167 A  
HETATM   20  C   UNL     1      -8.103  15.592  67.317  1.00  0.00    -0.226 A  
HETATM   21  C   UNL     1      -8.567  16.937  67.041  1.00  0.00    -0.229 A  
BRANCH   9  22
HETATM   22  C   UNL     1     -10.691  14.987  64.970  1.00  0.00    -0.427 C  
HETATM   23  H1  UNL     1     -11.594  15.615  63.251  1.00  0.00     0.000 HD 
HETATM   24  N   UNL     1     -11.360  15.898  64.202  1.00  0.00    -0.805 N  
HETATM   25  O   UNL     1     -10.412  13.889  64.492  1.00  0.00    -0.431 OA 
HETATM   26  H2  UNL     1     -11.613  16.819  64.563  1.00  0.00     0.000 HD 
ENDBRANCH   9  22
ENDBRANCH   8   9
ENDBRANCH   7   8
ENDBRANCH   6   7
ENDBRANCH   4   6
ENDBRANCH   2   4
TORSDOF 6
ENDMDL
MODEL       68
REMARK 921   NORMALIZED FREE ENERGY PREDICTED BY IDOCK:   -4.97 KCAL/MOL
REMARK 922        TOTAL FREE ENERGY PREDICTED BY IDOCK:   -7.72 KCAL/MOL
REMARK 923 INTER-LIGAND FREE ENERGY PREDICTED BY IDOCK:   -6.61 KCAL/MOL
REMARK 924 INTRA-LIGAND FREE ENERGY PREDICTED BY IDOCK:   -1.11 KCAL/MOL
REMARK 927      BINDING AFFINITY PREDICTED BY RF-SCORE:    0.00 PKD
ROOT
HETATM    1  C   UNL     1     -10.677  18.589  67.920  1.00  0.00    -0.337 C  
HETATM    2  C   UNL     1     -10.600  19.203  66.521  1.00  0.00    -0.435 C  
HETATM    3  C   UNL     1      -9.373  20.110  66.418  1.00  0.00    -0.446 C  
ENDROOT
BRANCH   2   4
HETATM    4  N   UNL     1     -10.560  18.094  65.564  1.00  0.00    -0.590 NA 
HETATM    5  H   UNL     1     -10.335  18.434  64.630  1.00  0.00     0.000 HD 
BRANCH   4   6
HETATM    6  C   UNL     1      -9.657  17.013  65.947  1.00  0.00    -0.112 C  
BRANCH   6   7
HETATM    7  C   UNL     1     -10.314  15.654  65.700  1.00  0.00    -0.408 C  
BRANCH   7   8
HETATM    8  C   UNL     1     -11.264  15.206  66.829  1.00  0.00    -0.285 C  
BRANCH   8   9
HETATM    9  C   UNL     1     -10.804  13.945  67.607  1.00  0.00    -0.264 C  
HETATM   10  C   UNL     1      -9.395  14.152  68.182  1.00  0.00    -0.206 A  
HETATM   11  C   UNL     1     -10.572  12.767  66.652  1.00  0.00    -0.272 A  
HETATM   12  C   UNL     1     -11.499  12.116  65.850  1.00  0.00    -0.418 A  
HETATM   13  C   UNL     1      -8.978  15.093  69.115  1.00  0.00    -0.219 A  
HETATM   14  C   UNL     1     -11.035  11.126  64.985  1.00  0.00    -0.174 A  
HETATM   15  C   UNL     1      -9.667  10.808  64.928  1.00  0.00    -0.330 A  
HETATM   16  C   UNL     1      -8.740  11.459  65.750  1.00  0.00    -0.062 A  
HETATM   17  C   UNL     1      -7.619  15.154  69.421  1.00  0.00    -0.210 A  
HETATM   18  C   UNL     1      -6.704  14.290  68.797  1.00  0.00    -0.095 A  
HETATM   19  C   UNL     1      -7.133  13.341  67.861  1.00  0.00    -0.133 A  
HETATM   20  C   UNL     1      -8.483  13.274  67.557  1.00  0.00    -0.202 A  
HETATM   21  C   UNL     1      -9.199  12.432  66.619  1.00  0.00    -0.218 A  
BRANCH   9  22
HETATM   22  C   UNL     1     -11.819  13.591  68.715  1.00  0.00    -0.355 C  
HETATM   23  H1  UNL     1     -13.330  14.354  69.856  1.00  0.00     0.000 HD 
HETATM   24  N   UNL     1     -12.659  14.589  69.124  1.00  0.00    -0.538 N  
HETATM   25  O   UNL     1     -11.904  12.483  69.240  1.00  0.00    -0.304 OA 
HETATM   26  H2  UNL     1     -12.618  15.523  68.716  1.00  0.00     0.000 HD 
ENDBRANCH   9  22
ENDBRANCH   8   9
ENDBRANCH   7   8
ENDBRANCH   6   7
ENDBRANCH   4   6
ENDBRANCH   2   4
TORSDOF 6
ENDMDL
MODEL       69
REMARK 921   NORMALIZED FREE ENERGY PREDICTED BY IDOCK:   -4.97 KCAL/MOL
REMARK 922        TOTAL FREE ENERGY PREDICTED BY IDOCK:   -7.72 KCAL/MOL
REMARK 923 INTER-LIGAND FREE ENERGY PREDICTED BY IDOCK:   -7.16 KCAL/MOL
REMARK 924 INTRA-LIGAND FREE ENERGY PREDICTED BY IDOCK:   -0.56 KCAL/MOL
REMARK 927      BINDING AFFINITY PREDICTED BY RF-SCORE:    0.00 PKD
ROOT
HETATM    1  C   UNL     1     -10.473   8.774  67.153  1.00  0.00    -0.354 C  
HETATM    2  C   UNL     1      -9.217   9.257  66.427  1.00  0.00    -0.180 C  
HETATM    3  C   UNL     1      -9.588   9.785  65.041  1.00  0.00    -0.333 C  
ENDROOT
BRANCH   2   4
HETATM    4  N   UNL     1      -8.597  10.282  67.271  1.00  0.00    -0.125 NA 
HETATM    5  H   UNL     1      -7.804   9.894  67.781  1.00  0.00     0.000 HD 
BRANCH   4   6
HETATM    6  C   UNL     1      -8.202  11.487  66.547  1.00  0.00    -0.129 C  
BRANCH   6   7
HETATM    7  C   UNL     1      -8.527  12.735  67.369  1.00  0.00    -0.191 C  
BRANCH   7   8
HETATM    8  C   UNL     1      -9.771  12.584  68.268  1.00  0.00    -0.220 C  
BRANCH   8   9
HETATM    9  C   UNL     1     -10.873  13.652  68.040  1.00  0.00    -0.261 C  
HETATM   10  C   UNL     1     -10.249  14.980  67.584  1.00  0.00    -0.236 A  
HETATM   11  C   UNL     1     -11.521  14.062  69.369  1.00  0.00    -0.343 A  
HETATM   12  C   UNL     1     -12.256  13.275  70.245  1.00  0.00    -0.391 A  
HETATM   13  C   UNL     1      -9.521  15.235  66.429  1.00  0.00    -0.326 A  
HETATM   14  C   UNL     1     -12.668  13.845  71.449  1.00  0.00    -0.445 A  
HETATM   15  C   UNL     1     -12.339  15.174  71.761  1.00  0.00    -0.424 A  
HETATM   16  C   UNL     1     -11.609  15.966  70.867  1.00  0.00    -0.456 A  
HETATM   17  C   UNL     1      -8.970  16.506  66.271  1.00  0.00    -0.359 A  
HETATM   18  C   UNL     1      -9.147  17.493  67.254  1.00  0.00    -0.240 A  
HETATM   19  C   UNL     1      -9.886  17.229  68.413  1.00  0.00    -0.309 A  
HETATM   20  C   UNL     1     -10.439  15.969  68.574  1.00  0.00    -0.258 A  
HETATM   21  C   UNL     1     -11.211  15.408  69.666  1.00  0.00    -0.289 A  
BRANCH   9  22
HETATM   22  C   UNL     1     -11.920  13.144  67.026  1.00  0.00    -0.355 C  
HETATM   23  H1  UNL     1     -13.568  13.699  65.958  1.00  0.00     0.000 HD 
HETATM   24  N   UNL     1     -12.877  14.035  66.628  1.00  0.00    -0.316 N  
HETATM   25  O   UNL     1     -11.939  12.001  66.574  1.00  0.00    -0.616 OA 
HETATM   26  H2  UNL     1     -12.898  14.991  66.983  1.00  0.00     0.000 HD 
ENDBRANCH   9  22
ENDBRANCH   8   9
ENDBRANCH   7   8
ENDBRANCH   6   7
ENDBRANCH   4   6
ENDBRANCH   2   4
TORSDOF 6
ENDMDL
MODEL       70
REMARK 921   NORMALIZED FREE ENERGY PREDICTED BY IDOCK:   -4.96 KCAL/MOL
REMARK 922        TOTAL FREE ENERGY PREDICTED BY IDOCK:   -7.71 KCAL/MOL
REMARK 923 INTER-LIGAND FREE ENERGY PREDICTED BY IDOCK:   -6.68 KCAL/MOL
REMARK 924 INTRA-LIGAND FREE ENERGY PREDICTED BY IDOCK:   -1.03 KCAL/MOL
REMARK 927      BINDING AFFINITY PREDICTED BY RF-SCORE:    0.00 PKD
ROOT
HETATM    1  C   UNL     1     -10.360   7.991  66.881  1.00  0.00    -0.408 C  
HETATM    2  C   UNL     1      -9.741   8.935  67.914  1.00  0.00    -0.160 C  
HETATM    3  C   UNL     1      -9.048   8.125  69.009  1.00  0.00    -0.148 C  
ENDROOT
BRANCH   2   4
HETATM    4  N   UNL     1      -8.815   9.814  67.194  1.00  0.00    -0.132 NA 
HETATM    5  H   UNL     1      -8.330   9.300  66.459  1.00  0.00     0.000 HD 
BRANCH   4   6
HETATM    6  C   UNL     1      -9.439  11.017  66.652  1.00  0.00    -0.184 C  
BRANCH   6   7
HETATM    7  C   UNL     1      -9.075  12.237  67.498  1.00  0.00    -0.182 C  
BRANCH   7   8
HETATM    8  C   UNL     1     -10.129  12.592  68.567  1.00  0.00    -0.186 C  
BRANCH   8   9
HETATM    9  C   UNL     1     -10.796  13.981  68.390  1.00  0.00    -0.263 C  
HETATM   10  C   UNL     1     -11.420  14.104  66.992  1.00  0.00    -0.370 A  
HETATM   11  C   UNL     1      -9.741  15.094  68.351  1.00  0.00    -0.212 A  
HETATM   12  C   UNL     1      -8.861  15.480  69.353  1.00  0.00    -0.257 A  
HETATM   13  C   UNL     1     -12.446  13.348  66.440  1.00  0.00    -0.297 A  
HETATM   14  C   UNL     1      -7.918  16.462  69.054  1.00  0.00    -0.227 A  
HETATM   15  C   UNL     1      -7.863  17.035  67.772  1.00  0.00    -0.188 A  
HETATM   16  C   UNL     1      -8.763  16.651  66.771  1.00  0.00    -0.256 A  
HETATM   17  C   UNL     1     -12.786  13.580  65.108  1.00  0.00    -0.453 A  
HETATM   18  C   UNL     1     -12.105  14.549  64.352  1.00  0.00    -0.492 A  
HETATM   19  C   UNL     1     -11.075  15.310  64.917  1.00  0.00    -0.435 A  
HETATM   20  C   UNL     1     -10.736  15.086  66.241  1.00  0.00    -0.322 A  
HETATM   21  C   UNL     1      -9.708  15.687  67.068  1.00  0.00    -0.234 A  
BRANCH   9  22
HETATM   22  C   UNL     1     -11.843  14.225  69.498  1.00  0.00    -0.329 C  
HETATM   23  H1  UNL     1     -13.167  15.598  70.226  1.00  0.00     0.000 HD 
HETATM   24  N   UNL     1     -12.475  15.437  69.494  1.00  0.00    -0.603 N  
HETATM   25  O   UNL     1     -12.127  13.403  70.368  1.00  0.00    -0.340 OA 
HETATM   26  H2  UNL     1     -12.264  16.147  68.792  1.00  0.00     0.000 HD 
ENDBRANCH   9  22
ENDBRANCH   8   9
ENDBRANCH   7   8
ENDBRANCH   6   7
ENDBRANCH   4   6
ENDBRANCH   2   4
TORSDOF 6
ENDMDL
MODEL       71
REMARK 921   NORMALIZED FREE ENERGY PREDICTED BY IDOCK:   -4.96 KCAL/MOL
REMARK 922        TOTAL FREE ENERGY PREDICTED BY IDOCK:   -7.71 KCAL/MOL
REMARK 923 INTER-LIGAND FREE ENERGY PREDICTED BY IDOCK:   -6.69 KCAL/MOL
REMARK 924 INTRA-LIGAND FREE ENERGY PREDICTED BY IDOCK:   -1.02 KCAL/MOL
REMARK 927      BINDING AFFINITY PREDICTED BY RF-SCORE:    0.00 PKD
ROOT
HETATM    1  C   UNL     1      -7.372  16.674  66.371  1.00  0.00    -0.216 C  
HETATM    2  C   UNL     1      -6.455  16.033  67.414  1.00  0.00    -0.180 C  
HETATM    3  C   UNL     1      -7.013  16.274  68.817  1.00  0.00    -0.159 C  
ENDROOT
BRANCH   2   4
HETATM    4  N   UNL     1      -6.357  14.608  67.085  1.00  0.00    -0.274 NA 
HETATM    5  H   UNL     1      -5.380  14.320  67.028  1.00  0.00     0.000 HD 
BRANCH   4   6
HETATM    6  C   UNL     1      -7.095  13.738  67.995  1.00  0.00    -0.133 C  
BRANCH   6   7
HETATM    7  C   UNL     1      -8.320  13.148  67.295  1.00  0.00    -0.182 C  
BRANCH   7   8
HETATM    8  C   UNL     1      -9.562  13.031  68.202  1.00  0.00    -0.227 C  
BRANCH   8   9
HETATM    9  C   UNL     1     -10.632  12.019  67.716  1.00  0.00    -0.234 C  
HETATM   10  C   UNL     1      -9.965  10.722  67.231  1.00  0.00    -0.219 A  
HETATM   11  C   UNL     1     -11.308  12.512  66.430  1.00  0.00    -0.379 A  
HETATM   12  C   UNL     1     -12.085  13.648  66.250  1.00  0.00    -0.477 A  
HETATM   13  C   UNL     1      -9.199   9.825  67.963  1.00  0.00    -0.131 A  
HETATM   14  C   UNL     1     -12.518  13.947  64.959  1.00  0.00    -0.447 A  
HETATM   15  C   UNL     1     -12.167  13.121  63.877  1.00  0.00    -0.503 A  
HETATM   16  C   UNL     1     -11.394  11.970  64.069  1.00  0.00    -0.478 A  
HETATM   17  C   UNL     1      -8.614   8.757  67.283  1.00  0.00    -0.122 A  
HETATM   18  C   UNL     1      -8.797   8.601  65.899  1.00  0.00    -0.221 A  
HETATM   19  C   UNL     1      -9.575   9.508  65.169  1.00  0.00    -0.270 A  
HETATM   20  C   UNL     1     -10.161  10.569  65.841  1.00  0.00    -0.323 A  
HETATM   21  C   UNL     1     -10.975  11.663  65.350  1.00  0.00    -0.328 A  
BRANCH   9  22
HETATM   22  C   UNL     1     -11.661  11.740  68.832  1.00  0.00    -0.323 C  
HETATM   23  H1  UNL     1     -12.330  12.399  70.644  1.00  0.00     0.000 HD 
HETATM   24  N   UNL     1     -11.650  12.584  69.907  1.00  0.00    -0.496 N  
HETATM   25  O   UNL     1     -12.469  10.814  68.805  1.00  0.00    -0.366 OA 
HETATM   26  H2  UNL     1     -10.992  13.361  69.970  1.00  0.00     0.000 HD 
ENDBRANCH   9  22
ENDBRANCH   8   9
ENDBRANCH   7   8
ENDBRANCH   6   7
ENDBRANCH   4   6
ENDBRANCH   2   4
TORSDOF 6
ENDMDL
MODEL       72
REMARK 921   NORMALIZED FREE ENERGY PREDICTED BY IDOCK:   -4.94 KCAL/MOL
REMARK 922        TOTAL FREE ENERGY PREDICTED BY IDOCK:   -7.68 KCAL/MOL
REMARK 923 INTER-LIGAND FREE ENERGY PREDICTED BY IDOCK:   -6.97 KCAL/MOL
REMARK 924 INTRA-LIGAND FREE ENERGY PREDICTED BY IDOCK:   -0.71 KCAL/MOL
REMARK 927      BINDING AFFINITY PREDICTED BY RF-SCORE:    0.00 PKD
ROOT
HETATM    1  C   UNL     1      -5.944  17.314  69.444  1.00  0.00    -0.228 C  
HETATM    2  C   UNL     1      -6.843  16.613  68.424  1.00  0.00    -0.151 C  
HETATM    3  C   UNL     1      -6.609  17.203  67.032  1.00  0.00    -0.227 C  
ENDROOT
BRANCH   2   4
HETATM    4  N   UNL     1      -6.532  15.183  68.486  1.00  0.00    -0.090 NA 
HETATM    5  H   UNL     1      -5.799  15.004  69.172  1.00  0.00     0.000 HD 
BRANCH   4   6
HETATM    6  C   UNL     1      -7.692  14.335  68.744  1.00  0.00    -0.134 C  
BRANCH   6   7
HETATM    7  C   UNL     1      -8.464  14.076  67.450  1.00  0.00    -0.209 C  
BRANCH   7   8
HETATM    8  C   UNL     1      -9.741  13.233  67.642  1.00  0.00    -0.219 C  
BRANCH   8   9
HETATM    9  C   UNL     1     -11.066  14.039  67.612  1.00  0.00    -0.298 C  
HETATM   10  C   UNL     1     -10.798  15.501  67.225  1.00  0.00    -0.313 A  
HETATM   11  C   UNL     1     -11.641  14.201  69.026  1.00  0.00    -0.342 A  
HETATM   12  C   UNL     1     -12.089  13.210  69.889  1.00  0.00    -0.357 A  
HETATM   13  C   UNL     1     -10.272  15.991  66.037  1.00  0.00    -0.360 A  
HETATM   14  C   UNL     1     -12.482  13.589  71.172  1.00  0.00    -0.424 A  
HETATM   15  C   UNL     1     -12.417  14.934  71.573  1.00  0.00    -0.397 A  
HETATM   16  C   UNL     1     -11.977  15.929  70.692  1.00  0.00    -0.379 A  
HETATM   17  C   UNL     1     -10.029  17.361  65.945  1.00  0.00    -0.166 A  
HETATM   18  C   UNL     1     -10.309  18.213  67.026  1.00  0.00    -0.391 A  
HETATM   19  C   UNL     1     -10.845  17.712  68.218  1.00  0.00    -0.195 A  
HETATM   20  C   UNL     1     -11.090  16.352  68.313  1.00  0.00    -0.337 A  
HETATM   21  C   UNL     1     -11.599  15.558  69.414  1.00  0.00    -0.366 A  
BRANCH   9  22
HETATM   22  C   UNL     1     -12.081  13.378  66.655  1.00  0.00    -0.373 C  
HETATM   23  H1  UNL     1     -13.696  13.758  65.465  1.00  0.00     0.000 HD 
HETATM   24  N   UNL     1     -13.025  14.195  66.098  1.00  0.00    -0.384 N  
HETATM   25  O   UNL     1     -12.086  12.180  66.379  1.00  0.00    -0.630 OA 
HETATM   26  H2  UNL     1     -13.058  15.193  66.305  1.00  0.00     0.000 HD 
ENDBRANCH   9  22
ENDBRANCH   8   9
ENDBRANCH   7   8
ENDBRANCH   6   7
ENDBRANCH   4   6
ENDBRANCH   2   4
TORSDOF 6
ENDMDL
MODEL       73
REMARK 921   NORMALIZED FREE ENERGY PREDICTED BY IDOCK:   -4.93 KCAL/MOL
REMARK 922        TOTAL FREE ENERGY PREDICTED BY IDOCK:   -7.66 KCAL/MOL
REMARK 923 INTER-LIGAND FREE ENERGY PREDICTED BY IDOCK:   -6.11 KCAL/MOL
REMARK 924 INTRA-LIGAND FREE ENERGY PREDICTED BY IDOCK:   -1.55 KCAL/MOL
REMARK 927      BINDING AFFINITY PREDICTED BY RF-SCORE:    0.00 PKD
ROOT
HETATM    1  C   UNL     1     -12.480  12.645  64.785  1.00  0.00    -0.555 C  
HETATM    2  C   UNL     1     -11.313  13.334  64.075  1.00  0.00    -0.363 C  
HETATM    3  C   UNL     1     -11.056  14.702  64.706  1.00  0.00    -0.394 C  
ENDROOT
BRANCH   2   4
HETATM    4  N   UNL     1     -10.156  12.440  64.180  1.00  0.00    -0.514 NA 
HETATM    5  H   UNL     1      -9.559  12.717  64.959  1.00  0.00     0.000 HD 
BRANCH   4   6
HETATM    6  C   UNL     1     -10.506  11.027  64.280  1.00  0.00    -0.359 C  
BRANCH   6   7
HETATM    7  C   UNL     1      -9.598  10.321  65.288  1.00  0.00    -0.324 C  
BRANCH   7   8
HETATM    8  C   UNL     1     -10.308   9.927  66.599  1.00  0.00    -0.275 C  
BRANCH   8   9
HETATM    9  C   UNL     1      -9.707  10.557  67.882  1.00  0.00    -0.171 C  
HETATM   10  C   UNL     1     -10.335  11.933  68.152  1.00  0.00    -0.210 A  
HETATM   11  C   UNL     1      -8.235  10.933  67.670  1.00  0.00    -0.116 A  
HETATM   12  C   UNL     1      -7.163  10.091  67.402  1.00  0.00    -0.085 A  
HETATM   13  C   UNL     1     -11.665  12.232  68.420  1.00  0.00    -0.390 A  
HETATM   14  C   UNL     1      -5.922  10.672  67.149  1.00  0.00    -0.056 A  
HETATM   15  C   UNL     1      -5.769  12.069  67.160  1.00  0.00    -0.142 A  
HETATM   16  C   UNL     1      -6.851  12.911  67.444  1.00  0.00    -0.133 A  
HETATM   17  C   UNL     1     -12.022  13.574  68.540  1.00  0.00    -0.379 A  
HETATM   18  C   UNL     1     -11.062  14.588  68.391  1.00  0.00    -0.271 A  
HETATM   19  C   UNL     1      -9.723  14.279  68.125  1.00  0.00    -0.226 A  
HETATM   20  C   UNL     1      -9.362  12.946  68.009  1.00  0.00    -0.213 A  
HETATM   21  C   UNL     1      -8.081  12.337  67.709  1.00  0.00    -0.155 A  
BRANCH   9  22
HETATM   22  C   UNL     1      -9.887   9.610  69.088  1.00  0.00    -0.186 C  
HETATM   23  H1  UNL     1      -9.595   9.449  71.102  1.00  0.00     0.000 HD 
HETATM   24  N   UNL     1      -9.476  10.075  70.305  1.00  0.00    -0.384 N  
HETATM   25  O   UNL     1     -10.365   8.480  69.008  1.00  0.00    -0.212 OA 
HETATM   26  H2  UNL     1      -9.070  11.005  70.413  1.00  0.00     0.000 HD 
ENDBRANCH   9  22
ENDBRANCH   8   9
ENDBRANCH   7   8
ENDBRANCH   6   7
ENDBRANCH   4   6
ENDBRANCH   2   4
TORSDOF 6
ENDMDL
MODEL       74
REMARK 921   NORMALIZED FREE ENERGY PREDICTED BY IDOCK:   -4.90 KCAL/MOL
REMARK 922        TOTAL FREE ENERGY PREDICTED BY IDOCK:   -7.63 KCAL/MOL
REMARK 923 INTER-LIGAND FREE ENERGY PREDICTED BY IDOCK:   -6.65 KCAL/MOL
REMARK 924 INTRA-LIGAND FREE ENERGY PREDICTED BY IDOCK:   -0.99 KCAL/MOL
REMARK 927      BINDING AFFINITY PREDICTED BY RF-SCORE:    0.00 PKD
ROOT
HETATM    1  C   UNL     1      -9.239  19.274  68.496  1.00  0.00    -0.434 C  
HETATM    2  C   UNL     1     -10.355  19.300  67.450  1.00  0.00    -0.438 C  
HETATM    3  C   UNL     1      -9.818  19.854  66.130  1.00  0.00    -0.562 C  
ENDROOT
BRANCH   2   4
HETATM    4  N   UNL     1     -10.858  17.930  67.321  1.00  0.00    -0.256 NA 
HETATM    5  H   UNL     1     -10.333  17.420  66.610  1.00  0.00     0.000 HD 
BRANCH   4   6
HETATM    6  C   UNL     1     -10.878  17.184  68.576  1.00  0.00    -0.281 C  
BRANCH   6   7
HETATM    7  C   UNL     1     -11.490  15.799  68.366  1.00  0.00    -0.367 C  
BRANCH   7   8
HETATM    8  C   UNL     1     -11.749  15.448  66.886  1.00  0.00     0.112 C  
BRANCH   8   9
HETATM    9  C   UNL     1     -10.747  14.437  66.271  1.00  0.00    -0.307 C  
HETATM   10  C   UNL     1     -10.807  13.096  67.018  1.00  0.00    -0.278 A  
HETATM   11  C   UNL     1      -9.299  14.868  66.539  1.00  0.00    -0.308 A  
HETATM   12  C   UNL     1      -8.647  16.012  66.097  1.00  0.00    -0.315 A  
HETATM   13  C   UNL     1     -11.883  12.225  67.132  1.00  0.00    -0.328 A  
HETATM   14  C   UNL     1      -7.349  16.242  66.551  1.00  0.00    -0.118 A  
HETATM   15  C   UNL     1      -6.729  15.343  67.434  1.00  0.00    -0.178 A  
HETATM   16  C   UNL     1      -7.388  14.186  67.866  1.00  0.00    -0.163 A  
HETATM   17  C   UNL     1     -11.732  11.103  67.946  1.00  0.00    -0.260 A  
HETATM   18  C   UNL     1     -10.527  10.868  68.628  1.00  0.00    -0.216 A  
HETATM   19  C   UNL     1      -9.446  11.748  68.504  1.00  0.00    -0.165 A  
HETATM   20  C   UNL     1      -9.590  12.863  67.694  1.00  0.00    -0.196 A  
HETATM   21  C   UNL     1      -8.670  13.947  67.407  1.00  0.00    -0.208 A  
BRANCH   9  22
HETATM   22  C   UNL     1     -11.018  14.255  64.762  1.00  0.00    -0.398 C  
HETATM   23  H1  UNL     1     -10.455  13.190  63.115  1.00  0.00     0.000 HD 
HETATM   24  N   UNL     1     -10.275  13.310  64.111  1.00  0.00    -0.654 N  
HETATM   25  O   UNL     1     -11.847  14.906  64.130  1.00  0.00    -0.329 OA 
HETATM   26  H2  UNL     1      -9.574  12.752  64.599  1.00  0.00     0.000 HD 
ENDBRANCH   9  22
ENDBRANCH   8   9
ENDBRANCH   7   8
ENDBRANCH   6   7
ENDBRANCH   4   6
ENDBRANCH   2   4
TORSDOF 6
ENDMDL
MODEL       75
REMARK 921   NORMALIZED FREE ENERGY PREDICTED BY IDOCK:   -4.83 KCAL/MOL
REMARK 922        TOTAL FREE ENERGY PREDICTED BY IDOCK:   -7.53 KCAL/MOL
REMARK 923 INTER-LIGAND FREE ENERGY PREDICTED BY IDOCK:   -7.08 KCAL/MOL
REMARK 924 INTRA-LIGAND FREE ENERGY PREDICTED BY IDOCK:   -0.45 KCAL/MOL
REMARK 927      BINDING AFFINITY PREDICTED BY RF-SCORE:    0.00 PKD
ROOT
HETATM    1  C   UNL     1      -9.139   5.148  65.514  1.00  0.00    -0.157 C  
HETATM    2  C   UNL     1     -10.328   4.938  66.453  1.00  0.00    -0.288 C  
HETATM    3  C   UNL     1      -9.832   4.506  67.833  1.00  0.00    -0.162 C  
ENDROOT
BRANCH   2   4
HETATM    4  N   UNL     1     -11.075   6.198  66.494  1.00  0.00    -0.749 NA 
HETATM    5  H   UNL     1     -12.073   6.028  66.368  1.00  0.00     0.000 HD 
BRANCH   4   6
HETATM    6  C   UNL     1     -10.837   6.990  67.697  1.00  0.00    -0.242 C  
BRANCH   6   7
HETATM    7  C   UNL     1      -9.887   8.150  67.395  1.00  0.00    -0.242 C  
BRANCH   7   8
HETATM    8  C   UNL     1     -10.595   9.511  67.236  1.00  0.00    -0.317 C  
BRANCH   8   9
HETATM    9  C   UNL     1      -9.811  10.561  66.406  1.00  0.00    -0.260 C  
HETATM   10  C   UNL     1     -10.780  11.482  65.650  1.00  0.00    -0.323 A  
HETATM   11  C   UNL     1      -9.060   9.893  65.247  1.00  0.00    -0.256 A  
HETATM   12  C   UNL     1      -8.035   8.960  65.311  1.00  0.00    -0.116 A  
HETATM   13  C   UNL     1     -11.726  12.351  66.177  1.00  0.00    -0.460 A  
HETATM   14  C   UNL     1      -7.568   8.416  64.116  1.00  0.00    -0.125 A  
HETATM   15  C   UNL     1      -8.128   8.802  62.886  1.00  0.00    -0.174 A  
HETATM   16  C   UNL     1      -9.153   9.754  62.828  1.00  0.00    -0.286 A  
HETATM   17  C   UNL     1     -12.565  13.023  65.289  1.00  0.00    -0.516 A  
HETATM   18  C   UNL     1     -12.452  12.820  63.904  1.00  0.00    -0.454 A  
HETATM   19  C   UNL     1     -11.492  11.946  63.379  1.00  0.00    -0.470 A  
HETATM   20  C   UNL     1     -10.655  11.279  64.258  1.00  0.00    -0.422 A  
HETATM   21  C   UNL     1      -9.609  10.305  64.011  1.00  0.00    -0.365 A  
BRANCH   9  22
HETATM   22  C   UNL     1      -8.858  11.368  67.314  1.00  0.00    -0.153 C  
HETATM   23  H1  UNL     1      -7.333  12.725  67.291  1.00  0.00     0.000 HD 
HETATM   24  N   UNL     1      -7.962  12.191  66.691  1.00  0.00    -0.384 N  
HETATM   25  O   UNL     1      -8.861  11.305  68.542  1.00  0.00    -0.154 OA 
HETATM   26  H2  UNL     1      -7.924  12.269  65.674  1.00  0.00     0.000 HD 
ENDBRANCH   9  22
ENDBRANCH   8   9
ENDBRANCH   7   8
ENDBRANCH   6   7
ENDBRANCH   4   6
ENDBRANCH   2   4
TORSDOF 6
ENDMDL
MODEL       76
REMARK 921   NORMALIZED FREE ENERGY PREDICTED BY IDOCK:   -4.80 KCAL/MOL
REMARK 922        TOTAL FREE ENERGY PREDICTED BY IDOCK:   -7.49 KCAL/MOL
REMARK 923 INTER-LIGAND FREE ENERGY PREDICTED BY IDOCK:   -6.14 KCAL/MOL
REMARK 924 INTRA-LIGAND FREE ENERGY PREDICTED BY IDOCK:   -1.35 KCAL/MOL
REMARK 927      BINDING AFFINITY PREDICTED BY RF-SCORE:    0.00 PKD
ROOT
HETATM    1  C   UNL     1     -12.212  13.125  65.853  1.00  0.00    -0.497 C  
HETATM    2  C   UNL     1     -11.368  13.604  67.036  1.00  0.00    -0.324 C  
HETATM    3  C   UNL     1      -9.997  12.928  67.005  1.00  0.00    -0.244 C  
ENDROOT
BRANCH   2   4
HETATM    4  N   UNL     1     -11.277  15.063  66.939  1.00  0.00    -0.336 NA 
HETATM    5  H   UNL     1     -10.639  15.430  67.645  1.00  0.00     0.000 HD 
BRANCH   4   6
HETATM    6  C   UNL     1     -10.908  15.547  65.613  1.00  0.00    -0.346 C  
BRANCH   6   7
HETATM    7  C   UNL     1      -9.735  16.524  65.707  1.00  0.00    -0.237 C  
BRANCH   7   8
HETATM    8  C   UNL     1      -9.924  17.627  66.769  1.00  0.00    -0.320 C  
BRANCH   8   9
HETATM    9  C   UNL     1      -8.640  18.008  67.550  1.00  0.00    -0.244 C  
HETATM   10  C   UNL     1      -7.571  18.558  66.594  1.00  0.00    -0.259 A  
HETATM   11  C   UNL     1      -7.941  16.757  68.098  1.00  0.00    -0.181 A  
HETATM   12  C   UNL     1      -8.417  15.846  69.031  1.00  0.00    -0.242 A  
HETATM   13  C   UNL     1      -7.633  19.696  65.800  1.00  0.00    -0.275 A  
HETATM   14  C   UNL     1      -7.638  14.723  69.307  1.00  0.00    -0.144 A  
HETATM   15  C   UNL     1      -6.412  14.523  68.651  1.00  0.00    -0.086 A  
HETATM   16  C   UNL     1      -5.932  15.454  67.721  1.00  0.00    -0.164 A  
HETATM   17  C   UNL     1      -6.570  19.949  64.934  1.00  0.00    -0.267 A  
HETATM   18  C   UNL     1      -5.473  19.074  64.870  1.00  0.00    -0.246 A  
HETATM   19  C   UNL     1      -5.416  17.931  65.677  1.00  0.00    -0.189 A  
HETATM   20  C   UNL     1      -6.468  17.678  66.542  1.00  0.00    -0.257 A  
HETATM   21  C   UNL     1      -6.696  16.575  67.456  1.00  0.00    -0.175 A  
BRANCH   9  22
HETATM   22  C   UNL     1      -8.967  19.017  68.671  1.00  0.00    -0.363 C  
HETATM   23  H1  UNL     1     -10.501  19.986  69.606  1.00  0.00     0.000 HD 
HETATM   24  N   UNL     1     -10.286  19.319  68.865  1.00  0.00    -0.555 N  
HETATM   25  O   UNL     1      -8.118  19.555  69.380  1.00  0.00    -0.193 OA 
HETATM   26  H2  UNL     1     -11.020  18.897  68.295  1.00  0.00     0.000 HD 
ENDBRANCH   9  22
ENDBRANCH   8   9
ENDBRANCH   7   8
ENDBRANCH   6   7
ENDBRANCH   4   6
ENDBRANCH   2   4
TORSDOF 6
ENDMDL
MODEL       77
REMARK 921   NORMALIZED FREE ENERGY PREDICTED BY IDOCK:   -4.79 KCAL/MOL
REMARK 922        TOTAL FREE ENERGY PREDICTED BY IDOCK:   -7.48 KCAL/MOL
REMARK 923 INTER-LIGAND FREE ENERGY PREDICTED BY IDOCK:   -6.99 KCAL/MOL
REMARK 924 INTRA-LIGAND FREE ENERGY PREDICTED BY IDOCK:   -0.48 KCAL/MOL
REMARK 927      BINDING AFFINITY PREDICTED BY RF-SCORE:    0.00 PKD
ROOT
HETATM    1  C   UNL     1      -7.493  16.355  68.810  1.00  0.00    -0.207 C  
HETATM    2  C   UNL     1      -7.746  16.043  67.334  1.00  0.00    -0.167 C  
HETATM    3  C   UNL     1      -7.573  17.310  66.496  1.00  0.00    -0.324 C  
ENDROOT
BRANCH   2   4
HETATM    4  N   UNL     1      -6.809  14.984  66.949  1.00  0.00    -0.237 NA 
HETATM    5  H   UNL     1      -5.847  15.274  67.126  1.00  0.00     0.000 HD 
BRANCH   4   6
HETATM    6  C   UNL     1      -7.079  13.695  67.580  1.00  0.00    -0.170 C  
BRANCH   6   7
HETATM    7  C   UNL     1      -8.435  13.152  67.129  1.00  0.00    -0.173 C  
BRANCH   7   8
HETATM    8  C   UNL     1      -9.085  12.180  68.135  1.00  0.00    -0.196 C  
BRANCH   8   9
HETATM    9  C   UNL     1     -10.635  12.153  68.107  1.00  0.00    -0.236 C  
HETATM   10  C   UNL     1     -11.206  13.513  68.537  1.00  0.00    -0.310 A  
HETATM   11  C   UNL     1     -11.187  11.233  69.204  1.00  0.00    -0.337 A  
HETATM   12  C   UNL     1     -11.016   9.862  69.341  1.00  0.00    -0.263 A  
HETATM   13  C   UNL     1     -11.044  14.746  67.918  1.00  0.00    -0.301 A  
HETATM   14  C   UNL     1     -11.534   9.248  70.480  1.00  0.00    -0.296 A  
HETATM   15  C   UNL     1     -12.201  10.003  71.460  1.00  0.00    -0.496 A  
HETATM   16  C   UNL     1     -12.381  11.383  71.308  1.00  0.00    -0.344 A  
HETATM   17  C   UNL     1     -11.582  15.869  68.546  1.00  0.00    -0.351 A  
HETATM   18  C   UNL     1     -12.263  15.749  69.769  1.00  0.00    -0.236 A  
HETATM   19  C   UNL     1     -12.426  14.502  70.384  1.00  0.00    -0.407 A  
HETATM   20  C   UNL     1     -11.896  13.383  69.762  1.00  0.00    -0.393 A  
HETATM   21  C   UNL     1     -11.880  11.993  70.172  1.00  0.00    -0.383 A  
BRANCH   9  22
HETATM   22  C   UNL     1     -11.146  11.744  66.709  1.00  0.00    -0.306 C  
HETATM   23  H1  UNL     1     -10.776  10.506  65.129  1.00  0.00     0.000 HD 
HETATM   24  N   UNL     1     -10.439  10.776  66.052  1.00  0.00    -0.236 N  
HETATM   25  O   UNL     1     -12.131  12.239  66.165  1.00  0.00    -0.625 OA 
HETATM   26  H2  UNL     1      -9.613  10.343  66.467  1.00  0.00     0.000 HD 
ENDBRANCH   9  22
ENDBRANCH   8   9
ENDBRANCH   7   8
ENDBRANCH   6   7
ENDBRANCH   4   6
ENDBRANCH   2   4
TORSDOF 6
ENDMDL
MODEL       78
REMARK 921   NORMALIZED FREE ENERGY PREDICTED BY IDOCK:   -4.76 KCAL/MOL
REMARK 922        TOTAL FREE ENERGY PREDICTED BY IDOCK:   -7.43 KCAL/MOL
REMARK 923 INTER-LIGAND FREE ENERGY PREDICTED BY IDOCK:   -6.52 KCAL/MOL
REMARK 924 INTRA-LIGAND FREE ENERGY PREDICTED BY IDOCK:   -0.91 KCAL/MOL
REMARK 927      BINDING AFFINITY PREDICTED BY RF-SCORE:    0.00 PKD
ROOT
HETATM    1  C   UNL     1      -7.808  17.893  68.220  1.00  0.00    -0.285 C  
HETATM    2  C   UNL     1      -7.928  17.405  66.775  1.00  0.00    -0.244 C  
HETATM    3  C   UNL     1      -6.926  18.146  65.890  1.00  0.00    -0.319 C  
ENDROOT
BRANCH   2   4
HETATM    4  N   UNL     1      -7.703  15.957  66.788  1.00  0.00    -0.232 NA 
HETATM    5  H   UNL     1      -7.022  15.707  67.505  1.00  0.00     0.000 HD 
BRANCH   4   6
HETATM    6  C   UNL     1      -8.921  15.168  66.940  1.00  0.00    -0.252 C  
BRANCH   6   7
HETATM    7  C   UNL     1      -8.587  13.679  67.028  1.00  0.00    -0.173 C  
BRANCH   7   8
HETATM    8  C   UNL     1      -9.439  12.907  68.056  1.00  0.00    -0.213 C  
BRANCH   8   9
HETATM    9  C   UNL     1     -10.389  11.842  67.448  1.00  0.00    -0.228 C  
HETATM   10  C   UNL     1      -9.589  10.797  66.655  1.00  0.00    -0.208 A  
HETATM   11  C   UNL     1     -11.263  12.453  66.346  1.00  0.00    -0.365 A  
HETATM   12  C   UNL     1     -12.218  13.454  66.463  1.00  0.00    -0.414 A  
HETATM   13  C   UNL     1      -8.623   9.917  67.126  1.00  0.00    -0.125 A  
HETATM   14  C   UNL     1     -12.825  13.921  65.298  1.00  0.00    -0.437 A  
HETATM   15  C   UNL     1     -12.470  13.393  64.045  1.00  0.00    -0.310 A  
HETATM   16  C   UNL     1     -11.516  12.375  63.936  1.00  0.00    -0.509 A  
HETATM   17  C   UNL     1      -7.958   9.117  66.198  1.00  0.00    -0.103 A  
HETATM   18  C   UNL     1      -8.260   9.205  64.829  1.00  0.00    -0.150 A  
HETATM   19  C   UNL     1      -9.238  10.091  64.362  1.00  0.00    -0.316 A  
HETATM   20  C   UNL     1      -9.904  10.886  65.282  1.00  0.00    -0.318 A  
HETATM   21  C   UNL     1     -10.922  11.900  65.091  1.00  0.00    -0.365 A  
BRANCH   9  22
HETATM   22  C   UNL     1     -11.240  11.181  68.552  1.00  0.00    -0.258 C  
HETATM   23  H1  UNL     1     -11.412  10.958  70.574  1.00  0.00     0.000 HD 
HETATM   24  N   UNL     1     -10.849  11.394  69.844  1.00  0.00    -0.447 N  
HETATM   25  O   UNL     1     -12.228  10.483  68.333  1.00  0.00    -0.251 OA 
HETATM   26  H2  UNL     1     -10.032  11.964  70.069  1.00  0.00     0.000 HD 
ENDBRANCH   9  22
ENDBRANCH   8   9
ENDBRANCH   7   8
ENDBRANCH   6   7
ENDBRANCH   4   6
ENDBRANCH   2   4
TORSDOF 6
ENDMDL
MODEL       79
REMARK 921   NORMALIZED FREE ENERGY PREDICTED BY IDOCK:   -4.74 KCAL/MOL
REMARK 922        TOTAL FREE ENERGY PREDICTED BY IDOCK:   -7.41 KCAL/MOL
REMARK 923 INTER-LIGAND FREE ENERGY PREDICTED BY IDOCK:   -6.79 KCAL/MOL
REMARK 924 INTRA-LIGAND FREE ENERGY PREDICTED BY IDOCK:   -0.62 KCAL/MOL
REMARK 927      BINDING AFFINITY PREDICTED BY RF-SCORE:    0.00 PKD
ROOT
HETATM    1  C   UNL     1     -11.316  15.185  68.631  1.00  0.00    -0.322 C  
HETATM    2  C   UNL     1     -11.907  13.776  68.545  1.00  0.00    -0.370 C  
HETATM    3  C   UNL     1     -11.666  13.195  67.152  1.00  0.00    -0.430 C  
ENDROOT
BRANCH   2   4
HETATM    4  N   UNL     1     -11.279  12.979  69.602  1.00  0.00    -0.477 NA 
HETATM    5  H   UNL     1     -10.559  13.522  70.080  1.00  0.00     0.000 HD 
BRANCH   4   6
HETATM    6  C   UNL     1     -12.223  12.421  70.565  1.00  0.00    -0.295 C  
BRANCH   6   7
HETATM    7  C   UNL     1     -12.010  10.914  70.711  1.00  0.00    -0.449 C  
BRANCH   7   8
HETATM    8  C   UNL     1     -11.487  10.230  69.432  1.00  0.00    -0.248 C  
BRANCH   8   9
HETATM    9  C   UNL     1     -10.328   9.223  69.657  1.00  0.00    -0.227 C  
HETATM   10  C   UNL     1     -10.239   8.234  68.484  1.00  0.00    -0.234 A  
HETATM   11  C   UNL     1     -10.641   8.280  70.825  1.00  0.00    -0.236 A  
HETATM   12  C   UNL     1     -10.821   8.601  72.164  1.00  0.00    -0.424 A  
HETATM   13  C   UNL     1      -9.973   8.508  67.149  1.00  0.00    -0.304 A  
HETATM   14  C   UNL     1     -11.196   7.582  73.037  1.00  0.00    -0.373 A  
HETATM   15  C   UNL     1     -11.392   6.272  72.568  1.00  0.00    -0.313 A  
HETATM   16  C   UNL     1     -11.196   5.953  71.219  1.00  0.00    -0.280 A  
HETATM   17  C   UNL     1     -10.035   7.453  66.240  1.00  0.00     0.012 A  
HETATM   18  C   UNL     1     -10.361   6.155  66.668  1.00  0.00    -0.249 A  
HETATM   19  C   UNL     1     -10.623   5.887  68.017  1.00  0.00    -0.321 A  
HETATM   20  C   UNL     1     -10.559   6.932  68.925  1.00  0.00    -0.244 A  
HETATM   21  C   UNL     1     -10.810   6.959  70.352  1.00  0.00    -0.297 A  
BRANCH   9  22
HETATM   22  C   UNL     1      -8.994   9.970  69.867  1.00  0.00    -0.146 C  
HETATM   23  H1  UNL     1      -7.955  11.647  69.340  1.00  0.00     0.000 HD 
HETATM   24  N   UNL     1      -8.837  11.153  69.201  1.00  0.00    -0.384 N  
HETATM   25  O   UNL     1      -8.083   9.560  70.584  1.00  0.00    -0.179 OA 
HETATM   26  H2  UNL     1      -9.567  11.526  68.593  1.00  0.00     0.000 HD 
ENDBRANCH   9  22
ENDBRANCH   8   9
ENDBRANCH   7   8
ENDBRANCH   6   7
ENDBRANCH   4   6
ENDBRANCH   2   4
TORSDOF 6
ENDMDL
MODEL       80
REMARK 921   NORMALIZED FREE ENERGY PREDICTED BY IDOCK:   -4.73 KCAL/MOL
REMARK 922        TOTAL FREE ENERGY PREDICTED BY IDOCK:   -7.39 KCAL/MOL
REMARK 923 INTER-LIGAND FREE ENERGY PREDICTED BY IDOCK:   -7.43 KCAL/MOL
REMARK 924 INTRA-LIGAND FREE ENERGY PREDICTED BY IDOCK:    0.03 KCAL/MOL
REMARK 927      BINDING AFFINITY PREDICTED BY RF-SCORE:    0.00 PKD
ROOT
HETATM    1  C   UNL     1      -7.008  10.643  67.475  1.00  0.00    -0.083 C  
HETATM    2  C   UNL     1      -8.129  11.341  68.248  1.00  0.00    -0.137 C  
HETATM    3  C   UNL     1      -8.586  10.459  69.411  1.00  0.00    -0.143 C  
ENDROOT
BRANCH   2   4
HETATM    4  N   UNL     1      -7.604  12.633  68.696  1.00  0.00    -0.217 NA 
HETATM    5  H   UNL     1      -6.723  12.509  69.195  1.00  0.00     0.000 HD 
BRANCH   4   6
HETATM    6  C   UNL     1      -7.453  13.615  67.626  1.00  0.00    -0.183 C  
BRANCH   6   7
HETATM    7  C   UNL     1      -8.811  13.935  66.999  1.00  0.00    -0.231 C  
BRANCH   7   8
HETATM    8  C   UNL     1      -8.843  15.270  66.227  1.00  0.00    -0.262 C  
BRANCH   8   9
HETATM    9  C   UNL     1     -10.179  16.050  66.330  1.00  0.00    -0.329 C  
HETATM   10  C   UNL     1      -9.920  17.513  66.724  1.00  0.00    -0.313 A  
HETATM   11  C   UNL     1     -11.011  15.559  67.521  1.00  0.00    -0.316 A  
HETATM   12  C   UNL     1     -11.559  14.299  67.725  1.00  0.00    -0.383 A  
HETATM   13  C   UNL     1      -9.210  18.478  66.022  1.00  0.00     0.003 A  
HETATM   14  C   UNL     1     -12.200  14.052  68.938  1.00  0.00    -0.261 A  
HETATM   15  C   UNL     1     -12.279  15.052  69.922  1.00  0.00    -0.351 A  
HETATM   16  C   UNL     1     -11.736  16.323  69.704  1.00  0.00    -0.081 A  
HETATM   17  C   UNL     1      -9.025  19.722  66.624  1.00  0.00    -0.437 A  
HETATM   18  C   UNL     1      -9.542  19.982  67.904  1.00  0.00    -0.488 A  
HETATM   19  C   UNL     1     -10.261  19.006  68.603  1.00  0.00    -0.379 A  
HETATM   20  C   UNL     1     -10.450  17.769  68.007  1.00  0.00    -0.399 A  
HETATM   21  C   UNL     1     -11.111  16.576  68.497  1.00  0.00    -0.335 A  
BRANCH   9  22
HETATM   22  C   UNL     1     -10.966  15.955  65.005  1.00  0.00    -0.412 C  
HETATM   23  H1  UNL     1     -11.580  14.655  63.556  1.00  0.00     0.000 HD 
HETATM   24  N   UNL     1     -11.060  14.718  64.431  1.00  0.00    -0.634 N  
HETATM   25  O   UNL     1     -11.496  16.915  64.450  1.00  0.00    -1.052 OA 
HETATM   26  H2  UNL     1     -10.630  13.896  64.857  1.00  0.00     0.000 HD 
ENDBRANCH   9  22
ENDBRANCH   8   9
ENDBRANCH   7   8
ENDBRANCH   6   7
ENDBRANCH   4   6
ENDBRANCH   2   4
TORSDOF 6
ENDMDL
MODEL       81
REMARK 921   NORMALIZED FREE ENERGY PREDICTED BY IDOCK:   -4.72 KCAL/MOL
REMARK 922        TOTAL FREE ENERGY PREDICTED BY IDOCK:   -7.38 KCAL/MOL
REMARK 923 INTER-LIGAND FREE ENERGY PREDICTED BY IDOCK:   -6.84 KCAL/MOL
REMARK 924 INTRA-LIGAND FREE ENERGY PREDICTED BY IDOCK:   -0.54 KCAL/MOL
REMARK 927      BINDING AFFINITY PREDICTED BY RF-SCORE:    0.00 PKD
ROOT
HETATM    1  C   UNL     1     -13.478  15.517  71.229  1.00  0.00    -0.560 C  
HETATM    2  C   UNL     1     -12.793  14.318  71.889  1.00  0.00    -0.348 C  
HETATM    3  C   UNL     1     -13.833  13.254  72.241  1.00  0.00    -0.637 C  
ENDROOT
BRANCH   2   4
HETATM    4  N   UNL     1     -11.782  13.827  70.949  1.00  0.00    -0.483 NA 
HETATM    5  H   UNL     1     -10.867  13.782  71.398  1.00  0.00     0.000 HD 
BRANCH   4   6
HETATM    6  C   UNL     1     -12.116  12.544  70.337  1.00  0.00    -0.297 C  
BRANCH   6   7
HETATM    7  C   UNL     1     -12.033  12.641  68.813  1.00  0.00    -0.279 C  
BRANCH   7   8
HETATM    8  C   UNL     1     -10.723  12.080  68.222  1.00  0.00    -0.252 C  
BRANCH   8   9
HETATM    9  C   UNL     1     -10.021  13.006  67.195  1.00  0.00    -0.235 C  
HETATM   10  C   UNL     1      -8.505  12.756  67.193  1.00  0.00    -0.181 A  
HETATM   11  C   UNL     1     -10.086  14.472  67.646  1.00  0.00    -0.228 A  
HETATM   12  C   UNL     1     -11.209  15.268  67.820  1.00  0.00    -0.327 A  
HETATM   13  C   UNL     1      -7.828  11.589  66.863  1.00  0.00    -0.163 A  
HETATM   14  C   UNL     1     -11.029  16.551  68.333  1.00  0.00    -0.348 A  
HETATM   15  C   UNL     1      -9.746  17.015  68.669  1.00  0.00    -0.282 A  
HETATM   16  C   UNL     1      -8.616  16.211  68.478  1.00  0.00    -0.202 A  
HETATM   17  C   UNL     1      -6.444  11.568  67.026  1.00  0.00    -0.134 A  
HETATM   18  C   UNL     1      -5.761  12.695  67.512  1.00  0.00    -0.131 A  
HETATM   19  C   UNL     1      -6.450  13.869  67.837  1.00  0.00    -0.168 A  
HETATM   20  C   UNL     1      -7.826  13.897  67.674  1.00  0.00    -0.187 A  
HETATM   21  C   UNL     1      -8.790  14.942  67.955  1.00  0.00    -0.167 A  
BRANCH   9  22
HETATM   22  C   UNL     1     -10.626  12.814  65.788  1.00  0.00    -0.273 C  
HETATM   23  H1  UNL     1     -10.490  13.435  63.849  1.00  0.00     0.000 HD 
HETATM   24  N   UNL     1     -10.090  13.562  64.778  1.00  0.00    -0.609 N  
HETATM   25  O   UNL     1     -11.550  12.042  65.538  1.00  0.00    -0.350 OA 
HETATM   26  H2  UNL     1      -9.326  14.218  64.946  1.00  0.00     0.000 HD 
ENDBRANCH   9  22
ENDBRANCH   8   9
ENDBRANCH   7   8
ENDBRANCH   6   7
ENDBRANCH   4   6
ENDBRANCH   2   4
TORSDOF 6
ENDMDL
MODEL       82
REMARK 921   NORMALIZED FREE ENERGY PREDICTED BY IDOCK:   -4.71 KCAL/MOL
REMARK 922        TOTAL FREE ENERGY PREDICTED BY IDOCK:   -7.37 KCAL/MOL
REMARK 923 INTER-LIGAND FREE ENERGY PREDICTED BY IDOCK:   -6.15 KCAL/MOL
REMARK 924 INTRA-LIGAND FREE ENERGY PREDICTED BY IDOCK:   -1.23 KCAL/MOL
REMARK 927      BINDING AFFINITY PREDICTED BY RF-SCORE:    0.00 PKD
ROOT
HETATM    1  C   UNL     1      -9.981   6.692  74.291  1.00  0.00    -0.372 C  
HETATM    2  C   UNL     1      -8.654   7.450  74.339  1.00  0.00    -0.209 C  
HETATM    3  C   UNL     1      -7.491   6.476  74.146  1.00  0.00    -0.087 C  
ENDROOT
BRANCH   2   4
HETATM    4  N   UNL     1      -8.705   8.477  73.295  1.00  0.00    -0.348 NA 
HETATM    5  H   UNL     1      -8.732   9.409  73.709  1.00  0.00     0.000 HD 
BRANCH   4   6
HETATM    6  C   UNL     1      -7.626   8.383  72.316  1.00  0.00    -0.103 C  
BRANCH   6   7
HETATM    7  C   UNL     1      -8.151   8.681  70.911  1.00  0.00    -0.155 C  
BRANCH   7   8
HETATM    8  C   UNL     1      -8.812   7.471  70.221  1.00  0.00    -0.146 C  
BRANCH   8   9
HETATM    9  C   UNL     1     -10.092   7.801  69.410  1.00  0.00    -0.195 C  
HETATM   10  C   UNL     1      -9.800   8.886  68.362  1.00  0.00    -0.191 A  
HETATM   11  C   UNL     1     -11.133   8.503  70.291  1.00  0.00    -0.222 A  
HETATM   12  C   UNL     1     -11.790   8.004  71.408  1.00  0.00    -0.326 A  
HETATM   13  C   UNL     1      -8.925   8.826  67.286  1.00  0.00    -0.144 A  
HETATM   14  C   UNL     1     -12.630   8.865  72.113  1.00  0.00    -0.467 A  
HETATM   15  C   UNL     1     -12.796  10.198  71.702  1.00  0.00    -0.559 A  
HETATM   16  C   UNL     1     -12.141  10.690  70.567  1.00  0.00    -0.448 A  
HETATM   17  C   UNL     1      -8.754   9.977  66.517  1.00  0.00    -0.142 A  
HETATM   18  C   UNL     1      -9.448  11.158  66.829  1.00  0.00    -0.203 A  
HETATM   19  C   UNL     1     -10.333  11.208  67.913  1.00  0.00    -0.211 A  
HETATM   20  C   UNL     1     -10.508  10.066  68.678  1.00  0.00    -0.228 A  
HETATM   21  C   UNL     1     -11.318   9.835  69.858  1.00  0.00    -0.238 A  
BRANCH   9  22
HETATM   22  C   UNL     1     -10.664   6.525  68.756  1.00  0.00    -0.272 C  
HETATM   23  H1  UNL     1     -11.899   5.857  67.274  1.00  0.00     0.000 HD 
HETATM   24  N   UNL     1     -11.521   6.700  67.707  1.00  0.00    -0.658 N  
HETATM   25  O   UNL     1     -10.396   5.383  69.128  1.00  0.00    -0.225 OA 
HETATM   26  H2  UNL     1     -11.772   7.631  67.371  1.00  0.00     0.000 HD 
ENDBRANCH   9  22
ENDBRANCH   8   9
ENDBRANCH   7   8
ENDBRANCH   6   7
ENDBRANCH   4   6
ENDBRANCH   2   4
TORSDOF 6
ENDMDL
MODEL       83
REMARK 921   NORMALIZED FREE ENERGY PREDICTED BY IDOCK:   -4.71 KCAL/MOL
REMARK 922        TOTAL FREE ENERGY PREDICTED BY IDOCK:   -7.36 KCAL/MOL
REMARK 923 INTER-LIGAND FREE ENERGY PREDICTED BY IDOCK:   -7.25 KCAL/MOL
REMARK 924 INTRA-LIGAND FREE ENERGY PREDICTED BY IDOCK:   -0.11 KCAL/MOL
REMARK 927      BINDING AFFINITY PREDICTED BY RF-SCORE:    0.00 PKD
ROOT
HETATM    1  C   UNL     1      -8.908   9.147  65.530  1.00  0.00    -0.229 C  
HETATM    2  C   UNL     1      -7.809   9.990  66.179  1.00  0.00    -0.114 C  
HETATM    3  C   UNL     1      -6.498   9.818  65.411  1.00  0.00    -0.083 C  
ENDROOT
BRANCH   2   4
HETATM    4  N   UNL     1      -8.277  11.379  66.186  1.00  0.00    -0.343 NA 
HETATM    5  H   UNL     1      -9.275  11.422  65.979  1.00  0.00     0.000 HD 
BRANCH   4   6
HETATM    6  C   UNL     1      -7.979  12.100  67.419  1.00  0.00    -0.168 C  
BRANCH   6   7
HETATM    7  C   UNL     1      -8.855  13.347  67.535  1.00  0.00    -0.210 C  
BRANCH   7   8
HETATM    8  C   UNL     1      -9.620  13.451  68.870  1.00  0.00     0.155 C  
BRANCH   8   9
HETATM    9  C   UNL     1     -11.074  12.912  68.832  1.00  0.00    -0.301 C  
HETATM   10  C   UNL     1     -11.948  13.648  69.860  1.00  0.00    -0.415 A  
HETATM   11  C   UNL     1     -11.139  11.472  69.356  1.00  0.00    -0.287 A  
HETATM   12  C   UNL     1     -10.546  10.336  68.822  1.00  0.00    -0.231 A  
HETATM   13  C   UNL     1     -12.266  14.999  69.906  1.00  0.00    -0.351 A  
HETATM   14  C   UNL     1     -10.664   9.141  69.529  1.00  0.00    -0.226 A  
HETATM   15  C   UNL     1     -11.358   9.097  70.750  1.00  0.00    -0.337 A  
HETATM   16  C   UNL     1     -11.965  10.244  71.277  1.00  0.00    -0.457 A  
HETATM   17  C   UNL     1     -13.005  15.461  70.994  1.00  0.00    -0.556 A  
HETATM   18  C   UNL     1     -13.411  14.581  72.010  1.00  0.00    -0.476 A  
HETATM   19  C   UNL     1     -13.091  13.219  71.955  1.00  0.00    -0.483 A  
HETATM   20  C   UNL     1     -12.359  12.755  70.874  1.00  0.00    -0.356 A  
HETATM   21  C   UNL     1     -11.861  11.428  70.570  1.00  0.00    -0.394 A  
BRANCH   9  22
HETATM   22  C   UNL     1     -11.659  13.029  67.409  1.00  0.00    -0.356 C  
HETATM   23  H1  UNL     1     -12.254  14.369  65.988  1.00  0.00     0.000 HD 
HETATM   24  N   UNL     1     -11.868  14.292  66.929  1.00  0.00    -0.418 N  
HETATM   25  O   UNL     1     -11.944  12.064  66.702  1.00  0.00    -0.614 OA 
HETATM   26  H2  UNL     1     -11.649  15.118  67.486  1.00  0.00     0.000 HD 
ENDBRANCH   9  22
ENDBRANCH   8   9
ENDBRANCH   7   8
ENDBRANCH   6   7
ENDBRANCH   4   6
ENDBRANCH   2   4
TORSDOF 6
ENDMDL
MODEL       84
REMARK 921   NORMALIZED FREE ENERGY PREDICTED BY IDOCK:   -4.69 KCAL/MOL
REMARK 922        TOTAL FREE ENERGY PREDICTED BY IDOCK:   -7.34 KCAL/MOL
REMARK 923 INTER-LIGAND FREE ENERGY PREDICTED BY IDOCK:   -6.59 KCAL/MOL
REMARK 924 INTRA-LIGAND FREE ENERGY PREDICTED BY IDOCK:   -0.75 KCAL/MOL
REMARK 927      BINDING AFFINITY PREDICTED BY RF-SCORE:    0.00 PKD
ROOT
HETATM    1  C   UNL     1     -12.644   7.076  71.212  1.00  0.00    -0.418 C  
HETATM    2  C   UNL     1     -11.314   7.248  70.475  1.00  0.00    -0.280 C  
HETATM    3  C   UNL     1     -11.046   6.028  69.594  1.00  0.00    -0.474 C  
ENDROOT
BRANCH   2   4
HETATM    4  N   UNL     1     -11.407   8.490  69.702  1.00  0.00    -0.435 NA 
HETATM    5  H   UNL     1     -11.308   9.301  70.313  1.00  0.00     0.000 HD 
BRANCH   4   6
HETATM    6  C   UNL     1     -10.465   8.568  68.590  1.00  0.00    -0.169 C  
BRANCH   6   7
HETATM    7  C   UNL     1     -10.674   9.861  67.801  1.00  0.00    -0.332 C  
BRANCH   7   8
HETATM    8  C   UNL     1     -10.476   9.703  66.280  1.00  0.00    -0.149 C  
BRANCH   8   9
HETATM    9  C   UNL     1      -9.800  10.911  65.581  1.00  0.00    -0.292 C  
HETATM   10  C   UNL     1      -8.558  11.361  66.365  1.00  0.00    -0.174 A  
HETATM   11  C   UNL     1     -10.684  12.162  65.672  1.00  0.00    -0.312 A  
HETATM   12  C   UNL     1     -11.946  12.363  65.129  1.00  0.00    -0.454 A  
HETATM   13  C   UNL     1      -7.399  10.641  66.623  1.00  0.00    -0.129 A  
HETATM   14  C   UNL     1     -12.604  13.555  65.426  1.00  0.00    -0.531 A  
HETATM   15  C   UNL     1     -12.005  14.517  66.257  1.00  0.00    -0.335 A  
HETATM   16  C   UNL     1     -10.726  14.312  66.790  1.00  0.00    -0.287 A  
HETATM   17  C   UNL     1      -6.434  11.225  67.443  1.00  0.00    -0.080 A  
HETATM   18  C   UNL     1      -6.636  12.503  67.990  1.00  0.00    -0.086 A  
HETATM   19  C   UNL     1      -7.805  13.225  67.721  1.00  0.00    -0.157 A  
HETATM   20  C   UNL     1      -8.765  12.649  66.904  1.00  0.00    -0.175 A  
HETATM   21  C   UNL     1     -10.065  13.137  66.486  1.00  0.00    -0.280 A  
BRANCH   9  22
HETATM   22  C   UNL     1      -9.449  10.565  64.118  1.00  0.00    -0.293 C  
HETATM   23  H1  UNL     1      -8.901   9.034  62.885  1.00  0.00     0.000 HD 
HETATM   24  N   UNL     1      -9.133   9.263  63.851  1.00  0.00    -0.422 N  
HETATM   25  O   UNL     1      -9.435  11.386  63.203  1.00  0.00    -0.329 OA 
HETATM   26  H2  UNL     1      -9.128   8.552  64.584  1.00  0.00     0.000 HD 
ENDBRANCH   9  22
ENDBRANCH   8   9
ENDBRANCH   7   8
ENDBRANCH   6   7
ENDBRANCH   4   6
ENDBRANCH   2   4
TORSDOF 6
ENDMDL
MODEL       85
REMARK 921   NORMALIZED FREE ENERGY PREDICTED BY IDOCK:   -4.67 KCAL/MOL
REMARK 922        TOTAL FREE ENERGY PREDICTED BY IDOCK:   -7.32 KCAL/MOL
REMARK 923 INTER-LIGAND FREE ENERGY PREDICTED BY IDOCK:   -6.37 KCAL/MOL
REMARK 924 INTRA-LIGAND FREE ENERGY PREDICTED BY IDOCK:   -0.95 KCAL/MOL
REMARK 927      BINDING AFFINITY PREDICTED BY RF-SCORE:    0.00 PKD
ROOT
HETATM    1  C   UNL     1      -7.926   9.857  64.631  1.00  0.00    -0.141 C  
HETATM    2  C   UNL     1      -8.501  10.440  65.923  1.00  0.00    -0.156 C  
HETATM    3  C   UNL     1      -8.237   9.485  67.088  1.00  0.00    -0.113 C  
ENDROOT
BRANCH   2   4
HETATM    4  N   UNL     1      -7.877  11.751  66.120  1.00  0.00    -0.362 NA 
HETATM    5  H   UNL     1      -8.459  12.489  65.724  1.00  0.00     0.000 HD 
BRANCH   4   6
HETATM    6  C   UNL     1      -7.550  12.049  67.511  1.00  0.00    -0.147 C  
BRANCH   6   7
HETATM    7  C   UNL     1      -8.327  13.275  67.993  1.00  0.00    -0.162 C  
BRANCH   7   8
HETATM    8  C   UNL     1      -8.215  14.494  67.055  1.00  0.00    -0.164 C  
BRANCH   8   9
HETATM    9  C   UNL     1      -9.545  15.253  66.809  1.00  0.00    -0.257 C  
HETATM   10  C   UNL     1     -10.330  15.402  68.121  1.00  0.00    -0.239 A  
HETATM   11  C   UNL     1     -10.512  14.406  65.971  1.00  0.00    -0.307 A  
HETATM   12  C   UNL     1     -10.353  13.958  64.667  1.00  0.00    -0.366 A  
HETATM   13  C   UNL     1      -9.955  16.080  69.273  1.00  0.00    -0.252 A  
HETATM   14  C   UNL     1     -11.330  13.114  64.141  1.00  0.00    -0.440 A  
HETATM   15  C   UNL     1     -12.436  12.727  64.917  1.00  0.00    -0.563 A  
HETATM   16  C   UNL     1     -12.596  13.193  66.227  1.00  0.00    -0.030 A  
HETATM   17  C   UNL     1     -10.796  16.000  70.382  1.00  0.00    -0.295 A  
HETATM   18  C   UNL     1     -11.984  15.252  70.329  1.00  0.00    -0.367 A  
HETATM   19  C   UNL     1     -12.357  14.575  69.162  1.00  0.00    -0.152 A  
HETATM   20  C   UNL     1     -11.527  14.655  68.056  1.00  0.00    -0.346 A  
HETATM   21  C   UNL     1     -11.636  14.042  66.747  1.00  0.00    -0.406 A  
BRANCH   9  22
HETATM   22  C   UNL     1      -9.274  16.624  66.155  1.00  0.00    -0.277 C  
HETATM   23  H1  UNL     1      -7.917  18.145  66.042  1.00  0.00     0.000 HD 
HETATM   24  N   UNL     1      -8.096  17.239  66.474  1.00  0.00    -0.254 N  
HETATM   25  O   UNL     1     -10.051  17.182  65.382  1.00  0.00    -0.571 OA 
HETATM   26  H2  UNL     1      -7.426  16.811  67.115  1.00  0.00     0.000 HD 
ENDBRANCH   9  22
ENDBRANCH   8   9
ENDBRANCH   7   8
ENDBRANCH   6   7
ENDBRANCH   4   6
ENDBRANCH   2   4
TORSDOF 6
ENDMDL
MODEL       86
REMARK 921   NORMALIZED FREE ENERGY PREDICTED BY IDOCK:   -4.67 KCAL/MOL
REMARK 922        TOTAL FREE ENERGY PREDICTED BY IDOCK:   -7.31 KCAL/MOL
REMARK 923 INTER-LIGAND FREE ENERGY PREDICTED BY IDOCK:   -6.63 KCAL/MOL
REMARK 924 INTRA-LIGAND FREE ENERGY PREDICTED BY IDOCK:   -0.68 KCAL/MOL
REMARK 927      BINDING AFFINITY PREDICTED BY RF-SCORE:    0.00 PKD
ROOT
HETATM    1  C   UNL     1     -11.084  11.154  69.538  1.00  0.00    -0.311 C  
HETATM    2  C   UNL     1     -12.237  11.901  70.210  1.00  0.00    -0.271 C  
HETATM    3  C   UNL     1     -12.698  11.139  71.453  1.00  0.00    -0.524 C  
ENDROOT
BRANCH   2   4
HETATM    4  N   UNL     1     -11.753  13.248  70.525  1.00  0.00    -0.534 NA 
HETATM    5  H   UNL     1     -10.758  13.329  70.317  1.00  0.00     0.000 HD 
BRANCH   4   6
HETATM    6  C   UNL     1     -12.502  14.316  69.870  1.00  0.00    -0.264 C  
BRANCH   6   7
HETATM    7  C   UNL     1     -11.682  14.925  68.732  1.00  0.00    -0.353 C  
BRANCH   7   8
HETATM    8  C   UNL     1     -11.808  14.166  67.395  1.00  0.00    -0.447 C  
BRANCH   8   9
HETATM    9  C   UNL     1     -10.525  14.163  66.523  1.00  0.00    -0.280 C  
HETATM   10  C   UNL     1     -10.620  13.088  65.429  1.00  0.00    -0.307 A  
HETATM   11  C   UNL     1      -9.316  13.669  67.328  1.00  0.00    -0.233 A  
HETATM   12  C   UNL     1      -8.734  14.250  68.447  1.00  0.00    -0.181 A  
HETATM   13  C   UNL     1     -11.536  13.001  64.389  1.00  0.00    -0.418 A  
HETATM   14  C   UNL     1      -7.694  13.564  69.074  1.00  0.00     0.118 A  
HETATM   15  C   UNL     1      -7.260  12.320  68.587  1.00  0.00    -0.105 A  
HETATM   16  C   UNL     1      -7.843  11.747  67.450  1.00  0.00    -0.155 A  
HETATM   17  C   UNL     1     -11.487  11.877  63.566  1.00  0.00    -0.523 A  
HETATM   18  C   UNL     1     -10.538  10.866  63.789  1.00  0.00    -0.255 A  
HETATM   19  C   UNL     1      -9.615  10.963  64.837  1.00  0.00    -0.297 A  
HETATM   20  C   UNL     1      -9.658  12.080  65.656  1.00  0.00    -0.205 A  
HETATM   21  C   UNL     1      -8.865  12.431  66.818  1.00  0.00    -0.189 A  
BRANCH   9  22
HETATM   22  C   UNL     1     -10.277  15.561  65.920  1.00  0.00    -0.345 C  
HETATM   23  H1  UNL     1      -8.838  16.974  65.598  1.00  0.00     0.000 HD 
HETATM   24  N   UNL     1      -9.002  16.050  65.997  1.00  0.00    -0.338 N  
HETATM   25  O   UNL     1     -11.150  16.245  65.389  1.00  0.00    -0.212 OA 
HETATM   26  H2  UNL     1      -8.251  15.515  66.434  1.00  0.00     0.000 HD 
ENDBRANCH   9  22
ENDBRANCH   8   9
ENDBRANCH   7   8
ENDBRANCH   6   7
ENDBRANCH   4   6
ENDBRANCH   2   4
TORSDOF 6
ENDMDL
MODEL       87
REMARK 921   NORMALIZED FREE ENERGY PREDICTED BY IDOCK:   -4.67 KCAL/MOL
REMARK 922        TOTAL FREE ENERGY PREDICTED BY IDOCK:   -7.31 KCAL/MOL
REMARK 923 INTER-LIGAND FREE ENERGY PREDICTED BY IDOCK:   -6.50 KCAL/MOL
REMARK 924 INTRA-LIGAND FREE ENERGY PREDICTED BY IDOCK:   -0.82 KCAL/MOL
REMARK 927      BINDING AFFINITY PREDICTED BY RF-SCORE:    0.00 PKD
ROOT
HETATM    1  C   UNL     1     -11.307   6.467  69.761  1.00  0.00    -0.494 C  
HETATM    2  C   UNL     1     -10.556   7.764  69.453  1.00  0.00    -0.208 C  
HETATM    3  C   UNL     1      -9.066   7.584  69.743  1.00  0.00    -0.140 C  
ENDROOT
BRANCH   2   4
HETATM    4  N   UNL     1     -10.820   8.093  68.050  1.00  0.00    -0.464 NA 
HETATM    5  H   UNL     1     -11.426   8.910  67.981  1.00  0.00     0.000 HD 
BRANCH   4   6
HETATM    6  C   UNL     1      -9.614   8.280  67.248  1.00  0.00    -0.166 C  
BRANCH   6   7
HETATM    7  C   UNL     1      -9.578   9.690  66.658  1.00  0.00    -0.241 C  
BRANCH   7   8
HETATM    8  C   UNL     1     -10.888  10.482  66.851  1.00  0.00    -0.252 C  
BRANCH   8   9
HETATM    9  C   UNL     1     -10.733  11.823  67.613  1.00  0.00    -0.254 C  
HETATM   10  C   UNL     1     -11.017  13.010  66.679  1.00  0.00    -0.301 A  
HETATM   11  C   UNL     1      -9.266  12.076  67.985  1.00  0.00    -0.192 A  
HETATM   12  C   UNL     1      -8.453  11.331  68.830  1.00  0.00    -0.112 A  
HETATM   13  C   UNL     1     -12.200  13.320  66.022  1.00  0.00    -0.483 A  
HETATM   14  C   UNL     1      -7.114  11.700  68.942  1.00  0.00    -0.115 A  
HETATM   15  C   UNL     1      -6.607  12.789  68.214  1.00  0.00    -0.085 A  
HETATM   16  C   UNL     1      -7.436  13.544  67.375  1.00  0.00    -0.136 A  
HETATM   17  C   UNL     1     -12.196  14.403  65.144  1.00  0.00    -0.393 A  
HETATM   18  C   UNL     1     -11.027  15.152  64.933  1.00  0.00    -0.434 A  
HETATM   19  C   UNL     1      -9.839  14.835  65.603  1.00  0.00    -0.361 A  
HETATM   20  C   UNL     1      -9.839  13.762  66.479  1.00  0.00    -0.294 A  
HETATM   21  C   UNL     1      -8.768  13.190  67.272  1.00  0.00    -0.210 A  
BRANCH   9  22
HETATM   22  C   UNL     1     -11.650  11.851  68.854  1.00  0.00    -0.311 C  
HETATM   23  H1  UNL     1     -12.773  10.674  70.087  1.00  0.00     0.000 HD 
HETATM   24  N   UNL     1     -12.167  10.655  69.267  1.00  0.00    -0.538 N  
HETATM   25  O   UNL     1     -11.937  12.874  69.473  1.00  0.00    -0.312 OA 
HETATM   26  H2  UNL     1     -11.957   9.785  68.778  1.00  0.00     0.000 HD 
ENDBRANCH   9  22
ENDBRANCH   8   9
ENDBRANCH   7   8
ENDBRANCH   6   7
ENDBRANCH   4   6
ENDBRANCH   2   4
TORSDOF 6
ENDMDL
MODEL       88
REMARK 921   NORMALIZED FREE ENERGY PREDICTED BY IDOCK:   -4.67 KCAL/MOL
REMARK 922        TOTAL FREE ENERGY PREDICTED BY IDOCK:   -7.31 KCAL/MOL
REMARK 923 INTER-LIGAND FREE ENERGY PREDICTED BY IDOCK:   -6.14 KCAL/MOL
REMARK 924 INTRA-LIGAND FREE ENERGY PREDICTED BY IDOCK:   -1.16 KCAL/MOL
REMARK 927      BINDING AFFINITY PREDICTED BY RF-SCORE:    0.00 PKD
ROOT
HETATM    1  C   UNL     1     -12.709  12.040  63.464  1.00  0.00    -0.567 C  
HETATM    2  C   UNL     1     -11.685  13.177  63.473  1.00  0.00    -0.415 C  
HETATM    3  C   UNL     1     -12.226  14.358  64.280  1.00  0.00    -0.450 C  
ENDROOT
BRANCH   2   4
HETATM    4  N   UNL     1     -10.444  12.636  64.032  1.00  0.00    -0.409 NA 
HETATM    5  H   UNL     1     -10.147  13.182  64.842  1.00  0.00     0.000 HD 
BRANCH   4   6
HETATM    6  C   UNL     1     -10.514  11.218  64.369  1.00  0.00    -0.345 C  
BRANCH   6   7
HETATM    7  C   UNL     1     -10.033  10.984  65.802  1.00  0.00    -0.294 C  
BRANCH   7   8
HETATM    8  C   UNL     1     -11.112  11.245  66.872  1.00  0.00    -0.339 C  
BRANCH   8   9
HETATM    9  C   UNL     1     -10.584  11.861  68.194  1.00  0.00    -0.233 C  
HETATM   10  C   UNL     1      -9.975  13.247  67.936  1.00  0.00    -0.233 A  
HETATM   11  C   UNL     1      -9.365  11.086  68.711  1.00  0.00    -0.185 A  
HETATM   12  C   UNL     1      -9.301   9.763  69.128  1.00  0.00    -0.185 A  
HETATM   13  C   UNL     1     -10.607  14.387  67.456  1.00  0.00    -0.265 A  
HETATM   14  C   UNL     1      -8.054   9.243  69.468  1.00  0.00    -0.111 A  
HETATM   15  C   UNL     1      -6.899  10.038  69.382  1.00  0.00    -0.064 A  
HETATM   16  C   UNL     1      -6.972  11.375  68.973  1.00  0.00    -0.106 A  
HETATM   17  C   UNL     1      -9.825  15.515  67.212  1.00  0.00    -0.224 A  
HETATM   18  C   UNL     1      -8.440  15.492  67.445  1.00  0.00    -0.199 A  
HETATM   19  C   UNL     1      -7.811  14.341  67.934  1.00  0.00    -0.156 A  
HETATM   20  C   UNL     1      -8.584  13.218  68.181  1.00  0.00    -0.177 A  
HETATM   21  C   UNL     1      -8.210  11.898  68.649  1.00  0.00    -0.072 A  
BRANCH   9  22
HETATM   22  C   UNL     1     -11.708  11.926  69.250  1.00  0.00    -0.328 C  
HETATM   23  H1  UNL     1     -12.323  12.912  70.928  1.00  0.00     0.000 HD 
HETATM   24  N   UNL     1     -11.579  12.868  70.231  1.00  0.00    -0.532 N  
HETATM   25  O   UNL     1     -12.690  11.186  69.254  1.00  0.00    -0.252 OA 
HETATM   26  H2  UNL     1     -10.777  13.499  70.266  1.00  0.00     0.000 HD 
ENDBRANCH   9  22
ENDBRANCH   8   9
ENDBRANCH   7   8
ENDBRANCH   6   7
ENDBRANCH   4   6
ENDBRANCH   2   4
TORSDOF 6
ENDMDL
MODEL       89
REMARK 921   NORMALIZED FREE ENERGY PREDICTED BY IDOCK:   -4.64 KCAL/MOL
REMARK 922        TOTAL FREE ENERGY PREDICTED BY IDOCK:   -7.28 KCAL/MOL
REMARK 923 INTER-LIGAND FREE ENERGY PREDICTED BY IDOCK:   -6.74 KCAL/MOL
REMARK 924 INTRA-LIGAND FREE ENERGY PREDICTED BY IDOCK:   -0.53 KCAL/MOL
REMARK 927      BINDING AFFINITY PREDICTED BY RF-SCORE:    0.00 PKD
ROOT
HETATM    1  C   UNL     1      -7.614  10.244  63.538  1.00  0.00    -0.104 C  
HETATM    2  C   UNL     1      -8.786   9.380  64.009  1.00  0.00    -0.200 C  
HETATM    3  C   UNL     1      -8.261   8.087  64.633  1.00  0.00    -0.109 C  
ENDROOT
BRANCH   2   4
HETATM    4  N   UNL     1      -9.562  10.186  64.956  1.00  0.00    -0.277 NA 
HETATM    5  H   UNL     1      -8.942  10.712  65.572  1.00  0.00     0.000 HD 
BRANCH   4   6
HETATM    6  C   UNL     1     -10.531  11.075  64.323  1.00  0.00    -0.359 C  
BRANCH   6   7
HETATM    7  C   UNL     1     -11.141  12.023  65.356  1.00  0.00    -0.369 C  
BRANCH   7   8
HETATM    8  C   UNL     1     -11.268  11.412  66.766  1.00  0.00    -0.319 C  
BRANCH   8   9
HETATM    9  C   UNL     1     -10.490  12.165  67.876  1.00  0.00    -0.224 C  
HETATM   10  C   UNL     1     -11.333  12.258  69.157  1.00  0.00    -0.330 A  
HETATM   11  C   UNL     1     -10.320  13.647  67.517  1.00  0.00    -0.241 A  
HETATM   12  C   UNL     1      -9.625  14.198  66.449  1.00  0.00    -0.310 A  
HETATM   13  C   UNL     1     -11.805  11.221  69.951  1.00  0.00    -0.436 A  
HETATM   14  C   UNL     1      -9.690  15.579  66.268  1.00  0.00    -0.328 A  
HETATM   15  C   UNL     1     -10.444  16.381  67.141  1.00  0.00    -0.297 A  
HETATM   16  C   UNL     1     -11.131  15.820  68.224  1.00  0.00    -0.342 A  
HETATM   17  C   UNL     1     -12.636  11.544  71.023  1.00  0.00    -0.457 A  
HETATM   18  C   UNL     1     -12.984  12.879  71.284  1.00  0.00    -0.317 A  
HETATM   19  C   UNL     1     -12.500  13.920  70.482  1.00  0.00    -0.422 A  
HETATM   20  C   UNL     1     -11.670  13.604  69.418  1.00  0.00    -0.379 A  
HETATM   21  C   UNL     1     -11.057  14.452  68.415  1.00  0.00    -0.272 A  
BRANCH   9  22
HETATM   22  C   UNL     1      -9.131  11.483  68.144  1.00  0.00    -0.181 C  
HETATM   23  H1  UNL     1      -7.362  11.692  69.141  1.00  0.00     0.000 HD 
HETATM   24  N   UNL     1      -8.260  12.143  68.964  1.00  0.00    -0.344 N  
HETATM   25  O   UNL     1      -8.799  10.402  67.662  1.00  0.00    -0.125 OA 
HETATM   26  H2  UNL     1      -8.496  13.045  69.380  1.00  0.00     0.000 HD 
ENDBRANCH   9  22
ENDBRANCH   8   9
ENDBRANCH   7   8
ENDBRANCH   6   7
ENDBRANCH   4   6
ENDBRANCH   2   4
TORSDOF 6
ENDMDL
MODEL       90
REMARK 921   NORMALIZED FREE ENERGY PREDICTED BY IDOCK:   -4.63 KCAL/MOL
REMARK 922        TOTAL FREE ENERGY PREDICTED BY IDOCK:   -7.26 KCAL/MOL
REMARK 923 INTER-LIGAND FREE ENERGY PREDICTED BY IDOCK:   -7.02 KCAL/MOL
REMARK 924 INTRA-LIGAND FREE ENERGY PREDICTED BY IDOCK:   -0.24 KCAL/MOL
REMARK 927      BINDING AFFINITY PREDICTED BY RF-SCORE:    0.00 PKD
ROOT
HETATM    1  C   UNL     1      -9.097   9.774  63.738  1.00  0.00    -0.270 C  
HETATM    2  C   UNL     1      -7.952   9.817  64.752  1.00  0.00    -0.138 C  
HETATM    3  C   UNL     1      -6.639   9.434  64.069  1.00  0.00    -0.095 C  
ENDROOT
BRANCH   2   4
HETATM    4  N   UNL     1      -7.920  11.172  65.310  1.00  0.00    -0.348 NA 
HETATM    5  H   UNL     1      -8.788  11.666  65.101  1.00  0.00     0.000 HD 
BRANCH   4   6
HETATM    6  C   UNL     1      -7.636  11.217  66.741  1.00  0.00    -0.151 C  
BRANCH   6   7
HETATM    7  C   UNL     1      -8.356  12.398  67.392  1.00  0.00    -0.180 C  
BRANCH   7   8
HETATM    8  C   UNL     1      -9.413  11.985  68.437  1.00  0.00    -0.181 C  
BRANCH   8   9
HETATM    9  C   UNL     1     -10.819  12.603  68.221  1.00  0.00    -0.261 C  
HETATM   10  C   UNL     1     -10.731  14.136  68.164  1.00  0.00    -0.251 A  
HETATM   11  C   UNL     1     -11.704  12.397  69.457  1.00  0.00    -0.388 A  
HETATM   12  C   UNL     1     -12.150  11.201  70.004  1.00  0.00    -0.437 A  
HETATM   13  C   UNL     1     -10.054  14.923  67.242  1.00  0.00    -0.235 A  
HETATM   14  C   UNL     1     -12.869  11.255  71.197  1.00  0.00    -0.452 A  
HETATM   15  C   UNL     1     -13.126  12.486  71.824  1.00  0.00    -0.450 A  
HETATM   16  C   UNL     1     -12.685  13.688  71.259  1.00  0.00    -0.443 A  
HETATM   17  C   UNL     1     -10.037  16.303  67.446  1.00  0.00    -0.260 A  
HETATM   18  C   UNL     1     -10.686  16.871  68.554  1.00  0.00    -0.359 A  
HETATM   19  C   UNL     1     -11.371  16.071  69.477  1.00  0.00    -0.344 A  
HETATM   20  C   UNL     1     -11.393  14.701  69.276  1.00  0.00    -0.313 A  
HETATM   21  C   UNL     1     -11.983  13.640  70.069  1.00  0.00    -0.413 A  
BRANCH   9  22
HETATM   22  C   UNL     1     -11.475  12.029  66.947  1.00  0.00    -0.337 C  
HETATM   23  H1  UNL     1     -11.407  10.469  65.632  1.00  0.00     0.000 HD 
HETATM   24  N   UNL     1     -10.974  10.849  66.473  1.00  0.00    -0.180 N  
HETATM   25  O   UNL     1     -12.401  12.571  66.347  1.00  0.00    -0.537 OA 
HETATM   26  H2  UNL     1     -10.202  10.370  66.940  1.00  0.00     0.000 HD 
ENDBRANCH   9  22
ENDBRANCH   8   9
ENDBRANCH   7   8
ENDBRANCH   6   7
ENDBRANCH   4   6
ENDBRANCH   2   4
TORSDOF 6
ENDMDL
MODEL       91
REMARK 921   NORMALIZED FREE ENERGY PREDICTED BY IDOCK:   -4.63 KCAL/MOL
REMARK 922        TOTAL FREE ENERGY PREDICTED BY IDOCK:   -7.26 KCAL/MOL
REMARK 923 INTER-LIGAND FREE ENERGY PREDICTED BY IDOCK:   -6.55 KCAL/MOL
REMARK 924 INTRA-LIGAND FREE ENERGY PREDICTED BY IDOCK:   -0.71 KCAL/MOL
REMARK 927      BINDING AFFINITY PREDICTED BY RF-SCORE:    0.00 PKD
ROOT
HETATM    1  C   UNL     1      -7.841  10.383  68.206  1.00  0.00    -0.105 C  
HETATM    2  C   UNL     1      -8.678  11.660  68.119  1.00  0.00    -0.159 C  
HETATM    3  C   UNL     1     -10.083  11.400  68.665  1.00  0.00    -0.217 C  
ENDROOT
BRANCH   2   4
HETATM    4  N   UNL     1      -7.966  12.696  68.872  1.00  0.00    -0.332 NA 
HETATM    5  H   UNL     1      -7.451  12.284  69.650  1.00  0.00     0.000 HD 
BRANCH   4   6
HETATM    6  C   UNL     1      -7.083  13.523  68.054  1.00  0.00    -0.127 C  
BRANCH   6   7
HETATM    7  C   UNL     1      -7.893  14.551  67.264  1.00  0.00    -0.199 C  
BRANCH   7   8
HETATM    8  C   UNL     1      -8.286  15.798  68.082  1.00  0.00    -0.160 C  
BRANCH   8   9
HETATM    9  C   UNL     1      -9.784  16.191  67.993  1.00  0.00    -0.229 C  
HETATM   10  C   UNL     1     -10.442  15.532  66.772  1.00  0.00    -0.295 A  
HETATM   11  C   UNL     1      -9.941  17.679  67.655  1.00  0.00    -0.323 A  
HETATM   12  C   UNL     1      -9.543  18.778  68.406  1.00  0.00    -0.409 A  
HETATM   13  C   UNL     1     -10.604  14.177  66.511  1.00  0.00    -0.282 A  
HETATM   14  C   UNL     1      -9.704  20.045  67.848  1.00  0.00    -0.517 A  
HETATM   15  C   UNL     1     -10.246  20.197  66.561  1.00  0.00    -0.558 A  
HETATM   16  C   UNL     1     -10.657  19.086  65.815  1.00  0.00    -0.388 A  
HETATM   17  C   UNL     1     -11.152  13.808  65.283  1.00  0.00    -0.315 A  
HETATM   18  C   UNL     1     -11.525  14.782  64.343  1.00  0.00    -0.261 A  
HETATM   19  C   UNL     1     -11.364  16.146  64.616  1.00  0.00    -0.287 A  
HETATM   20  C   UNL     1     -10.823  16.517  65.836  1.00  0.00    -0.096 A  
HETATM   21  C   UNL     1     -10.512  17.828  66.371  1.00  0.00    -0.297 A  
BRANCH   9  22
HETATM   22  C   UNL     1     -10.520  15.821  69.299  1.00  0.00    -0.247 C  
HETATM   23  H1  UNL     1     -10.351  14.745  71.025  1.00  0.00     0.000 HD 
HETATM   24  N   UNL     1      -9.864  14.989  70.163  1.00  0.00    -0.473 N  
HETATM   25  O   UNL     1     -11.644  16.225  69.592  1.00  0.00    -0.276 OA 
HETATM   26  H2  UNL     1      -8.932  14.629  69.954  1.00  0.00     0.000 HD 
ENDBRANCH   9  22
ENDBRANCH   8   9
ENDBRANCH   7   8
ENDBRANCH   6   7
ENDBRANCH   4   6
ENDBRANCH   2   4
TORSDOF 6
ENDMDL
MODEL       92
REMARK 921   NORMALIZED FREE ENERGY PREDICTED BY IDOCK:   -4.63 KCAL/MOL
REMARK 922        TOTAL FREE ENERGY PREDICTED BY IDOCK:   -7.26 KCAL/MOL
REMARK 923 INTER-LIGAND FREE ENERGY PREDICTED BY IDOCK:   -7.03 KCAL/MOL
REMARK 924 INTRA-LIGAND FREE ENERGY PREDICTED BY IDOCK:   -0.23 KCAL/MOL
REMARK 927      BINDING AFFINITY PREDICTED BY RF-SCORE:    0.00 PKD
ROOT
HETATM    1  C   UNL     1     -10.592  11.291  63.847  1.00  0.00    -0.455 C  
HETATM    2  C   UNL     1     -11.530  12.396  63.356  1.00  0.00    -0.448 C  
HETATM    3  C   UNL     1     -12.984  11.991  63.598  1.00  0.00    -0.344 C  
ENDROOT
BRANCH   2   4
HETATM    4  N   UNL     1     -11.162  13.623  64.068  1.00  0.00    -0.584 NA 
HETATM    5  H   UNL     1     -11.984  14.205  64.227  1.00  0.00     0.000 HD 
BRANCH   4   6
HETATM    6  C   UNL     1     -10.449  13.390  65.321  1.00  0.00    -0.324 C  
BRANCH   6   7
HETATM    7  C   UNL     1     -11.351  13.702  66.515  1.00  0.00    -0.335 C  
BRANCH   7   8
HETATM    8  C   UNL     1     -11.674  12.475  67.391  1.00  0.00    -0.432 C  
BRANCH   8   9
HETATM    9  C   UNL     1     -10.708  12.251  68.584  1.00  0.00    -0.261 C  
HETATM   10  C   UNL     1      -9.739  11.098  68.283  1.00  0.00    -0.190 A  
HETATM   11  C   UNL     1     -11.460  11.704  69.804  1.00  0.00    -0.339 A  
HETATM   12  C   UNL     1     -12.465  12.319  70.540  1.00  0.00    -0.272 A  
HETATM   13  C   UNL     1      -8.789  11.016  67.273  1.00  0.00    -0.135 A  
HETATM   14  C   UNL     1     -13.074  11.585  71.557  1.00  0.00    -0.429 A  
HETATM   15  C   UNL     1     -12.681  10.261  71.818  1.00  0.00    -0.535 A  
HETATM   16  C   UNL     1     -11.658   9.653  71.080  1.00  0.00    -0.456 A  
HETATM   17  C   UNL     1      -8.082   9.822  67.135  1.00  0.00    -0.116 A  
HETATM   18  C   UNL     1      -8.330   8.738  67.993  1.00  0.00    -0.119 A  
HETATM   19  C   UNL     1      -9.286   8.830  69.012  1.00  0.00    -0.145 A  
HETATM   20  C   UNL     1      -9.989  10.016  69.155  1.00  0.00    -0.213 A  
HETATM   21  C   UNL     1     -11.043  10.383  70.080  1.00  0.00    -0.383 A  
BRANCH   9  22
HETATM   22  C   UNL     1      -9.948  13.553  68.917  1.00  0.00     0.021 C  
HETATM   23  H1  UNL     1     -10.163  15.410  69.738  1.00  0.00     0.000 HD 
HETATM   24  N   UNL     1     -10.666  14.550  69.517  1.00  0.00    -0.384 N  
HETATM   25  O   UNL     1      -8.758  13.736  68.671  1.00  0.00    -0.147 OA 
HETATM   26  H2  UNL     1     -11.657  14.439  69.735  1.00  0.00     0.000 HD 
ENDBRANCH   9  22
ENDBRANCH   8   9
ENDBRANCH   7   8
ENDBRANCH   6   7
ENDBRANCH   4   6
ENDBRANCH   2   4
TORSDOF 6
ENDMDL
MODEL       93
REMARK 921   NORMALIZED FREE ENERGY PREDICTED BY IDOCK:   -4.62 KCAL/MOL
REMARK 922        TOTAL FREE ENERGY PREDICTED BY IDOCK:   -7.25 KCAL/MOL
REMARK 923 INTER-LIGAND FREE ENERGY PREDICTED BY IDOCK:   -6.76 KCAL/MOL
REMARK 924 INTRA-LIGAND FREE ENERGY PREDICTED BY IDOCK:   -0.49 KCAL/MOL
REMARK 927      BINDING AFFINITY PREDICTED BY RF-SCORE:    0.00 PKD
ROOT
HETATM    1  C   UNL     1     -10.217   4.992  69.909  1.00  0.00    -0.340 C  
HETATM    2  C   UNL     1     -11.203   6.149  70.082  1.00  0.00    -0.382 C  
HETATM    3  C   UNL     1     -10.567   7.253  70.927  1.00  0.00    -0.234 C  
ENDROOT
BRANCH   2   4
HETATM    4  N   UNL     1     -11.568   6.609  68.739  1.00  0.00    -0.546 NA 
HETATM    5  H   UNL     1     -11.704   7.620  68.731  1.00  0.00     0.000 HD 
BRANCH   4   6
HETATM    6  C   UNL     1     -10.626   6.210  67.699  1.00  0.00    -0.270 C  
BRANCH   6   7
HETATM    7  C   UNL     1     -10.244   7.412  66.833  1.00  0.00    -0.346 C  
BRANCH   7   8
HETATM    8  C   UNL     1     -10.727   8.764  67.395  1.00  0.00    -0.216 C  
BRANCH   8   9
HETATM    9  C   UNL     1      -9.839   9.980  67.023  1.00  0.00    -0.238 C  
HETATM   10  C   UNL     1     -10.644  11.285  67.119  1.00  0.00    -0.274 A  
HETATM   11  C   UNL     1      -9.476   9.958  65.533  1.00  0.00    -0.313 A  
HETATM   12  C   UNL     1      -8.728   9.011  64.845  1.00  0.00    -0.200 A  
HETATM   13  C   UNL     1     -11.241  11.844  68.241  1.00  0.00    -0.317 A  
HETATM   14  C   UNL     1      -8.609   9.149  63.463  1.00  0.00    -0.177 A  
HETATM   15  C   UNL     1      -9.235  10.214  62.793  1.00  0.00    -0.322 A  
HETATM   16  C   UNL     1      -9.977  11.172  63.495  1.00  0.00    -0.425 A  
HETATM   17  C   UNL     1     -12.006  12.997  68.070  1.00  0.00    -0.335 A  
HETATM   18  C   UNL     1     -12.167  13.568  66.797  1.00  0.00    -0.392 A  
HETATM   19  C   UNL     1     -11.558  13.001  65.671  1.00  0.00    -0.391 A  
HETATM   20  C   UNL     1     -10.794  11.857  65.837  1.00  0.00    -0.342 A  
HETATM   21  C   UNL     1     -10.086  11.045  64.867  1.00  0.00    -0.359 A  
BRANCH   9  22
HETATM   22  C   UNL     1      -8.581  10.026  67.917  1.00  0.00    -0.121 C  
HETATM   23  H1  UNL     1      -6.815  11.007  68.208  1.00  0.00     0.000 HD 
HETATM   24  N   UNL     1      -7.646  10.977  67.617  1.00  0.00    -0.101 N  
HETATM   25  O   UNL     1      -8.381   9.264  68.860  1.00  0.00    -0.116 OA 
HETATM   26  H2  UNL     1      -7.773  11.625  66.840  1.00  0.00     0.000 HD 
ENDBRANCH   9  22
ENDBRANCH   8   9
ENDBRANCH   7   8
ENDBRANCH   6   7
ENDBRANCH   4   6
ENDBRANCH   2   4
TORSDOF 6
ENDMDL
MODEL       94
REMARK 921   NORMALIZED FREE ENERGY PREDICTED BY IDOCK:   -4.62 KCAL/MOL
REMARK 922        TOTAL FREE ENERGY PREDICTED BY IDOCK:   -7.24 KCAL/MOL
REMARK 923 INTER-LIGAND FREE ENERGY PREDICTED BY IDOCK:   -5.61 KCAL/MOL
REMARK 924 INTRA-LIGAND FREE ENERGY PREDICTED BY IDOCK:   -1.63 KCAL/MOL
REMARK 927      BINDING AFFINITY PREDICTED BY RF-SCORE:    0.00 PKD
ROOT
HETATM    1  C   UNL     1      -8.376   6.227  69.518  1.00  0.00    -0.118 C  
HETATM    2  C   UNL     1      -9.520   5.991  68.530  1.00  0.00    -0.120 C  
HETATM    3  C   UNL     1     -10.861   6.256  69.214  1.00  0.00    -0.406 C  
ENDROOT
BRANCH   2   4
HETATM    4  N   UNL     1      -9.290   6.874  67.384  1.00  0.00    -0.130 NA 
HETATM    5  H   UNL     1      -8.891   6.353  66.603  1.00  0.00     0.000 HD 
BRANCH   4   6
HETATM    6  C   UNL     1     -10.475   7.611  66.956  1.00  0.00    -0.349 C  
BRANCH   6   7
HETATM    7  C   UNL     1     -10.104   9.044  66.571  1.00  0.00    -0.354 C  
BRANCH   7   8
HETATM    8  C   UNL     1     -11.035  10.114  67.177  1.00  0.00    -0.204 C  
BRANCH   8   9
HETATM    9  C   UNL     1     -10.436  10.899  68.372  1.00  0.00    -0.206 C  
HETATM   10  C   UNL     1      -8.908  10.746  68.406  1.00  0.00    -0.146 A  
HETATM   11  C   UNL     1     -10.834  10.255  69.706  1.00  0.00    -0.332 A  
HETATM   12  C   UNL     1     -12.106  10.112  70.246  1.00  0.00    -0.282 A  
HETATM   13  C   UNL     1      -7.983  11.152  67.452  1.00  0.00    -0.125 A  
HETATM   14  C   UNL     1     -12.235   9.400  71.437  1.00  0.00    -0.438 A  
HETATM   15  C   UNL     1     -11.109   8.842  72.064  1.00  0.00    -0.441 A  
HETATM   16  C   UNL     1      -9.828   9.002  71.522  1.00  0.00    -0.381 A  
HETATM   17  C   UNL     1      -6.644  10.820  67.656  1.00  0.00    -0.061 A  
HETATM   18  C   UNL     1      -6.250  10.095  68.792  1.00  0.00    -0.047 A  
HETATM   19  C   UNL     1      -7.188   9.694  69.752  1.00  0.00    -0.094 A  
HETATM   20  C   UNL     1      -8.519  10.024  69.555  1.00  0.00    -0.186 A  
HETATM   21  C   UNL     1      -9.694   9.719  70.347  1.00  0.00    -0.244 A  
BRANCH   9  22
HETATM   22  C   UNL     1     -10.852  12.385  68.309  1.00  0.00    -0.237 C  
HETATM   23  H1  UNL     1     -10.813  14.142  69.347  1.00  0.00     0.000 HD 
HETATM   24  N   UNL     1     -10.538  13.161  69.389  1.00  0.00    -0.417 N  
HETATM   25  O   UNL     1     -11.444  12.892  67.358  1.00  0.00    -0.296 OA 
HETATM   26  H2  UNL     1     -10.051  12.777  70.200  1.00  0.00     0.000 HD 
ENDBRANCH   9  22
ENDBRANCH   8   9
ENDBRANCH   7   8
ENDBRANCH   6   7
ENDBRANCH   4   6
ENDBRANCH   2   4
TORSDOF 6
ENDMDL
MODEL       95
REMARK 921   NORMALIZED FREE ENERGY PREDICTED BY IDOCK:   -4.60 KCAL/MOL
REMARK 922        TOTAL FREE ENERGY PREDICTED BY IDOCK:   -7.22 KCAL/MOL
REMARK 923 INTER-LIGAND FREE ENERGY PREDICTED BY IDOCK:   -6.01 KCAL/MOL
REMARK 924 INTRA-LIGAND FREE ENERGY PREDICTED BY IDOCK:   -1.21 KCAL/MOL
REMARK 927      BINDING AFFINITY PREDICTED BY RF-SCORE:    0.00 PKD
ROOT
HETATM    1  C   UNL     1     -10.814  14.059  64.724  1.00  0.00    -0.430 C  
HETATM    2  C   UNL     1     -11.909  13.096  64.261  1.00  0.00    -0.406 C  
HETATM    3  C   UNL     1     -11.291  11.951  63.460  1.00  0.00    -0.516 C  
ENDROOT
BRANCH   2   4
HETATM    4  N   UNL     1     -12.608  12.629  65.461  1.00  0.00    -0.605 NA 
HETATM    5  H   UNL     1     -12.753  11.620  65.422  1.00  0.00     0.000 HD 
BRANCH   4   6
HETATM    6  C   UNL     1     -11.955  13.003  66.712  1.00  0.00    -0.369 C  
BRANCH   6   7
HETATM    7  C   UNL     1     -11.429  11.761  67.433  1.00  0.00    -0.375 C  
BRANCH   7   8
HETATM    8  C   UNL     1     -10.241  12.043  68.376  1.00  0.00    -0.211 C  
BRANCH   8   9
HETATM    9  C   UNL     1      -9.207  10.893  68.484  1.00  0.00    -0.181 C  
HETATM   10  C   UNL     1      -8.928  10.288  67.100  1.00  0.00    -0.145 A  
HETATM   11  C   UNL     1      -9.801   9.689  69.227  1.00  0.00    -0.195 A  
HETATM   12  C   UNL     1     -10.236   9.621  70.544  1.00  0.00    -0.351 A  
HETATM   13  C   UNL     1      -8.379  10.910  65.986  1.00  0.00    -0.165 A  
HETATM   14  C   UNL     1     -10.834   8.439  70.975  1.00  0.00    -0.280 A  
HETATM   15  C   UNL     1     -10.995   7.355  70.096  1.00  0.00    -0.272 A  
HETATM   16  C   UNL     1     -10.541   7.426  68.773  1.00  0.00    -0.189 A  
HETATM   17  C   UNL     1      -8.305  10.181  64.800  1.00  0.00    -0.167 A  
HETATM   18  C   UNL     1      -8.777   8.860  64.739  1.00  0.00    -0.162 A  
HETATM   19  C   UNL     1      -9.325   8.238  65.868  1.00  0.00    -0.165 A  
HETATM   20  C   UNL     1      -9.397   8.957  67.050  1.00  0.00    -0.194 A  
HETATM   21  C   UNL     1      -9.935   8.593  68.346  1.00  0.00    -0.204 A  
BRANCH   9  22
HETATM   22  C   UNL     1      -7.908  11.393  69.153  1.00  0.00     0.027 C  
HETATM   23  H1  UNL     1      -6.780  13.059  69.497  1.00  0.00     0.000 HD 
HETATM   24  N   UNL     1      -7.638  12.729  69.055  1.00  0.00    -0.325 N  
HETATM   25  O   UNL     1      -7.120  10.664  69.752  1.00  0.00    -0.134 OA 
HETATM   26  H2  UNL     1      -8.264  13.366  68.562  1.00  0.00     0.000 HD 
ENDBRANCH   9  22
ENDBRANCH   8   9
ENDBRANCH   7   8
ENDBRANCH   6   7
ENDBRANCH   4   6
ENDBRANCH   2   4
TORSDOF 6
ENDMDL
MODEL       96
REMARK 921   NORMALIZED FREE ENERGY PREDICTED BY IDOCK:   -4.59 KCAL/MOL
REMARK 922        TOTAL FREE ENERGY PREDICTED BY IDOCK:   -7.20 KCAL/MOL
REMARK 923 INTER-LIGAND FREE ENERGY PREDICTED BY IDOCK:   -6.44 KCAL/MOL
REMARK 924 INTRA-LIGAND FREE ENERGY PREDICTED BY IDOCK:   -0.77 KCAL/MOL
REMARK 927      BINDING AFFINITY PREDICTED BY RF-SCORE:    0.00 PKD
ROOT
HETATM    1  C   UNL     1      -9.451   3.554  65.621  1.00  0.00    -0.142 C  
HETATM    2  C   UNL     1      -9.088   5.014  65.900  1.00  0.00    -0.150 C  
HETATM    3  C   UNL     1      -8.202   5.553  64.776  1.00  0.00    -0.133 C  
ENDROOT
BRANCH   2   4
HETATM    4  N   UNL     1     -10.346   5.754  66.028  1.00  0.00    -0.437 NA 
HETATM    5  H   UNL     1     -11.143   5.120  65.976  1.00  0.00     0.000 HD 
BRANCH   4   6
HETATM    6  C   UNL     1     -10.428   6.581  67.228  1.00  0.00    -0.272 C  
BRANCH   6   7
HETATM    7  C   UNL     1     -10.733   8.033  66.857  1.00  0.00    -0.201 C  
BRANCH   7   8
HETATM    8  C   UNL     1      -9.544   8.777  66.214  1.00  0.00    -0.328 C  
BRANCH   8   9
HETATM    9  C   UNL     1      -9.401  10.263  66.633  1.00  0.00    -0.192 C  
HETATM   10  C   UNL     1     -10.081  10.509  67.988  1.00  0.00    -0.190 A  
HETATM   11  C   UNL     1     -10.223  11.173  65.712  1.00  0.00    -0.310 A  
HETATM   12  C   UNL     1     -10.063  11.387  64.349  1.00  0.00    -0.341 A  
HETATM   13  C   UNL     1      -9.766   9.951  69.220  1.00  0.00    -0.218 A  
HETATM   14  C   UNL     1     -10.998  12.190  63.698  1.00  0.00    -0.527 A  
HETATM   15  C   UNL     1     -12.071  12.758  64.406  1.00  0.00    -0.484 A  
HETATM   16  C   UNL     1     -12.218  12.549  65.782  1.00  0.00    -0.361 A  
HETATM   17  C   UNL     1     -10.588  10.253  70.305  1.00  0.00    -0.264 A  
HETATM   18  C   UNL     1     -11.702  11.095  70.148  1.00  0.00    -0.439 A  
HETATM   19  C   UNL     1     -12.011  11.656  68.904  1.00  0.00    -0.355 A  
HETATM   20  C   UNL     1     -11.194  11.362  67.824  1.00  0.00    -0.346 A  
HETATM   21  C   UNL     1     -11.285  11.764  66.434  1.00  0.00    -0.382 A  
BRANCH   9  22
HETATM   22  C   UNL     1      -7.914  10.677  66.665  1.00  0.00    -0.134 C  
HETATM   23  H1  UNL     1      -6.021  10.013  66.285  1.00  0.00     0.000 HD 
HETATM   24  N   UNL     1      -7.004   9.739  66.264  1.00  0.00    -0.091 N  
HETATM   25  O   UNL     1      -7.516  11.781  67.031  1.00  0.00    -0.141 OA 
HETATM   26  H2  UNL     1      -7.293   8.810  65.957  1.00  0.00     0.000 HD 
ENDBRANCH   9  22
ENDBRANCH   8   9
ENDBRANCH   7   8
ENDBRANCH   6   7
ENDBRANCH   4   6
ENDBRANCH   2   4
TORSDOF 6
ENDMDL
MODEL       97
REMARK 921   NORMALIZED FREE ENERGY PREDICTED BY IDOCK:   -4.58 KCAL/MOL
REMARK 922        TOTAL FREE ENERGY PREDICTED BY IDOCK:   -7.20 KCAL/MOL
REMARK 923 INTER-LIGAND FREE ENERGY PREDICTED BY IDOCK:   -5.74 KCAL/MOL
REMARK 924 INTRA-LIGAND FREE ENERGY PREDICTED BY IDOCK:   -1.46 KCAL/MOL
REMARK 927      BINDING AFFINITY PREDICTED BY RF-SCORE:    0.00 PKD
ROOT
HETATM    1  C   UNL     1     -10.343   8.962  72.041  1.00  0.00    -0.378 C  
HETATM    2  C   UNL     1     -11.704   9.349  71.459  1.00  0.00    -0.394 C  
HETATM    3  C   UNL     1     -11.576  10.642  70.653  1.00  0.00    -0.432 C  
ENDROOT
BRANCH   2   4
HETATM    4  N   UNL     1     -12.160   8.221  70.642  1.00  0.00    -0.491 NA 
HETATM    5  H   UNL     1     -11.799   8.297  69.691  1.00  0.00     0.000 HD 
BRANCH   4   6
HETATM    6  C   UNL     1     -11.843   6.913  71.206  1.00  0.00    -0.341 C  
BRANCH   6   7
HETATM    7  C   UNL     1     -11.087   6.059  70.188  1.00  0.00    -0.432 C  
BRANCH   7   8
HETATM    8  C   UNL     1     -11.263   6.527  68.728  1.00  0.00    -0.319 C  
BRANCH   8   9
HETATM    9  C   UNL     1      -9.944   6.886  67.995  1.00  0.00    -0.175 C  
HETATM   10  C   UNL     1      -8.733   6.618  68.902  1.00  0.00    -0.128 A  
HETATM   11  C   UNL     1      -9.831   8.400  67.780  1.00  0.00    -0.218 A  
HETATM   12  C   UNL     1     -10.652   9.223  67.020  1.00  0.00    -0.263 A  
HETATM   13  C   UNL     1      -8.311   5.406  69.434  1.00  0.00    -0.096 A  
HETATM   14  C   UNL     1     -10.411  10.596  67.050  1.00  0.00    -0.295 A  
HETATM   15  C   UNL     1      -9.371  11.124  67.834  1.00  0.00    -0.161 A  
HETATM   16  C   UNL     1      -8.539  10.286  68.586  1.00  0.00    -0.128 A  
HETATM   17  C   UNL     1      -7.229   5.420  70.314  1.00  0.00    -0.066 A  
HETATM   18  C   UNL     1      -6.593   6.626  70.650  1.00  0.00    -0.053 A  
HETATM   19  C   UNL     1      -7.022   7.842  70.106  1.00  0.00    -0.049 A  
HETATM   20  C   UNL     1      -8.094   7.834  69.228  1.00  0.00    -0.127 A  
HETATM   21  C   UNL     1      -8.767   8.923  68.548  1.00  0.00    -0.134 A  
BRANCH   9  22
HETATM   22  C   UNL     1      -9.835   6.110  66.665  1.00  0.00    -0.159 C  
HETATM   23  H1  UNL     1     -10.888   4.955  65.352  1.00  0.00     0.000 HD 
HETATM   24  N   UNL     1     -10.960   5.467  66.231  1.00  0.00    -0.751 N  
HETATM   25  O   UNL     1      -8.807   6.038  65.994  1.00  0.00    -0.148 OA 
HETATM   26  H2  UNL     1     -11.832   5.499  66.761  1.00  0.00     0.000 HD 
ENDBRANCH   9  22
ENDBRANCH   8   9
ENDBRANCH   7   8
ENDBRANCH   6   7
ENDBRANCH   4   6
ENDBRANCH   2   4
TORSDOF 6
ENDMDL
MODEL       98
REMARK 921   NORMALIZED FREE ENERGY PREDICTED BY IDOCK:   -4.58 KCAL/MOL
REMARK 922        TOTAL FREE ENERGY PREDICTED BY IDOCK:   -7.19 KCAL/MOL
REMARK 923 INTER-LIGAND FREE ENERGY PREDICTED BY IDOCK:   -5.74 KCAL/MOL
REMARK 924 INTRA-LIGAND FREE ENERGY PREDICTED BY IDOCK:   -1.45 KCAL/MOL
REMARK 927      BINDING AFFINITY PREDICTED BY RF-SCORE:    0.00 PKD
ROOT
HETATM    1  C   UNL     1      -8.561  18.360  66.898  1.00  0.00    -0.276 C  
HETATM    2  C   UNL     1     -10.045  17.996  66.825  1.00  0.00    -0.356 C  
HETATM    3  C   UNL     1     -10.886  19.108  67.453  1.00  0.00    -0.533 C  
ENDROOT
BRANCH   2   4
HETATM    4  N   UNL     1     -10.367  17.778  65.412  1.00  0.00    -0.533 NA 
HETATM    5  H   UNL     1      -9.586  18.058  64.819  1.00  0.00     0.000 HD 
BRANCH   4   6
HETATM    6  C   UNL     1     -10.783  16.414  65.102  1.00  0.00    -0.291 C  
BRANCH   6   7
HETATM    7  C   UNL     1     -10.825  15.565  66.373  1.00  0.00    -0.277 C  
BRANCH   7   8
HETATM    8  C   UNL     1      -9.919  14.319  66.322  1.00  0.00    -0.319 C  
BRANCH   8   9
HETATM    9  C   UNL     1      -9.366  13.858  67.696  1.00  0.00    -0.205 C  
HETATM   10  C   UNL     1     -10.328  14.257  68.825  1.00  0.00    -0.239 A  
HETATM   11  C   UNL     1      -8.109  14.652  68.075  1.00  0.00    -0.135 A  
HETATM   12  C   UNL     1      -6.883  14.681  67.424  1.00  0.00    -0.085 A  
HETATM   13  C   UNL     1     -11.640  13.845  69.021  1.00  0.00    -0.351 A  
HETATM   14  C   UNL     1      -5.910  15.558  67.900  1.00  0.00    -0.161 A  
HETATM   15  C   UNL     1      -6.172  16.389  69.002  1.00  0.00    -0.158 A  
HETATM   16  C   UNL     1      -7.406  16.344  69.662  1.00  0.00     0.103 A  
HETATM   17  C   UNL     1     -12.356  14.417  70.072  1.00  0.00    -0.391 A  
HETATM   18  C   UNL     1     -11.762  15.381  70.903  1.00  0.00    -0.395 A  
HETATM   19  C   UNL     1     -10.437  15.787  70.702  1.00  0.00     0.042 A  
HETATM   20  C   UNL     1      -9.721  15.220  69.661  1.00  0.00    -0.208 A  
HETATM   21  C   UNL     1      -8.369  15.465  69.201  1.00  0.00    -0.242 A  
BRANCH   9  22
HETATM   22  C   UNL     1      -9.101  12.337  67.692  1.00  0.00    -0.184 C  
HETATM   23  H1  UNL     1      -8.480  10.780  68.857  1.00  0.00     0.000 HD 
HETATM   24  N   UNL     1      -8.654  11.785  68.859  1.00  0.00    -0.370 N  
HETATM   25  O   UNL     1      -9.265  11.614  66.711  1.00  0.00    -0.175 OA 
HETATM   26  H2  UNL     1      -8.502  12.351  69.695  1.00  0.00     0.000 HD 
ENDBRANCH   9  22
ENDBRANCH   8   9
ENDBRANCH   7   8
ENDBRANCH   6   7
ENDBRANCH   4   6
ENDBRANCH   2   4
TORSDOF 6
ENDMDL
MODEL       99
REMARK 921   NORMALIZED FREE ENERGY PREDICTED BY IDOCK:   -4.58 KCAL/MOL
REMARK 922        TOTAL FREE ENERGY PREDICTED BY IDOCK:   -7.19 KCAL/MOL
REMARK 923 INTER-LIGAND FREE ENERGY PREDICTED BY IDOCK:   -6.31 KCAL/MOL
REMARK 924 INTRA-LIGAND FREE ENERGY PREDICTED BY IDOCK:   -0.88 KCAL/MOL
REMARK 927      BINDING AFFINITY PREDICTED BY RF-SCORE:    0.00 PKD
ROOT
HETATM    1  C   UNL     1      -7.392   9.580  67.667  1.00  0.00    -0.083 C  
HETATM    2  C   UNL     1      -8.262   9.558  68.926  1.00  0.00    -0.116 C  
HETATM    3  C   UNL     1      -7.665   8.597  69.954  1.00  0.00    -0.084 C  
ENDROOT
BRANCH   2   4
HETATM    4  N   UNL     1      -8.338  10.935  69.421  1.00  0.00    -0.380 NA 
HETATM    5  H   UNL     1      -8.069  10.978  70.404  1.00  0.00     0.000 HD 
BRANCH   4   6
HETATM    6  C   UNL     1      -7.564  11.892  68.637  1.00  0.00    -0.119 C  
BRANCH   6   7
HETATM    7  C   UNL     1      -8.443  13.066  68.206  1.00  0.00    -0.159 C  
BRANCH   7   8
HETATM    8  C   UNL     1      -9.781  12.643  67.566  1.00  0.00    -0.196 C  
BRANCH   8   9
HETATM    9  C   UNL     1     -10.832  13.776  67.440  1.00  0.00    -0.285 C  
HETATM   10  C   UNL     1     -10.145  15.114  67.124  1.00  0.00    -0.239 A  
HETATM   11  C   UNL     1     -11.475  14.080  68.799  1.00  0.00    -0.327 A  
HETATM   12  C   UNL     1     -12.253  13.243  69.588  1.00  0.00    -0.258 A  
HETATM   13  C   UNL     1      -9.395  15.450  66.005  1.00  0.00    -0.364 A  
HETATM   14  C   UNL     1     -12.652  13.707  70.840  1.00  0.00    -0.421 A  
HETATM   15  C   UNL     1     -12.268  14.982  71.287  1.00  0.00    -0.380 A  
HETATM   16  C   UNL     1     -11.494  15.826  70.481  1.00  0.00    -0.401 A  
HETATM   17  C   UNL     1      -8.786  16.704  65.978  1.00  0.00    -0.242 A  
HETATM   18  C   UNL     1      -8.930  17.595  67.055  1.00  0.00    -0.258 A  
HETATM   19  C   UNL     1      -9.692  17.250  68.177  1.00  0.00    -0.284 A  
HETATM   20  C   UNL     1     -10.302  16.006  68.207  1.00  0.00    -0.261 A  
HETATM   21  C   UNL     1     -11.108  15.374  69.232  1.00  0.00    -0.280 A  
BRANCH   9  22
HETATM   22  C   UNL     1     -11.890  13.419  66.374  1.00  0.00    -0.396 C  
HETATM   23  H1  UNL     1     -12.496  11.946  65.099  1.00  0.00     0.000 HD 
HETATM   24  N   UNL     1     -11.797  12.181  65.803  1.00  0.00    -0.352 N  
HETATM   25  O   UNL     1     -12.788  14.179  66.018  1.00  0.00    -0.425 OA 
HETATM   26  H2  UNL     1     -11.063  11.523  66.068  1.00  0.00     0.000 HD 
ENDBRANCH   9  22
ENDBRANCH   8   9
ENDBRANCH   7   8
ENDBRANCH   6   7
ENDBRANCH   4   6
ENDBRANCH   2   4
TORSDOF 6
ENDMDL
MODEL      100
REMARK 921   NORMALIZED FREE ENERGY PREDICTED BY IDOCK:   -4.56 KCAL/MOL
REMARK 922        TOTAL FREE ENERGY PREDICTED BY IDOCK:   -7.16 KCAL/MOL
REMARK 923 INTER-LIGAND FREE ENERGY PREDICTED BY IDOCK:   -6.16 KCAL/MOL
REMARK 924 INTRA-LIGAND FREE ENERGY PREDICTED BY IDOCK:   -1.00 KCAL/MOL
REMARK 927      BINDING AFFINITY PREDICTED BY RF-SCORE:    0.00 PKD
ROOT
HETATM    1  C   UNL     1     -11.982  14.239  66.553  1.00  0.00    -0.448 C  
HETATM    2  C   UNL     1     -11.820  12.896  65.839  1.00  0.00    -0.424 C  
HETATM    3  C   UNL     1     -10.439  12.815  65.189  1.00  0.00    -0.320 C  
ENDROOT
BRANCH   2   4
HETATM    4  N   UNL     1     -12.031  11.847  66.841  1.00  0.00    -0.591 NA 
HETATM    5  H   UNL     1     -11.571  10.982  66.558  1.00  0.00     0.000 HD 
BRANCH   4   6
HETATM    6  C   UNL     1     -11.624  12.226  68.191  1.00  0.00    -0.339 C  
BRANCH   6   7
HETATM    7  C   UNL     1     -11.046  11.020  68.933  1.00  0.00    -0.295 C  
BRANCH   7   8
HETATM    8  C   UNL     1     -11.025   9.724  68.097  1.00  0.00    -0.228 C  
BRANCH   8   9
HETATM    9  C   UNL     1     -10.059   8.628  68.619  1.00  0.00    -0.207 C  
HETATM   10  C   UNL     1     -10.370   8.289  70.084  1.00  0.00    -0.212 A  
HETATM   11  C   UNL     1      -8.627   9.167  68.730  1.00  0.00    -0.131 A  
HETATM   12  C   UNL     1      -7.799   9.622  67.712  1.00  0.00    -0.094 A  
HETATM   13  C   UNL     1     -11.538   7.755  70.613  1.00  0.00    -0.233 A  
HETATM   14  C   UNL     1      -6.563  10.160  68.066  1.00  0.00    -0.058 A  
HETATM   15  C   UNL     1      -6.176  10.242  69.414  1.00  0.00    -0.047 A  
HETATM   16  C   UNL     1      -7.011   9.769  70.434  1.00  0.00    -0.139 A  
HETATM   17  C   UNL     1     -11.628   7.618  71.997  1.00  0.00    -0.334 A  
HETATM   18  C   UNL     1     -10.565   8.013  72.827  1.00  0.00    -0.420 A  
HETATM   19  C   UNL     1      -9.389   8.546  72.286  1.00  0.00    -0.363 A  
HETATM   20  C   UNL     1      -9.294   8.680  70.911  1.00  0.00    -0.235 A  
HETATM   21  C   UNL     1      -8.232   9.221  70.085  1.00  0.00    -0.176 A  
BRANCH   9  22
HETATM   22  C   UNL     1     -10.129   7.373  67.723  1.00  0.00    -0.184 C  
HETATM   23  H1  UNL     1     -11.331   6.351  66.428  1.00  0.00     0.000 HD 
HETATM   24  N   UNL     1     -11.285   7.180  67.020  1.00  0.00    -0.565 N  
HETATM   25  O   UNL     1      -9.219   6.553  67.616  1.00  0.00    -0.116 OA 
HETATM   26  H2  UNL     1     -12.066   7.834  67.084  1.00  0.00     0.000 HD 
ENDBRANCH   9  22
ENDBRANCH   8   9
ENDBRANCH   7   8
ENDBRANCH   6   7
ENDBRANCH   4   6
ENDBRANCH   2   4
TORSDOF 6
ENDMDL
MODEL      101
REMARK 921   NORMALIZED FREE ENERGY PREDICTED BY IDOCK:   -4.52 KCAL/MOL
REMARK 922        TOTAL FREE ENERGY PREDICTED BY IDOCK:   -7.12 KCAL/MOL
REMARK 923 INTER-LIGAND FREE ENERGY PREDICTED BY IDOCK:   -5.96 KCAL/MOL
REMARK 924 INTRA-LIGAND FREE ENERGY PREDICTED BY IDOCK:   -1.15 KCAL/MOL
REMARK 927      BINDING AFFINITY PREDICTED BY RF-SCORE:    0.00 PKD
ROOT
HETATM    1  C   UNL     1     -11.462  14.764  66.437  1.00  0.00    -0.319 C  
HETATM    2  C   UNL     1     -11.297  14.692  64.918  1.00  0.00    -0.403 C  
HETATM    3  C   UNL     1     -11.040  16.091  64.356  1.00  0.00    -0.141 C  
ENDROOT
BRANCH   2   4
HETATM    4  N   UNL     1     -10.193  13.767  64.647  1.00  0.00    -0.609 NA 
HETATM    5  H   UNL     1      -9.663  13.582  65.498  1.00  0.00     0.000 HD 
BRANCH   4   6
HETATM    6  C   UNL     1     -10.608  12.516  64.019  1.00  0.00    -0.421 C  
BRANCH   6   7
HETATM    7  C   UNL     1     -10.182  11.322  64.874  1.00  0.00    -0.341 C  
BRANCH   7   8
HETATM    8  C   UNL     1     -11.013  11.147  66.161  1.00  0.00    -0.203 C  
BRANCH   8   9
HETATM    9  C   UNL     1     -10.202  10.708  67.407  1.00  0.00    -0.243 C  
HETATM   10  C   UNL     1      -8.879  11.486  67.490  1.00  0.00    -0.155 A  
HETATM   11  C   UNL     1      -9.697   9.268  67.254  1.00  0.00    -0.218 A  
HETATM   12  C   UNL     1     -10.444   8.102  67.146  1.00  0.00    -0.396 A  
HETATM   13  C   UNL     1      -8.696  12.854  67.637  1.00  0.00    -0.185 A  
HETATM   14  C   UNL     1      -9.764   6.908  66.915  1.00  0.00    -0.222 A  
HETATM   15  C   UNL     1      -8.365   6.893  66.789  1.00  0.00    -0.116 A  
HETATM   16  C   UNL     1      -7.617   8.070  66.913  1.00  0.00    -0.095 A  
HETATM   17  C   UNL     1      -7.393  13.349  67.593  1.00  0.00    -0.173 A  
HETATM   18  C   UNL     1      -6.304  12.483  67.401  1.00  0.00    -0.157 A  
HETATM   19  C   UNL     1      -6.496  11.104  67.258  1.00  0.00    -0.079 A  
HETATM   20  C   UNL     1      -7.789  10.608  67.305  1.00  0.00    -0.112 A  
HETATM   21  C   UNL     1      -8.287   9.255  67.156  1.00  0.00    -0.124 A  
BRANCH   9  22
HETATM   22  C   UNL     1     -11.041  10.885  68.691  1.00  0.00    -0.252 C  
HETATM   23  H1  UNL     1     -10.972  10.734  70.725  1.00  0.00     0.000 HD 
HETATM   24  N   UNL     1     -10.418  10.617  69.878  1.00  0.00    -0.438 N  
HETATM   25  O   UNL     1     -12.217  11.243  68.699  1.00  0.00    -0.562 OA 
HETATM   26  H2  UNL     1      -9.444  10.313  69.914  1.00  0.00     0.000 HD 
ENDBRANCH   9  22
ENDBRANCH   8   9
ENDBRANCH   7   8
ENDBRANCH   6   7
ENDBRANCH   4   6
ENDBRANCH   2   4
TORSDOF 6
ENDMDL
MODEL      102
REMARK 921   NORMALIZED FREE ENERGY PREDICTED BY IDOCK:   -4.52 KCAL/MOL
REMARK 922        TOTAL FREE ENERGY PREDICTED BY IDOCK:   -7.11 KCAL/MOL
REMARK 923 INTER-LIGAND FREE ENERGY PREDICTED BY IDOCK:   -5.90 KCAL/MOL
REMARK 924 INTRA-LIGAND FREE ENERGY PREDICTED BY IDOCK:   -1.21 KCAL/MOL
REMARK 927      BINDING AFFINITY PREDICTED BY RF-SCORE:    0.00 PKD
ROOT
HETATM    1  C   UNL     1     -10.914  11.642  67.414  1.00  0.00    -0.313 C  
HETATM    2  C   UNL     1     -10.698  11.963  68.894  1.00  0.00    -0.199 C  
HETATM    3  C   UNL     1     -12.005  11.770  69.664  1.00  0.00    -0.378 C  
ENDROOT
BRANCH   2   4
HETATM    4  N   UNL     1      -9.628  11.084  69.375  1.00  0.00    -0.422 NA 
HETATM    5  H   UNL     1      -9.844  10.733  70.308  1.00  0.00     0.000 HD 
BRANCH   4   6
HETATM    6  C   UNL     1      -9.317   9.980  68.472  1.00  0.00    -0.145 C  
BRANCH   6   7
HETATM    7  C   UNL     1      -9.070   8.695  69.263  1.00  0.00    -0.149 C  
BRANCH   7   8
HETATM    8  C   UNL     1      -8.576   8.934  70.704  1.00  0.00    -0.224 C  
BRANCH   8   9
HETATM    9  C   UNL     1      -9.164   7.966  71.764  1.00  0.00    -0.194 C  
HETATM   10  C   UNL     1      -8.981   6.507  71.321  1.00  0.00    -0.141 A  
HETATM   11  C   UNL     1     -10.693   8.077  71.819  1.00  0.00    -0.296 A  
HETATM   12  C   UNL     1     -11.462   9.175  72.178  1.00  0.00    -0.238 A  
HETATM   13  C   UNL     1      -7.795   5.819  71.098  1.00  0.00    -0.111 A  
HETATM   14  C   UNL     1     -12.847   9.071  72.059  1.00  0.00    -0.468 A  
HETATM   15  C   UNL     1     -13.439   7.889  71.582  1.00  0.00    -0.386 A  
HETATM   16  C   UNL     1     -12.657   6.781  71.235  1.00  0.00    -0.328 A  
HETATM   17  C   UNL     1      -7.875   4.517  70.606  1.00  0.00    -0.057 A  
HETATM   18  C   UNL     1      -9.122   3.926  70.343  1.00  0.00    -0.188 A  
HETATM   19  C   UNL     1     -10.313   4.624  70.574  1.00  0.00    -0.109 A  
HETATM   20  C   UNL     1     -10.238   5.917  71.066  1.00  0.00    -0.266 A  
HETATM   21  C   UNL     1     -11.283   6.876  71.365  1.00  0.00    -0.296 A  
BRANCH   9  22
HETATM   22  C   UNL     1      -8.522   8.221  73.145  1.00  0.00    -0.198 C  
HETATM   23  H1  UNL     1      -8.721   7.830  75.139  1.00  0.00     0.000 HD 
HETATM   24  N   UNL     1      -9.144   7.662  74.226  1.00  0.00    -0.433 N  
HETATM   25  O   UNL     1      -7.506   8.890  73.317  1.00  0.00    -0.362 OA 
HETATM   26  H2  UNL     1      -9.993   7.104  74.126  1.00  0.00     0.000 HD 
ENDBRANCH   9  22
ENDBRANCH   8   9
ENDBRANCH   7   8
ENDBRANCH   6   7
ENDBRANCH   4   6
ENDBRANCH   2   4
TORSDOF 6
ENDMDL
MODEL      103
REMARK 921   NORMALIZED FREE ENERGY PREDICTED BY IDOCK:   -4.50 KCAL/MOL
REMARK 922        TOTAL FREE ENERGY PREDICTED BY IDOCK:   -7.09 KCAL/MOL
REMARK 923 INTER-LIGAND FREE ENERGY PREDICTED BY IDOCK:   -5.94 KCAL/MOL
REMARK 924 INTRA-LIGAND FREE ENERGY PREDICTED BY IDOCK:   -1.15 KCAL/MOL
REMARK 927      BINDING AFFINITY PREDICTED BY RF-SCORE:    0.00 PKD
ROOT
HETATM    1  C   UNL     1      -9.528   2.423  70.825  1.00  0.00    -0.206 C  
HETATM    2  C   UNL     1      -9.895   3.678  71.619  1.00  0.00    -0.160 C  
HETATM    3  C   UNL     1      -9.173   3.671  72.967  1.00  0.00    -0.118 C  
ENDROOT
BRANCH   2   4
HETATM    4  N   UNL     1      -9.530   4.833  70.793  1.00  0.00    -0.151 NA 
HETATM    5  H   UNL     1      -8.527   4.840  70.610  1.00  0.00     0.000 HD 
BRANCH   4   6
HETATM    6  C   UNL     1     -10.280   4.930  69.545  1.00  0.00    -0.177 C  
BRANCH   6   7
HETATM    7  C   UNL     1     -10.744   6.368  69.309  1.00  0.00    -0.349 C  
BRANCH   7   8
HETATM    8  C   UNL     1     -11.850   6.833  70.278  1.00  0.00    -0.359 C  
BRANCH   8   9
HETATM    9  C   UNL     1     -11.528   8.133  71.061  1.00  0.00    -0.301 C  
HETATM   10  C   UNL     1     -10.645   9.064  70.217  1.00  0.00    -0.250 A  
HETATM   11  C   UNL     1     -10.607   7.840  72.252  1.00  0.00    -0.315 A  
HETATM   12  C   UNL     1     -10.868   7.056  73.368  1.00  0.00    -0.332 A  
HETATM   13  C   UNL     1     -10.947   9.666  69.002  1.00  0.00    -0.161 A  
HETATM   14  C   UNL     1      -9.836   6.855  74.283  1.00  0.00    -0.312 A  
HETATM   15  C   UNL     1      -8.570   7.426  74.072  1.00  0.00    -0.250 A  
HETATM   16  C   UNL     1      -8.318   8.227  72.952  1.00  0.00    -0.245 A  
HETATM   17  C   UNL     1      -9.946  10.402  68.369  1.00  0.00    -0.177 A  
HETATM   18  C   UNL     1      -8.672  10.526  68.948  1.00  0.00    -0.154 A  
HETATM   19  C   UNL     1      -8.377   9.921  70.175  1.00  0.00    -0.156 A  
HETATM   20  C   UNL     1      -9.369   9.191  70.809  1.00  0.00    -0.325 A  
HETATM   21  C   UNL     1      -9.344   8.440  72.049  1.00  0.00    -0.332 A  
BRANCH   9  22
HETATM   22  C   UNL     1     -12.828   8.836  71.503  1.00  0.00    -0.325 C  
HETATM   23  H1  UNL     1     -13.572  10.587  72.245  1.00  0.00     0.000 HD 
HETATM   24  N   UNL     1     -12.712  10.122  71.953  1.00  0.00    -0.415 N  
HETATM   25  O   UNL     1     -13.938   8.308  71.477  1.00  0.00    -0.372 OA 
HETATM   26  H2  UNL     1     -11.809  10.594  71.994  1.00  0.00     0.000 HD 
ENDBRANCH   9  22
ENDBRANCH   8   9
ENDBRANCH   7   8
ENDBRANCH   6   7
ENDBRANCH   4   6
ENDBRANCH   2   4
TORSDOF 6
ENDMDL
MODEL      104
REMARK 921   NORMALIZED FREE ENERGY PREDICTED BY IDOCK:   -4.50 KCAL/MOL
REMARK 922        TOTAL FREE ENERGY PREDICTED BY IDOCK:   -7.09 KCAL/MOL
REMARK 923 INTER-LIGAND FREE ENERGY PREDICTED BY IDOCK:   -5.59 KCAL/MOL
REMARK 924 INTRA-LIGAND FREE ENERGY PREDICTED BY IDOCK:   -1.49 KCAL/MOL
REMARK 927      BINDING AFFINITY PREDICTED BY RF-SCORE:    0.00 PKD
ROOT
HETATM    1  C   UNL     1     -11.656  10.025  70.430  1.00  0.00    -0.379 C  
HETATM    2  C   UNL     1     -10.921  10.712  69.278  1.00  0.00    -0.245 C  
HETATM    3  C   UNL     1      -9.412  10.527  69.440  1.00  0.00    -0.158 C  
ENDROOT
BRANCH   2   4
HETATM    4  N   UNL     1     -11.427  10.127  68.033  1.00  0.00    -0.643 NA 
HETATM    5  H   UNL     1     -12.352  10.497  67.813  1.00  0.00     0.000 HD 
BRANCH   4   6
HETATM    6  C   UNL     1     -10.527  10.285  66.894  1.00  0.00    -0.229 C  
BRANCH   6   7
HETATM    7  C   UNL     1      -9.987   8.927  66.446  1.00  0.00    -0.354 C  
BRANCH   7   8
HETATM    8  C   UNL     1     -10.810   7.728  66.960  1.00  0.00    -0.176 C  
BRANCH   8   9
HETATM    9  C   UNL     1      -9.979   6.613  67.647  1.00  0.00    -0.161 C  
HETATM   10  C   UNL     1     -10.274   6.574  69.155  1.00  0.00    -0.208 A  
HETATM   11  C   UNL     1      -8.485   6.960  67.640  1.00  0.00    -0.122 A  
HETATM   12  C   UNL     1      -7.645   7.117  66.546  1.00  0.00    -0.092 A  
HETATM   13  C   UNL     1     -11.481   6.304  69.787  1.00  0.00    -0.449 A  
HETATM   14  C   UNL     1      -6.335   7.532  66.780  1.00  0.00    -0.049 A  
HETATM   15  C   UNL     1      -5.887   7.787  68.087  1.00  0.00    -0.040 A  
HETATM   16  C   UNL     1      -6.736   7.613  69.187  1.00  0.00    -0.048 A  
HETATM   17  C   UNL     1     -11.533   6.419  71.175  1.00  0.00    -0.381 A  
HETATM   18  C   UNL     1     -10.395   6.798  71.906  1.00  0.00    -0.217 A  
HETATM   19  C   UNL     1      -9.180   7.064  71.262  1.00  0.00    -0.152 A  
HETATM   20  C   UNL     1      -9.124   6.948  69.883  1.00  0.00    -0.144 A  
HETATM   21  C   UNL     1      -8.033   7.189  68.959  1.00  0.00    -0.120 A  
BRANCH   9  22
HETATM   22  C   UNL     1     -10.252   5.246  66.984  1.00  0.00    -0.234 C  
HETATM   23  H1  UNL     1     -11.292   4.332  65.485  1.00  0.00     0.000 HD 
HETATM   24  N   UNL     1     -11.113   5.235  65.923  1.00  0.00    -0.800 N  
HETATM   25  O   UNL     1      -9.748   4.189  67.359  1.00  0.00    -0.190 OA 
HETATM   26  H2  UNL     1     -11.555   6.091  65.585  1.00  0.00     0.000 HD 
ENDBRANCH   9  22
ENDBRANCH   8   9
ENDBRANCH   7   8
ENDBRANCH   6   7
ENDBRANCH   4   6
ENDBRANCH   2   4
TORSDOF 6
ENDMDL
MODEL      105
REMARK 921   NORMALIZED FREE ENERGY PREDICTED BY IDOCK:   -4.50 KCAL/MOL
REMARK 922        TOTAL FREE ENERGY PREDICTED BY IDOCK:   -7.08 KCAL/MOL
REMARK 923 INTER-LIGAND FREE ENERGY PREDICTED BY IDOCK:   -6.16 KCAL/MOL
REMARK 924 INTRA-LIGAND FREE ENERGY PREDICTED BY IDOCK:   -0.92 KCAL/MOL
REMARK 927      BINDING AFFINITY PREDICTED BY RF-SCORE:    0.00 PKD
ROOT
HETATM    1  C   UNL     1      -9.113   4.852  64.971  1.00  0.00    -0.133 C  
HETATM    2  C   UNL     1      -8.597   5.805  66.050  1.00  0.00    -0.139 C  
HETATM    3  C   UNL     1      -7.305   6.475  65.579  1.00  0.00    -0.076 C  
ENDROOT
BRANCH   2   4
HETATM    4  N   UNL     1      -9.665   6.773  66.319  1.00  0.00    -0.389 NA 
HETATM    5  H   UNL     1      -9.979   7.209  65.452  1.00  0.00     0.000 HD 
BRANCH   4   6
HETATM    6  C   UNL     1     -10.797   6.217  67.053  1.00  0.00    -0.383 C  
BRANCH   6   7
HETATM    7  C   UNL     1     -11.066   7.033  68.319  1.00  0.00    -0.080 C  
BRANCH   7   8
HETATM    8  C   UNL     1      -9.989   8.096  68.616  1.00  0.00    -0.201 C  
BRANCH   8   9
HETATM    9  C   UNL     1      -9.765   8.394  70.122  1.00  0.00    -0.175 C  
HETATM   10  C   UNL     1      -9.794   7.093  70.938  1.00  0.00    -0.182 A  
HETATM   11  C   UNL     1     -10.961   9.151  70.715  1.00  0.00    -0.332 A  
HETATM   12  C   UNL     1     -11.428  10.415  70.382  1.00  0.00    -0.420 A  
HETATM   13  C   UNL     1      -8.937   6.004  70.848  1.00  0.00    -0.146 A  
HETATM   14  C   UNL     1     -12.600  10.861  70.991  1.00  0.00    -0.517 A  
HETATM   15  C   UNL     1     -13.284  10.047  71.910  1.00  0.00    -0.557 A  
HETATM   16  C   UNL     1     -12.799   8.779  72.251  1.00  0.00    -0.465 A  
HETATM   17  C   UNL     1      -9.215   4.886  71.633  1.00  0.00    -0.179 A  
HETATM   18  C   UNL     1     -10.332   4.867  72.484  1.00  0.00    -0.256 A  
HETATM   19  C   UNL     1     -11.189   5.971  72.573  1.00  0.00    -0.333 A  
HETATM   20  C   UNL     1     -10.914   7.086  71.798  1.00  0.00    -0.263 A  
HETATM   21  C   UNL     1     -11.630   8.339  71.658  1.00  0.00    -0.337 A  
BRANCH   9  22
HETATM   22  C   UNL     1      -8.442   9.162  70.331  1.00  0.00    -0.199 C  
HETATM   23  H1  UNL     1      -6.895  10.057  69.346  1.00  0.00     0.000 HD 
HETATM   24  N   UNL     1      -7.768   9.549  69.207  1.00  0.00    -0.081 N  
HETATM   25  O   UNL     1      -7.972   9.432  71.435  1.00  0.00    -0.318 OA 
HETATM   26  H2  UNL     1      -8.123   9.341  68.273  1.00  0.00     0.000 HD 
ENDBRANCH   9  22
ENDBRANCH   8   9
ENDBRANCH   7   8
ENDBRANCH   6   7
ENDBRANCH   4   6
ENDBRANCH   2   4
TORSDOF 6
ENDMDL
MODEL      106
REMARK 921   NORMALIZED FREE ENERGY PREDICTED BY IDOCK:   -4.45 KCAL/MOL
REMARK 922        TOTAL FREE ENERGY PREDICTED BY IDOCK:   -7.02 KCAL/MOL
REMARK 923 INTER-LIGAND FREE ENERGY PREDICTED BY IDOCK:   -6.11 KCAL/MOL
REMARK 924 INTRA-LIGAND FREE ENERGY PREDICTED BY IDOCK:   -0.91 KCAL/MOL
REMARK 927      BINDING AFFINITY PREDICTED BY RF-SCORE:    0.00 PKD
ROOT
HETATM    1  C   UNL     1      -6.302  11.567  68.114  1.00  0.00    -0.046 C  
HETATM    2  C   UNL     1      -5.818  11.609  69.565  1.00  0.00    -0.080 C  
HETATM    3  C   UNL     1      -5.621  13.059  70.006  1.00  0.00    -0.123 C  
ENDROOT
BRANCH   2   4
HETATM    4  N   UNL     1      -6.817  10.906  70.374  1.00  0.00    -0.489 NA 
HETATM    5  H   UNL     1      -7.759  11.133  70.057  1.00  0.00     0.000 HD 
BRANCH   4   6
HETATM    6  C   UNL     1      -6.628   9.460  70.426  1.00  0.00    -0.077 C  
BRANCH   6   7
HETATM    7  C   UNL     1      -7.960   8.755  70.687  1.00  0.00    -0.130 C  
BRANCH   7   8
HETATM    8  C   UNL     1      -9.193   9.662  70.498  1.00  0.00    -0.212 C  
BRANCH   8   9
HETATM    9  C   UNL     1     -10.549   8.912  70.428  1.00  0.00    -0.252 C  
HETATM   10  C   UNL     1     -10.627   7.836  71.521  1.00  0.00    -0.247 A  
HETATM   11  C   UNL     1     -10.638   8.058  69.156  1.00  0.00    -0.181 A  
HETATM   12  C   UNL     1     -10.635   8.483  67.834  1.00  0.00    -0.219 A  
HETATM   13  C   UNL     1     -10.596   8.008  72.899  1.00  0.00    -0.399 A  
HETATM   14  C   UNL     1     -10.627   7.512  66.834  1.00  0.00    -0.367 A  
HETATM   15  C   UNL     1     -10.616   6.146  67.163  1.00  0.00    -0.374 A  
HETATM   16  C   UNL     1     -10.633   5.725  68.498  1.00  0.00    -0.299 A  
HETATM   17  C   UNL     1     -10.586   6.868  73.701  1.00  0.00    -0.371 A  
HETATM   18  C   UNL     1     -10.604   5.586  73.126  1.00  0.00    -0.281 A  
HETATM   19  C   UNL     1     -10.640   5.421  71.736  1.00  0.00    -0.286 A  
HETATM   20  C   UNL     1     -10.653   6.551  70.935  1.00  0.00    -0.275 A  
HETATM   21  C   UNL     1     -10.655   6.686  69.492  1.00  0.00    -0.281 A  
BRANCH   9  22
HETATM   22  C   UNL     1     -11.725   9.907  70.531  1.00  0.00    -0.295 C  
HETATM   23  H1  UNL     1     -13.753  10.029  70.731  1.00  0.00     0.000 HD 
HETATM   24  N   UNL     1     -12.976   9.372  70.662  1.00  0.00    -0.518 N  
HETATM   25  O   UNL     1     -11.596  11.129  70.498  1.00  0.00    -0.306 OA 
HETATM   26  H2  UNL     1     -13.126   8.363  70.689  1.00  0.00     0.000 HD 
ENDBRANCH   9  22
ENDBRANCH   8   9
ENDBRANCH   7   8
ENDBRANCH   6   7
ENDBRANCH   4   6
ENDBRANCH   2   4
TORSDOF 6
ENDMDL
MODEL      107
REMARK 921   NORMALIZED FREE ENERGY PREDICTED BY IDOCK:   -4.43 KCAL/MOL
REMARK 922        TOTAL FREE ENERGY PREDICTED BY IDOCK:   -6.99 KCAL/MOL
REMARK 923 INTER-LIGAND FREE ENERGY PREDICTED BY IDOCK:   -6.68 KCAL/MOL
REMARK 924 INTRA-LIGAND FREE ENERGY PREDICTED BY IDOCK:   -0.31 KCAL/MOL
REMARK 927      BINDING AFFINITY PREDICTED BY RF-SCORE:    0.00 PKD
ROOT
HETATM    1  C   UNL     1     -12.656  13.858  65.342  1.00  0.00    -0.538 C  
HETATM    2  C   UNL     1     -11.434  14.311  64.542  1.00  0.00    -0.355 C  
HETATM    3  C   UNL     1     -10.683  15.399  65.310  1.00  0.00    -0.439 C  
ENDROOT
BRANCH   2   4
HETATM    4  N   UNL     1     -10.611  13.123  64.301  1.00  0.00    -0.421 NA 
HETATM    5  H   UNL     1      -9.660  13.271  64.640  1.00  0.00     0.000 HD 
BRANCH   4   6
HETATM    6  C   UNL     1     -11.168  11.893  64.854  1.00  0.00    -0.292 C  
BRANCH   6   7
HETATM    7  C   UNL     1     -10.155  11.215  65.777  1.00  0.00    -0.299 C  
BRANCH   7   8
HETATM    8  C   UNL     1     -10.782  10.588  67.039  1.00  0.00    -0.310 C  
BRANCH   8   9
HETATM    9  C   UNL     1     -10.019  10.875  68.358  1.00  0.00    -0.188 C  
HETATM   10  C   UNL     1      -8.937   9.811  68.598  1.00  0.00    -0.130 A  
HETATM   11  C   UNL     1     -10.929  10.662  69.575  1.00  0.00    -0.321 A  
HETATM   12  C   UNL     1     -12.083  11.355  69.917  1.00  0.00    -0.404 A  
HETATM   13  C   UNL     1      -7.826   9.525  67.816  1.00  0.00    -0.095 A  
HETATM   14  C   UNL     1     -12.804  10.918  71.026  1.00  0.00    -0.472 A  
HETATM   15  C   UNL     1     -12.373   9.805  71.768  1.00  0.00    -0.470 A  
HETATM   16  C   UNL     1     -11.201   9.120  71.425  1.00  0.00    -0.419 A  
HETATM   17  C   UNL     1      -7.027   8.444  68.185  1.00  0.00    -0.081 A  
HETATM   18  C   UNL     1      -7.343   7.670  69.314  1.00  0.00    -0.088 A  
HETATM   19  C   UNL     1      -8.463   7.968  70.100  1.00  0.00    -0.128 A  
HETATM   20  C   UNL     1      -9.258   9.044  69.739  1.00  0.00    -0.172 A  
HETATM   21  C   UNL     1     -10.476   9.559  70.333  1.00  0.00    -0.336 A  
BRANCH   9  22
HETATM   22  C   UNL     1      -9.416  12.297  68.337  1.00  0.00    -0.175 C  
HETATM   23  H1  UNL     1      -7.724  13.363  68.742  1.00  0.00     0.000 HD 
HETATM   24  N   UNL     1      -8.122  12.424  68.756  1.00  0.00    -0.334 N  
HETATM   25  O   UNL     1     -10.032  13.298  67.976  1.00  0.00    -0.220 OA 
HETATM   26  H2  UNL     1      -7.578  11.618  69.067  1.00  0.00     0.000 HD 
ENDBRANCH   9  22
ENDBRANCH   8   9
ENDBRANCH   7   8
ENDBRANCH   6   7
ENDBRANCH   4   6
ENDBRANCH   2   4
TORSDOF 6
ENDMDL
MODEL      108
REMARK 921   NORMALIZED FREE ENERGY PREDICTED BY IDOCK:   -4.43 KCAL/MOL
REMARK 922        TOTAL FREE ENERGY PREDICTED BY IDOCK:   -6.99 KCAL/MOL
REMARK 923 INTER-LIGAND FREE ENERGY PREDICTED BY IDOCK:   -6.53 KCAL/MOL
REMARK 924 INTRA-LIGAND FREE ENERGY PREDICTED BY IDOCK:   -0.46 KCAL/MOL
REMARK 927      BINDING AFFINITY PREDICTED BY RF-SCORE:    0.00 PKD
ROOT
HETATM    1  C   UNL     1      -7.677  19.788  68.690  1.00  0.00    -0.305 C  
HETATM    2  C   UNL     1      -8.098  20.466  67.385  1.00  0.00    -0.321 C  
HETATM    3  C   UNL     1      -6.860  20.930  66.617  1.00  0.00    -0.318 C  
ENDROOT
BRANCH   2   4
HETATM    4  N   UNL     1      -8.895  19.494  66.632  1.00  0.00    -0.329 NA 
HETATM    5  H   UNL     1      -9.201  19.892  65.744  1.00  0.00     0.000 HD 
BRANCH   4   6
HETATM    6  C   UNL     1      -8.224  18.216  66.416  1.00  0.00    -0.253 C  
BRANCH   6   7
HETATM    7  C   UNL     1      -9.140  17.057  66.810  1.00  0.00    -0.266 C  
BRANCH   7   8
HETATM    8  C   UNL     1      -8.666  15.683  66.294  1.00  0.00    -0.325 C  
BRANCH   8   9
HETATM    9  C   UNL     1      -9.302  14.463  67.009  1.00  0.00    -0.252 C  
HETATM   10  C   UNL     1     -10.359  13.803  66.112  1.00  0.00    -0.301 A  
HETATM   11  C   UNL     1     -10.155  14.910  68.203  1.00  0.00    -0.222 A  
HETATM   12  C   UNL     1      -9.742  15.561  69.358  1.00  0.00    -0.283 A  
HETATM   13  C   UNL     1     -10.179  13.201  64.873  1.00  0.00    -0.306 A  
HETATM   14  C   UNL     1     -10.718  15.959  70.270  1.00  0.00    -0.313 A  
HETATM   15  C   UNL     1     -12.078  15.710  70.018  1.00  0.00    -0.379 A  
HETATM   16  C   UNL     1     -12.486  15.042  68.857  1.00  0.00     0.109 A  
HETATM   17  C   UNL     1     -11.310  12.749  64.194  1.00  0.00    -0.442 A  
HETATM   18  C   UNL     1     -12.590  12.902  64.752  1.00  0.00    -0.493 A  
HETATM   19  C   UNL     1     -12.763  13.505  66.004  1.00  0.00    -0.307 A  
HETATM   20  C   UNL     1     -11.642  13.953  66.683  1.00  0.00    -0.392 A  
HETATM   21  C   UNL     1     -11.518  14.634  67.957  1.00  0.00    -0.346 A  
BRANCH   9  22
HETATM   22  C   UNL     1      -8.212  13.454  67.432  1.00  0.00    -0.183 C  
HETATM   23  H1  UNL     1      -7.920  11.609  68.255  1.00  0.00     0.000 HD 
HETATM   24  N   UNL     1      -8.640  12.275  67.976  1.00  0.00    -0.168 N  
HETATM   25  O   UNL     1      -7.005  13.656  67.312  1.00  0.00    -0.132 OA 
HETATM   26  H2  UNL     1      -9.632  12.071  68.097  1.00  0.00     0.000 HD 
ENDBRANCH   9  22
ENDBRANCH   8   9
ENDBRANCH   7   8
ENDBRANCH   6   7
ENDBRANCH   4   6
ENDBRANCH   2   4
TORSDOF 6
ENDMDL
MODEL      109
REMARK 921   NORMALIZED FREE ENERGY PREDICTED BY IDOCK:   -4.43 KCAL/MOL
REMARK 922        TOTAL FREE ENERGY PREDICTED BY IDOCK:   -6.98 KCAL/MOL
REMARK 923 INTER-LIGAND FREE ENERGY PREDICTED BY IDOCK:   -6.69 KCAL/MOL
REMARK 924 INTRA-LIGAND FREE ENERGY PREDICTED BY IDOCK:   -0.30 KCAL/MOL
REMARK 927      BINDING AFFINITY PREDICTED BY RF-SCORE:    0.00 PKD
ROOT
HETATM    1  C   UNL     1      -9.118  19.322  68.339  1.00  0.00    -0.408 C  
HETATM    2  C   UNL     1     -10.446  18.943  67.681  1.00  0.00    -0.443 C  
HETATM    3  C   UNL     1     -10.429  19.345  66.206  1.00  0.00    -0.586 C  
ENDROOT
BRANCH   2   4
HETATM    4  N   UNL     1     -10.623  17.500  67.867  1.00  0.00    -0.391 NA 
HETATM    5  H   UNL     1     -10.413  16.998  67.004  1.00  0.00     0.000 HD 
BRANCH   4   6
HETATM    6  C   UNL     1      -9.858  16.947  68.980  1.00  0.00    -0.247 C  
BRANCH   6   7
HETATM    7  C   UNL     1     -10.146  15.453  69.138  1.00  0.00    -0.235 C  
BRANCH   7   8
HETATM    8  C   UNL     1     -10.966  14.850  67.979  1.00  0.00    -0.282 C  
BRANCH   8   9
HETATM    9  C   UNL     1     -10.169  13.917  67.032  1.00  0.00    -0.254 C  
HETATM   10  C   UNL     1     -10.947  13.680  65.728  1.00  0.00    -0.281 A  
HETATM   11  C   UNL     1     -10.091  12.494  67.601  1.00  0.00    -0.217 A  
HETATM   12  C   UNL     1      -9.482  12.071  68.774  1.00  0.00     0.027 A  
HETATM   13  C   UNL     1     -11.325  14.614  64.772  1.00  0.00    -0.398 A  
HETATM   14  C   UNL     1      -9.624  10.733  69.140  1.00  0.00    -0.169 A  
HETATM   15  C   UNL     1     -10.370   9.848  68.343  1.00  0.00    -0.226 A  
HETATM   16  C   UNL     1     -10.971  10.280  67.154  1.00  0.00    -0.233 A  
HETATM   17  C   UNL     1     -12.114  14.179  63.708  1.00  0.00    -0.192 A  
HETATM   18  C   UNL     1     -12.512  12.835  63.614  1.00  0.00    -0.482 A  
HETATM   19  C   UNL     1     -12.123  11.899  64.579  1.00  0.00    -0.259 A  
HETATM   20  C   UNL     1     -11.336  12.326  65.636  1.00  0.00    -0.394 A  
HETATM   21  C   UNL     1     -10.819  11.603  66.781  1.00  0.00    -0.322 A  
BRANCH   9  22
HETATM   22  C   UNL     1      -8.766  14.498  66.753  1.00  0.00    -0.185 C  
HETATM   23  H1  UNL     1      -7.784  16.047  65.857  1.00  0.00     0.000 HD 
HETATM   24  N   UNL     1      -8.710  15.663  66.041  1.00  0.00    -0.378 N  
HETATM   25  O   UNL     1      -7.718  13.973  67.126  1.00  0.00    -0.135 OA 
HETATM   26  H2  UNL     1      -9.556  16.127  65.709  1.00  0.00     0.000 HD 
ENDBRANCH   9  22
ENDBRANCH   8   9
ENDBRANCH   7   8
ENDBRANCH   6   7
ENDBRANCH   4   6
ENDBRANCH   2   4
TORSDOF 6
ENDMDL
MODEL      110
REMARK 921   NORMALIZED FREE ENERGY PREDICTED BY IDOCK:   -4.42 KCAL/MOL
REMARK 922        TOTAL FREE ENERGY PREDICTED BY IDOCK:   -6.98 KCAL/MOL
REMARK 923 INTER-LIGAND FREE ENERGY PREDICTED BY IDOCK:   -5.67 KCAL/MOL
REMARK 924 INTRA-LIGAND FREE ENERGY PREDICTED BY IDOCK:   -1.31 KCAL/MOL
REMARK 927      BINDING AFFINITY PREDICTED BY RF-SCORE:    0.00 PKD
ROOT
HETATM    1  C   UNL     1      -6.989  10.187  67.109  1.00  0.00    -0.087 C  
HETATM    2  C   UNL     1      -7.411   8.820  67.651  1.00  0.00    -0.093 C  
HETATM    3  C   UNL     1      -7.106   7.734  66.619  1.00  0.00    -0.079 C  
ENDROOT
BRANCH   2   4
HETATM    4  N   UNL     1      -6.692   8.614  68.912  1.00  0.00    -0.053 NA 
HETATM    5  H   UNL     1      -6.086   9.410  69.113  1.00  0.00     0.000 HD 
BRANCH   4   6
HETATM    6  C   UNL     1      -7.560   8.331  70.050  1.00  0.00    -0.072 C  
BRANCH   6   7
HETATM    7  C   UNL     1      -8.406   9.557  70.396  1.00  0.00    -0.226 C  
BRANCH   7   8
HETATM    8  C   UNL     1      -9.685   9.228  71.193  1.00  0.00    -0.327 C  
BRANCH   8   9
HETATM    9  C   UNL     1     -10.975   9.116  70.339  1.00  0.00    -0.290 C  
HETATM   10  C   UNL     1     -10.899   7.898  69.406  1.00  0.00    -0.114 A  
HETATM   11  C   UNL     1     -11.065  10.267  69.328  1.00  0.00    -0.293 A  
HETATM   12  C   UNL     1     -11.174  11.628  69.583  1.00  0.00    -0.249 A  
HETATM   13  C   UNL     1     -10.804   6.557  69.751  1.00  0.00    -0.351 A  
HETATM   14  C   UNL     1     -11.142  12.502  68.498  1.00  0.00    -0.297 A  
HETATM   15  C   UNL     1     -10.998  12.013  67.189  1.00  0.00    -0.320 A  
HETATM   16  C   UNL     1     -10.902  10.638  66.938  1.00  0.00    -0.267 A  
HETATM   17  C   UNL     1     -10.652   5.625  68.725  1.00  0.00    -0.286 A  
HETATM   18  C   UNL     1     -10.595   6.039  67.384  1.00  0.00    -0.355 A  
HETATM   19  C   UNL     1     -10.697   7.394  67.043  1.00  0.00    -0.389 A  
HETATM   20  C   UNL     1     -10.851   8.322  68.060  1.00  0.00    -0.008 A  
HETATM   21  C   UNL     1     -10.947   9.768  68.012  1.00  0.00    -0.236 A  
BRANCH   9  22
HETATM   22  C   UNL     1     -12.223   9.054  71.246  1.00  0.00    -0.312 C  
HETATM   23  H1  UNL     1     -14.213   9.500  71.326  1.00  0.00     0.000 HD 
HETATM   24  N   UNL     1     -13.389   9.541  70.726  1.00  0.00    -0.586 N  
HETATM   25  O   UNL     1     -12.218   8.602  72.390  1.00  0.00    -0.374 OA 
HETATM   26  H2  UNL     1     -13.433   9.929  69.783  1.00  0.00     0.000 HD 
ENDBRANCH   9  22
ENDBRANCH   8   9
ENDBRANCH   7   8
ENDBRANCH   6   7
ENDBRANCH   4   6
ENDBRANCH   2   4
TORSDOF 6
ENDMDL
MODEL      111
REMARK 921   NORMALIZED FREE ENERGY PREDICTED BY IDOCK:   -4.41 KCAL/MOL
REMARK 922        TOTAL FREE ENERGY PREDICTED BY IDOCK:   -6.97 KCAL/MOL
REMARK 923 INTER-LIGAND FREE ENERGY PREDICTED BY IDOCK:   -6.10 KCAL/MOL
REMARK 924 INTRA-LIGAND FREE ENERGY PREDICTED BY IDOCK:   -0.86 KCAL/MOL
REMARK 927      BINDING AFFINITY PREDICTED BY RF-SCORE:    0.00 PKD
ROOT
HETATM    1  C   UNL     1     -11.462  14.412  69.089  1.00  0.00    -0.328 C  
HETATM    2  C   UNL     1     -11.967  12.988  68.851  1.00  0.00    -0.263 C  
HETATM    3  C   UNL     1     -11.783  12.608  67.382  1.00  0.00    -0.432 C  
ENDROOT
BRANCH   2   4
HETATM    4  N   UNL     1     -11.221  12.109  69.756  1.00  0.00    -0.488 NA 
HETATM    5  H   UNL     1     -11.065  12.567  70.654  1.00  0.00     0.000 HD 
BRANCH   4   6
HETATM    6  C   UNL     1     -11.833  10.798  69.949  1.00  0.00    -0.335 C  
BRANCH   6   7
HETATM    7  C   UNL     1     -10.923   9.900  70.787  1.00  0.00    -0.407 C  
BRANCH   7   8
HETATM    8  C   UNL     1     -11.662   8.743  71.490  1.00  0.00    -0.377 C  
BRANCH   8   9
HETATM    9  C   UNL     1     -10.906   7.389  71.486  1.00  0.00    -0.247 C  
HETATM   10  C   UNL     1      -9.571   7.515  72.236  1.00  0.00    -0.197 A  
HETATM   11  C   UNL     1     -10.427   7.032  70.073  1.00  0.00    -0.233 A  
HETATM   12  C   UNL     1     -11.195   6.777  68.945  1.00  0.00    -0.196 A  
HETATM   13  C   UNL     1      -9.364   7.825  73.574  1.00  0.00    -0.351 A  
HETATM   14  C   UNL     1     -10.533   6.568  67.736  1.00  0.00    -0.279 A  
HETATM   15  C   UNL     1      -9.131   6.622  67.669  1.00  0.00    -0.112 A  
HETATM   16  C   UNL     1      -8.363   6.867  68.813  1.00  0.00    -0.121 A  
HETATM   17  C   UNL     1      -8.050   7.977  74.015  1.00  0.00    -0.303 A  
HETATM   18  C   UNL     1      -6.973   7.823  73.126  1.00  0.00    -0.095 A  
HETATM   19  C   UNL     1      -7.190   7.506  71.780  1.00  0.00    -0.063 A  
HETATM   20  C   UNL     1      -8.494   7.350  71.338  1.00  0.00    -0.113 A  
HETATM   21  C   UNL     1      -9.016   7.061  70.017  1.00  0.00    -0.142 A  
BRANCH   9  22
HETATM   22  C   UNL     1     -11.788   6.274  72.089  1.00  0.00    -0.315 C  
HETATM   23  H1  UNL     1     -13.710   5.794  72.582  1.00  0.00     0.000 HD 
HETATM   24  N   UNL     1     -13.127   6.531  72.184  1.00  0.00    -0.493 N  
HETATM   25  O   UNL     1     -11.355   5.194  72.484  1.00  0.00    -0.209 OA 
HETATM   26  H2  UNL     1     -13.526   7.417  71.872  1.00  0.00     0.000 HD 
ENDBRANCH   9  22
ENDBRANCH   8   9
ENDBRANCH   7   8
ENDBRANCH   6   7
ENDBRANCH   4   6
ENDBRANCH   2   4
TORSDOF 6
ENDMDL
MODEL      112
REMARK 921   NORMALIZED FREE ENERGY PREDICTED BY IDOCK:   -4.40 KCAL/MOL
REMARK 922        TOTAL FREE ENERGY PREDICTED BY IDOCK:   -6.95 KCAL/MOL
REMARK 923 INTER-LIGAND FREE ENERGY PREDICTED BY IDOCK:   -5.99 KCAL/MOL
REMARK 924 INTRA-LIGAND FREE ENERGY PREDICTED BY IDOCK:   -0.96 KCAL/MOL
REMARK 927      BINDING AFFINITY PREDICTED BY RF-SCORE:    0.00 PKD
ROOT
HETATM    1  C   UNL     1     -12.864  11.802  63.373  1.00  0.00    -0.310 C  
HETATM    2  C   UNL     1     -11.828  12.921  63.255  1.00  0.00    -0.398 C  
HETATM    3  C   UNL     1     -12.284  14.140  64.058  1.00  0.00    -0.369 C  
ENDROOT
BRANCH   2   4
HETATM    4  N   UNL     1     -10.552  12.380  63.731  1.00  0.00    -0.433 NA 
HETATM    5  H   UNL     1     -10.107  13.030  64.380  1.00  0.00     0.000 HD 
BRANCH   4   6
HETATM    6  C   UNL     1     -10.656  11.052  64.326  1.00  0.00    -0.331 C  
BRANCH   6   7
HETATM    7  C   UNL     1     -10.236  11.089  65.796  1.00  0.00    -0.316 C  
BRANCH   7   8
HETATM    8  C   UNL     1     -11.204  11.877  66.702  1.00  0.00    -0.384 C  
BRANCH   8   9
HETATM    9  C   UNL     1     -10.635  12.249  68.096  1.00  0.00    -0.232 C  
HETATM   10  C   UNL     1      -9.260  12.919  67.955  1.00  0.00    -0.212 A  
HETATM   11  C   UNL     1     -10.278  10.990  68.896  1.00  0.00    -0.218 A  
HETATM   12  C   UNL     1     -11.127   9.988  69.345  1.00  0.00    -0.265 A  
HETATM   13  C   UNL     1      -8.948  14.113  67.318  1.00  0.00    -0.221 A  
HETATM   14  C   UNL     1     -10.559   8.881  69.974  1.00  0.00    -0.234 A  
HETATM   15  C   UNL     1      -9.167   8.787  70.139  1.00  0.00    -0.179 A  
HETATM   16  C   UNL     1      -8.318   9.808  69.695  1.00  0.00    -0.180 A  
HETATM   17  C   UNL     1      -7.605  14.479  67.235  1.00  0.00    -0.150 A  
HETATM   18  C   UNL     1      -6.603  13.660  67.781  1.00  0.00    -0.178 A  
HETATM   19  C   UNL     1      -6.926  12.460  68.427  1.00  0.00    -0.091 A  
HETATM   20  C   UNL     1      -8.260  12.094  68.514  1.00  0.00    -0.104 A  
HETATM   21  C   UNL     1      -8.879  10.913  69.083  1.00  0.00    -0.050 A  
BRANCH   9  22
HETATM   22  C   UNL     1     -11.626  13.151  68.863  1.00  0.00    -0.311 C  
HETATM   23  H1  UNL     1     -13.004  14.639  68.628  1.00  0.00     0.000 HD 
HETATM   24  N   UNL     1     -12.349  14.043  68.122  1.00  0.00    -0.508 N  
HETATM   25  O   UNL     1     -11.789  13.112  70.081  1.00  0.00    -0.313 OA 
HETATM   26  H2  UNL     1     -12.239  14.110  67.109  1.00  0.00     0.000 HD 
ENDBRANCH   9  22
ENDBRANCH   8   9
ENDBRANCH   7   8
ENDBRANCH   6   7
ENDBRANCH   4   6
ENDBRANCH   2   4
TORSDOF 6
ENDMDL
MODEL      113
REMARK 921   NORMALIZED FREE ENERGY PREDICTED BY IDOCK:   -4.38 KCAL/MOL
REMARK 922        TOTAL FREE ENERGY PREDICTED BY IDOCK:   -6.93 KCAL/MOL
REMARK 923 INTER-LIGAND FREE ENERGY PREDICTED BY IDOCK:   -6.18 KCAL/MOL
REMARK 924 INTRA-LIGAND FREE ENERGY PREDICTED BY IDOCK:   -0.75 KCAL/MOL
REMARK 927      BINDING AFFINITY PREDICTED BY RF-SCORE:    0.00 PKD
ROOT
HETATM    1  C   UNL     1      -6.427  10.282  64.250  1.00  0.00    -0.083 C  
HETATM    2  C   UNL     1      -7.869   9.993  63.831  1.00  0.00    -0.150 C  
HETATM    3  C   UNL     1      -8.246   8.562  64.216  1.00  0.00    -0.147 C  
ENDROOT
BRANCH   2   4
HETATM    4  N   UNL     1      -8.718  10.993  64.485  1.00  0.00    -0.374 NA 
HETATM    5  H   UNL     1      -8.517  11.926  64.124  1.00  0.00     0.000 HD 
BRANCH   4   6
HETATM    6  C   UNL     1     -10.146  10.707  64.399  1.00  0.00    -0.349 C  
BRANCH   6   7
HETATM    7  C   UNL     1     -10.874  11.239  65.633  1.00  0.00    -0.242 C  
BRANCH   7   8
HETATM    8  C   UNL     1     -10.690  10.367  66.892  1.00  0.00    -0.272 C  
BRANCH   8   9
HETATM    9  C   UNL     1     -10.204  11.132  68.150  1.00  0.00    -0.198 C  
HETATM   10  C   UNL     1     -11.030  10.725  69.380  1.00  0.00    -0.305 A  
HETATM   11  C   UNL     1     -10.533  12.626  68.045  1.00  0.00    -0.232 A  
HETATM   12  C   UNL     1     -10.060  13.547  67.120  1.00  0.00    -0.245 A  
HETATM   13  C   UNL     1     -11.132   9.472  69.969  1.00  0.00    -0.268 A  
HETATM   14  C   UNL     1     -10.578  14.841  67.160  1.00  0.00    -0.285 A  
HETATM   15  C   UNL     1     -11.554  15.192  68.107  1.00  0.00    -0.358 A  
HETATM   16  C   UNL     1     -12.017  14.262  69.046  1.00  0.00    -0.360 A  
HETATM   17  C   UNL     1     -12.023   9.318  71.031  1.00  0.00    -0.369 A  
HETATM   18  C   UNL     1     -12.792  10.402  71.484  1.00  0.00    -0.569 A  
HETATM   19  C   UNL     1     -12.680  11.664  70.888  1.00  0.00    -0.351 A  
HETATM   20  C   UNL     1     -11.793  11.822  69.835  1.00  0.00    -0.423 A  
HETATM   21  C   UNL     1     -11.495  12.982  69.017  1.00  0.00    -0.353 A  
BRANCH   9  22
HETATM   22  C   UNL     1      -8.696  10.894  68.380  1.00  0.00    -0.147 C  
HETATM   23  H1  UNL     1      -7.050   9.960  67.615  1.00  0.00     0.000 HD 
HETATM   24  N   UNL     1      -8.047  10.117  67.463  1.00  0.00    -0.113 N  
HETATM   25  O   UNL     1      -8.065  11.355  69.330  1.00  0.00     0.011 OA 
HETATM   26  H2  UNL     1      -8.535   9.712  66.663  1.00  0.00     0.000 HD 
ENDBRANCH   9  22
ENDBRANCH   8   9
ENDBRANCH   7   8
ENDBRANCH   6   7
ENDBRANCH   4   6
ENDBRANCH   2   4
TORSDOF 6
ENDMDL
MODEL      114
REMARK 921   NORMALIZED FREE ENERGY PREDICTED BY IDOCK:   -4.37 KCAL/MOL
REMARK 922        TOTAL FREE ENERGY PREDICTED BY IDOCK:   -6.91 KCAL/MOL
REMARK 923 INTER-LIGAND FREE ENERGY PREDICTED BY IDOCK:   -6.89 KCAL/MOL
REMARK 924 INTRA-LIGAND FREE ENERGY PREDICTED BY IDOCK:   -0.03 KCAL/MOL
REMARK 927      BINDING AFFINITY PREDICTED BY RF-SCORE:    0.00 PKD
ROOT
HETATM    1  C   UNL     1      -7.356   7.382  66.997  1.00  0.00    -0.097 C  
HETATM    2  C   UNL     1      -8.846   7.077  66.835  1.00  0.00    -0.124 C  
HETATM    3  C   UNL     1      -9.513   6.990  68.208  1.00  0.00    -0.128 C  
ENDROOT
BRANCH   2   4
HETATM    4  N   UNL     1      -9.416   8.138  66.000  1.00  0.00    -0.410 NA 
HETATM    5  H   UNL     1      -9.737   7.760  65.108  1.00  0.00     0.000 HD 
BRANCH   4   6
HETATM    6  C   UNL     1     -10.482   8.895  66.648  1.00  0.00    -0.161 C  
BRANCH   6   7
HETATM    7  C   UNL     1     -10.290  10.394  66.419  1.00  0.00    -0.278 C  
BRANCH   7   8
HETATM    8  C   UNL     1     -11.253  11.280  67.236  1.00  0.00    -0.364 C  
BRANCH   8   9
HETATM    9  C   UNL     1     -10.669  11.824  68.566  1.00  0.00    -0.251 C  
HETATM   10  C   UNL     1     -11.412  11.219  69.767  1.00  0.00    -0.386 A  
HETATM   11  C   UNL     1     -10.986  13.315  68.734  1.00  0.00    -0.294 A  
HETATM   12  C   UNL     1     -10.568  14.377  67.943  1.00  0.00    -0.240 A  
HETATM   13  C   UNL     1     -11.488   9.885  70.146  1.00  0.00    -0.309 A  
HETATM   14  C   UNL     1     -11.065  15.646  68.234  1.00  0.00    -0.336 A  
HETATM   15  C   UNL     1     -11.967  15.836  69.294  1.00  0.00    -0.305 A  
HETATM   16  C   UNL     1     -12.374  14.763  70.096  1.00  0.00    -0.381 A  
HETATM   17  C   UNL     1     -12.304   9.557  71.228  1.00  0.00    -0.430 A  
HETATM   18  C   UNL     1     -13.026  10.552  71.909  1.00  0.00    -0.553 A  
HETATM   19  C   UNL     1     -12.939  11.895  71.524  1.00  0.00    -0.427 A  
HETATM   20  C   UNL     1     -12.127  12.226  70.451  1.00  0.00    -0.385 A  
HETATM   21  C   UNL     1     -11.872  13.505  69.818  1.00  0.00    -0.395 A  
BRANCH   9  22
HETATM   22  C   UNL     1      -9.152  11.550  68.645  1.00  0.00    -0.120 C  
HETATM   23  H1  UNL     1      -7.744  10.385  69.554  1.00  0.00     0.000 HD 
HETATM   24  N   UNL     1      -8.746  10.566  69.502  1.00  0.00    -0.362 N  
HETATM   25  O   UNL     1      -8.309  12.163  67.992  1.00  0.00    -0.150 OA 
HETATM   26  H2  UNL     1      -9.414  10.038  70.064  1.00  0.00     0.000 HD 
ENDBRANCH   9  22
ENDBRANCH   8   9
ENDBRANCH   7   8
ENDBRANCH   6   7
ENDBRANCH   4   6
ENDBRANCH   2   4
TORSDOF 6
ENDMDL
MODEL      115
REMARK 921   NORMALIZED FREE ENERGY PREDICTED BY IDOCK:   -4.37 KCAL/MOL
REMARK 922        TOTAL FREE ENERGY PREDICTED BY IDOCK:   -6.91 KCAL/MOL
REMARK 923 INTER-LIGAND FREE ENERGY PREDICTED BY IDOCK:   -6.10 KCAL/MOL
REMARK 924 INTRA-LIGAND FREE ENERGY PREDICTED BY IDOCK:   -0.82 KCAL/MOL
REMARK 927      BINDING AFFINITY PREDICTED BY RF-SCORE:    0.00 PKD
ROOT
HETATM    1  C   UNL     1      -8.146  17.749  68.222  1.00  0.00    -0.283 C  
HETATM    2  C   UNL     1      -7.535  17.021  67.023  1.00  0.00    -0.191 C  
HETATM    3  C   UNL     1      -6.242  17.716  66.595  1.00  0.00    -0.221 C  
ENDROOT
BRANCH   2   4
HETATM    4  N   UNL     1      -7.317  15.630  67.429  1.00  0.00    -0.185 NA 
HETATM    5  H   UNL     1      -6.785  15.589  68.298  1.00  0.00     0.000 HD 
BRANCH   4   6
HETATM    6  C   UNL     1      -8.543  14.846  67.542  1.00  0.00    -0.184 C  
BRANCH   6   7
HETATM    7  C   UNL     1      -8.242  13.464  68.124  1.00  0.00    -0.160 C  
BRANCH   7   8
HETATM    8  C   UNL     1      -8.013  12.374  67.057  1.00  0.00    -0.106 C  
BRANCH   8   9
HETATM    9  C   UNL     1      -9.268  11.534  66.702  1.00  0.00    -0.194 C  
HETATM   10  C   UNL     1     -10.332  12.415  66.028  1.00  0.00    -0.275 A  
HETATM   11  C   UNL     1     -10.005  11.087  67.971  1.00  0.00    -0.188 A  
HETATM   12  C   UNL     1      -9.548  10.249  68.979  1.00  0.00    -0.210 A  
HETATM   13  C   UNL     1     -10.239  13.104  64.826  1.00  0.00    -0.321 A  
HETATM   14  C   UNL     1     -10.364  10.060  70.093  1.00  0.00    -0.321 A  
HETATM   15  C   UNL     1     -11.608  10.705  70.187  1.00  0.00    -0.414 A  
HETATM   16  C   UNL     1     -12.069  11.537  69.160  1.00  0.00    -0.329 A  
HETATM   17  C   UNL     1     -11.307  13.921  64.457  1.00  0.00    -0.381 A  
HETATM   18  C   UNL     1     -12.438  14.041  65.282  1.00  0.00    -0.495 A  
HETATM   19  C   UNL     1     -12.525  13.339  66.490  1.00  0.00    -0.184 A  
HETATM   20  C   UNL     1     -11.468  12.523  66.859  1.00  0.00    -0.416 A  
HETATM   21  C   UNL     1     -11.267  11.717  68.047  1.00  0.00    -0.327 A  
BRANCH   9  22
HETATM   22  C   UNL     1      -8.883  10.334  65.811  1.00  0.00    -0.161 C  
HETATM   23  H1  UNL     1      -9.648   8.735  64.799  1.00  0.00     0.000 HD 
HETATM   24  N   UNL     1      -9.902   9.528  65.387  1.00  0.00    -0.430 N  
HETATM   25  O   UNL     1      -7.730  10.069  65.475  1.00  0.00    -0.122 OA 
HETATM   26  H2  UNL     1     -10.872   9.710  65.648  1.00  0.00     0.000 HD 
ENDBRANCH   9  22
ENDBRANCH   8   9
ENDBRANCH   7   8
ENDBRANCH   6   7
ENDBRANCH   4   6
ENDBRANCH   2   4
TORSDOF 6
ENDMDL
MODEL      116
REMARK 921   NORMALIZED FREE ENERGY PREDICTED BY IDOCK:   -4.34 KCAL/MOL
REMARK 922        TOTAL FREE ENERGY PREDICTED BY IDOCK:   -6.87 KCAL/MOL
REMARK 923 INTER-LIGAND FREE ENERGY PREDICTED BY IDOCK:   -6.06 KCAL/MOL
REMARK 924 INTRA-LIGAND FREE ENERGY PREDICTED BY IDOCK:   -0.82 KCAL/MOL
REMARK 927      BINDING AFFINITY PREDICTED BY RF-SCORE:    0.00 PKD
ROOT
HETATM    1  C   UNL     1     -11.630  14.825  69.534  1.00  0.00    -0.339 C  
HETATM    2  C   UNL     1     -11.961  13.564  70.333  1.00  0.00    -0.295 C  
HETATM    3  C   UNL     1     -13.030  13.877  71.380  1.00  0.00    -0.430 C  
ENDROOT
BRANCH   2   4
HETATM    4  N   UNL     1     -12.397  12.546  69.373  1.00  0.00    -0.023 NA 
HETATM    5  H   UNL     1     -12.240  12.865  68.417  1.00  0.00     0.000 HD 
BRANCH   4   6
HETATM    6  C   UNL     1     -11.790  11.235  69.582  1.00  0.00    -0.360 C  
BRANCH   6   7
HETATM    7  C   UNL     1     -10.845  10.893  68.429  1.00  0.00    -0.266 C  
BRANCH   7   8
HETATM    8  C   UNL     1      -9.576  11.769  68.381  1.00  0.00    -0.191 C  
BRANCH   8   9
HETATM    9  C   UNL     1      -9.178  12.263  66.966  1.00  0.00    -0.205 C  
HETATM   10  C   UNL     1      -8.336  13.545  67.060  1.00  0.00    -0.096 A  
HETATM   11  C   UNL     1     -10.406  12.764  66.194  1.00  0.00    -0.283 A  
HETATM   12  C   UNL     1     -11.521  12.040  65.791  1.00  0.00    -0.377 A  
HETATM   13  C   UNL     1      -7.094  13.714  67.657  1.00  0.00    -0.179 A  
HETATM   14  C   UNL     1     -12.566  12.733  65.182  1.00  0.00    -0.513 A  
HETATM   15  C   UNL     1     -12.489  14.123  64.992  1.00  0.00    -0.434 A  
HETATM   16  C   UNL     1     -11.356  14.844  65.390  1.00  0.00    -0.346 A  
HETATM   17  C   UNL     1      -6.559  15.001  67.703  1.00  0.00    -0.193 A  
HETATM   18  C   UNL     1      -7.263  16.089  67.160  1.00  0.00    -0.257 A  
HETATM   19  C   UNL     1      -8.512  15.910  66.555  1.00  0.00    -0.348 A  
HETATM   20  C   UNL     1      -9.046  14.632  66.505  1.00  0.00    -0.267 A  
HETATM   21  C   UNL     1     -10.312  14.157  65.981  1.00  0.00    -0.316 A  
BRANCH   9  22
HETATM   22  C   UNL     1      -8.432  11.154  66.194  1.00  0.00    -0.156 C  
HETATM   23  H1  UNL     1      -7.192   9.549  66.425  1.00  0.00     0.000 HD 
HETATM   24  N   UNL     1      -7.685  10.282  66.935  1.00  0.00    -0.103 N  
HETATM   25  O   UNL     1      -8.470  11.023  64.972  1.00  0.00    -0.076 OA 
HETATM   26  H2  UNL     1      -7.623  10.360  67.951  1.00  0.00     0.000 HD 
ENDBRANCH   9  22
ENDBRANCH   8   9
ENDBRANCH   7   8
ENDBRANCH   6   7
ENDBRANCH   4   6
ENDBRANCH   2   4
TORSDOF 6
ENDMDL
MODEL      117
REMARK 921   NORMALIZED FREE ENERGY PREDICTED BY IDOCK:   -4.32 KCAL/MOL
REMARK 922        TOTAL FREE ENERGY PREDICTED BY IDOCK:   -6.85 KCAL/MOL
REMARK 923 INTER-LIGAND FREE ENERGY PREDICTED BY IDOCK:   -5.43 KCAL/MOL
REMARK 924 INTRA-LIGAND FREE ENERGY PREDICTED BY IDOCK:   -1.42 KCAL/MOL
REMARK 927      BINDING AFFINITY PREDICTED BY RF-SCORE:    0.00 PKD
ROOT
HETATM    1  C   UNL     1     -11.867   7.739  71.495  1.00  0.00    -0.324 C  
HETATM    2  C   UNL     1     -11.204   8.851  70.680  1.00  0.00    -0.266 C  
HETATM    3  C   UNL     1      -9.764   9.056  71.155  1.00  0.00    -0.369 C  
ENDROOT
BRANCH   2   4
HETATM    4  N   UNL     1     -11.280   8.458  69.271  1.00  0.00    -0.410 NA 
HETATM    5  H   UNL     1     -12.236   8.542  68.926  1.00  0.00     0.000 HD 
BRANCH   4   6
HETATM    6  C   UNL     1     -10.357   9.182  68.402  1.00  0.00    -0.206 C  
BRANCH   6   7
HETATM    7  C   UNL     1     -10.340   8.562  67.004  1.00  0.00    -0.379 C  
BRANCH   7   8
HETATM    8  C   UNL     1     -10.850   7.107  66.960  1.00  0.00    -0.382 C  
BRANCH   8   9
HETATM    9  C   UNL     1      -9.742   6.025  67.046  1.00  0.00    -0.159 C  
HETATM   10  C   UNL     1      -9.391   5.730  68.513  1.00  0.00    -0.133 A  
HETATM   11  C   UNL     1      -8.407   6.564  66.518  1.00  0.00    -0.116 A  
HETATM   12  C   UNL     1      -8.100   6.988  65.231  1.00  0.00    -0.134 A  
HETATM   13  C   UNL     1     -10.213   5.214  69.505  1.00  0.00    -0.318 A  
HETATM   14  C   UNL     1      -6.838   7.534  65.005  1.00  0.00    -0.047 A  
HETATM   15  C   UNL     1      -5.912   7.655  66.054  1.00  0.00    -0.038 A  
HETATM   16  C   UNL     1      -6.223   7.213  67.346  1.00  0.00    -0.045 A  
HETATM   17  C   UNL     1      -9.698   5.118  70.798  1.00  0.00    -0.255 A  
HETATM   18  C   UNL     1      -8.387   5.535  71.080  1.00  0.00    -0.121 A  
HETATM   19  C   UNL     1      -7.562   6.050  70.072  1.00  0.00    -0.087 A  
HETATM   20  C   UNL     1      -8.069   6.144  68.786  1.00  0.00    -0.105 A  
HETATM   21  C   UNL     1      -7.469   6.658  67.570  1.00  0.00    -0.097 A  
BRANCH   9  22
HETATM   22  C   UNL     1     -10.176   4.744  66.302  1.00  0.00    -0.282 C  
HETATM   23  H1  UNL     1     -11.563   3.995  65.005  1.00  0.00     0.000 HD 
HETATM   24  N   UNL     1     -11.276   4.841  65.497  1.00  0.00    -0.968 N  
HETATM   25  O   UNL     1      -9.597   3.664  66.399  1.00  0.00    -0.189 OA 
HETATM   26  H2  UNL     1     -11.787   5.718  65.392  1.00  0.00     0.000 HD 
ENDBRANCH   9  22
ENDBRANCH   8   9
ENDBRANCH   7   8
ENDBRANCH   6   7
ENDBRANCH   4   6
ENDBRANCH   2   4
TORSDOF 6
ENDMDL
MODEL      118
REMARK 921   NORMALIZED FREE ENERGY PREDICTED BY IDOCK:   -4.30 KCAL/MOL
REMARK 922        TOTAL FREE ENERGY PREDICTED BY IDOCK:   -6.81 KCAL/MOL
REMARK 923 INTER-LIGAND FREE ENERGY PREDICTED BY IDOCK:   -6.25 KCAL/MOL
REMARK 924 INTRA-LIGAND FREE ENERGY PREDICTED BY IDOCK:   -0.56 KCAL/MOL
REMARK 927      BINDING AFFINITY PREDICTED BY RF-SCORE:    0.00 PKD
ROOT
HETATM    1  C   UNL     1      -5.139  12.958  68.363  1.00  0.00    -0.069 C  
HETATM    2  C   UNL     1      -6.345  12.209  68.933  1.00  0.00    -0.083 C  
HETATM    3  C   UNL     1      -5.870  11.035  69.791  1.00  0.00    -0.071 C  
ENDROOT
BRANCH   2   4
HETATM    4  N   UNL     1      -7.134  13.179  69.697  1.00  0.00    -0.311 NA 
HETATM    5  H   UNL     1      -6.946  13.088  70.696  1.00  0.00     0.000 HD 
BRANCH   4   6
HETATM    6  C   UNL     1      -6.954  14.562  69.266  1.00  0.00    -0.141 C  
BRANCH   6   7
HETATM    7  C   UNL     1      -8.246  15.356  69.460  1.00  0.00    -0.207 C  
BRANCH   7   8
HETATM    8  C   UNL     1      -8.497  16.416  68.369  1.00  0.00    -0.204 C  
BRANCH   8   9
HETATM    9  C   UNL     1      -9.991  16.701  68.067  1.00  0.00    -0.258 C  
HETATM   10  C   UNL     1     -10.874  16.239  69.237  1.00  0.00    -0.318 A  
HETATM   11  C   UNL     1     -10.501  15.804  66.931  1.00  0.00    -0.315 A  
HETATM   12  C   UNL     1     -10.085  15.776  65.607  1.00  0.00    -0.401 A  
HETATM   13  C   UNL     1     -10.873  16.699  70.547  1.00  0.00     0.126 A  
HETATM   14  C   UNL     1     -10.629  14.802  64.770  1.00  0.00    -0.355 A  
HETATM   15  C   UNL     1     -11.564  13.876  65.262  1.00  0.00    -0.332 A  
HETATM   16  C   UNL     1     -11.989  13.920  66.596  1.00  0.00    -0.474 A  
HETATM   17  C   UNL     1     -11.705  16.061  71.466  1.00  0.00    -0.554 A  
HETATM   18  C   UNL     1     -12.516  14.985  71.071  1.00  0.00    -0.402 A  
HETATM   19  C   UNL     1     -12.516  14.530  69.747  1.00  0.00    -0.259 A  
HETATM   20  C   UNL     1     -11.693  15.163  68.830  1.00  0.00    -0.357 A  
HETATM   21  C   UNL     1     -11.462  14.893  67.424  1.00  0.00    -0.354 A  
BRANCH   9  22
HETATM   22  C   UNL     1     -10.207  18.197  67.754  1.00  0.00    -0.383 C  
HETATM   23  H1  UNL     1      -9.446  20.063  68.079  1.00  0.00     0.000 HD 
HETATM   24  N   UNL     1      -9.304  19.074  68.286  1.00  0.00    -0.327 N  
HETATM   25  O   UNL     1     -11.133  18.630  67.071  1.00  0.00    -0.205 OA 
HETATM   26  H2  UNL     1      -8.524  18.756  68.862  1.00  0.00     0.000 HD 
ENDBRANCH   9  22
ENDBRANCH   8   9
ENDBRANCH   7   8
ENDBRANCH   6   7
ENDBRANCH   4   6
ENDBRANCH   2   4
TORSDOF 6
ENDMDL
MODEL      119
REMARK 921   NORMALIZED FREE ENERGY PREDICTED BY IDOCK:   -4.30 KCAL/MOL
REMARK 922        TOTAL FREE ENERGY PREDICTED BY IDOCK:   -6.81 KCAL/MOL
REMARK 923 INTER-LIGAND FREE ENERGY PREDICTED BY IDOCK:   -5.31 KCAL/MOL
REMARK 924 INTRA-LIGAND FREE ENERGY PREDICTED BY IDOCK:   -1.50 KCAL/MOL
REMARK 927      BINDING AFFINITY PREDICTED BY RF-SCORE:    0.00 PKD
ROOT
HETATM    1  C   UNL     1      -7.962  10.504  62.802  1.00  0.00    -0.147 C  
HETATM    2  C   UNL     1      -8.772   9.268  63.197  1.00  0.00    -0.183 C  
HETATM    3  C   UNL     1      -7.828   8.118  63.550  1.00  0.00    -0.152 C  
ENDROOT
BRANCH   2   4
HETATM    4  N   UNL     1      -9.630   9.654  64.321  1.00  0.00    -0.392 NA 
HETATM    5  H   UNL     1      -9.103   9.645  65.194  1.00  0.00     0.000 HD 
BRANCH   4   6
HETATM    6  C   UNL     1     -10.300  10.938  64.140  1.00  0.00    -0.364 C  
BRANCH   6   7
HETATM    7  C   UNL     1     -10.784  11.483  65.485  1.00  0.00    -0.328 C  
BRANCH   7   8
HETATM    8  C   UNL     1     -10.053  12.762  65.940  1.00  0.00    -0.286 C  
BRANCH   8   9
HETATM    9  C   UNL     1      -9.315  12.643  67.299  1.00  0.00    -0.195 C  
HETATM   10  C   UNL     1      -8.407  11.403  67.312  1.00  0.00    -0.149 A  
HETATM   11  C   UNL     1     -10.297  12.311  68.429  1.00  0.00    -0.231 A  
HETATM   12  C   UNL     1     -11.354  13.078  68.901  1.00  0.00    -0.333 A  
HETATM   13  C   UNL     1      -7.316  11.130  66.498  1.00  0.00    -0.129 A  
HETATM   14  C   UNL     1     -12.178  12.525  69.881  1.00  0.00    -0.233 A  
HETATM   15  C   UNL     1     -11.943  11.227  70.365  1.00  0.00    -0.471 A  
HETATM   16  C   UNL     1     -10.867  10.465  69.894  1.00  0.00    -0.353 A  
HETATM   17  C   UNL     1      -6.695   9.888  66.630  1.00  0.00    -0.080 A  
HETATM   18  C   UNL     1      -7.168   8.946  67.559  1.00  0.00    -0.080 A  
HETATM   19  C   UNL     1      -8.266   9.231  68.379  1.00  0.00    -0.115 A  
HETATM   20  C   UNL     1      -8.883  10.465  68.254  1.00  0.00    -0.135 A  
HETATM   21  C   UNL     1     -10.040  11.016  68.932  1.00  0.00    -0.212 A  
BRANCH   9  22
HETATM   22  C   UNL     1      -8.515  13.930  67.596  1.00  0.00    -0.192 C  
HETATM   23  H1  UNL     1      -7.982  15.742  66.822  1.00  0.00     0.000 HD 
HETATM   24  N   UNL     1      -8.510  14.892  66.625  1.00  0.00    -0.414 N  
HETATM   25  O   UNL     1      -7.892  14.126  68.638  1.00  0.00    -0.135 OA 
HETATM   26  H2  UNL     1      -9.011  14.766  65.745  1.00  0.00     0.000 HD 
ENDBRANCH   9  22
ENDBRANCH   8   9
ENDBRANCH   7   8
ENDBRANCH   6   7
ENDBRANCH   4   6
ENDBRANCH   2   4
TORSDOF 6
ENDMDL
MODEL      120
REMARK 921   NORMALIZED FREE ENERGY PREDICTED BY IDOCK:   -4.29 KCAL/MOL
REMARK 922        TOTAL FREE ENERGY PREDICTED BY IDOCK:   -6.81 KCAL/MOL
REMARK 923 INTER-LIGAND FREE ENERGY PREDICTED BY IDOCK:   -5.32 KCAL/MOL
REMARK 924 INTRA-LIGAND FREE ENERGY PREDICTED BY IDOCK:   -1.49 KCAL/MOL
REMARK 927      BINDING AFFINITY PREDICTED BY RF-SCORE:    0.00 PKD
ROOT
HETATM    1  C   UNL     1     -10.902   5.579  70.497  1.00  0.00    -0.266 C  
HETATM    2  C   UNL     1      -9.602   5.204  69.783  1.00  0.00    -0.175 C  
HETATM    3  C   UNL     1      -9.454   3.683  69.735  1.00  0.00    -0.254 C  
ENDROOT
BRANCH   2   4
HETATM    4  N   UNL     1      -9.654   5.806  68.448  1.00  0.00    -0.121 NA 
HETATM    5  H   UNL     1      -9.486   5.100  67.730  1.00  0.00     0.000 HD 
BRANCH   4   6
HETATM    6  C   UNL     1     -10.889   6.532  68.173  1.00  0.00    -0.295 C  
BRANCH   6   7
HETATM    7  C   UNL     1     -10.579   7.934  67.646  1.00  0.00    -0.276 C  
BRANCH   7   8
HETATM    8  C   UNL     1      -9.114   8.369  67.853  1.00  0.00    -0.137 C  
BRANCH   8   9
HETATM    9  C   UNL     1      -8.890   9.381  69.007  1.00  0.00    -0.141 C  
HETATM   10  C   UNL     1      -8.431   8.653  70.280  1.00  0.00    -0.133 A  
HETATM   11  C   UNL     1     -10.221   9.987  69.470  1.00  0.00    -0.255 A  
HETATM   12  C   UNL     1     -11.102  10.780  68.746  1.00  0.00    -0.312 A  
HETATM   13  C   UNL     1      -7.272   7.911  70.473  1.00  0.00    -0.053 A  
HETATM   14  C   UNL     1     -12.307  11.139  69.348  1.00  0.00    -0.224 A  
HETATM   15  C   UNL     1     -12.617  10.701  70.646  1.00  0.00    -0.454 A  
HETATM   16  C   UNL     1     -11.718   9.912  71.375  1.00  0.00    -0.449 A  
HETATM   17  C   UNL     1      -7.110   7.258  71.694  1.00  0.00    -0.067 A  
HETATM   18  C   UNL     1      -8.093   7.350  72.693  1.00  0.00    -0.122 A  
HETATM   19  C   UNL     1      -9.256   8.103  72.492  1.00  0.00    -0.319 A  
HETATM   20  C   UNL     1      -9.420   8.757  71.281  1.00  0.00    -0.320 A  
HETATM   21  C   UNL     1     -10.516   9.566  70.786  1.00  0.00    -0.384 A  
BRANCH   9  22
HETATM   22  C   UNL     1      -7.882  10.470  68.585  1.00  0.00    -0.116 C  
HETATM   23  H1  UNL     1      -6.865  12.108  69.257  1.00  0.00     0.000 HD 
HETATM   24  N   UNL     1      -7.532  11.389  69.535  1.00  0.00    -0.355 N  
HETATM   25  O   UNL     1      -7.392  10.555  67.461  1.00  0.00    -0.090 OA 
HETATM   26  H2  UNL     1      -7.919  11.356  70.479  1.00  0.00     0.000 HD 
ENDBRANCH   9  22
ENDBRANCH   8   9
ENDBRANCH   7   8
ENDBRANCH   6   7
ENDBRANCH   4   6
ENDBRANCH   2   4
TORSDOF 6
ENDMDL
MODEL      121
REMARK 921   NORMALIZED FREE ENERGY PREDICTED BY IDOCK:   -4.29 KCAL/MOL
REMARK 922        TOTAL FREE ENERGY PREDICTED BY IDOCK:   -6.80 KCAL/MOL
REMARK 923 INTER-LIGAND FREE ENERGY PREDICTED BY IDOCK:   -5.84 KCAL/MOL
REMARK 924 INTRA-LIGAND FREE ENERGY PREDICTED BY IDOCK:   -0.97 KCAL/MOL
REMARK 927      BINDING AFFINITY PREDICTED BY RF-SCORE:    0.00 PKD
ROOT
HETATM    1  C   UNL     1     -11.441   8.170  72.567  1.00  0.00    -0.470 C  
HETATM    2  C   UNL     1     -12.194   8.616  71.312  1.00  0.00    -0.281 C  
HETATM    3  C   UNL     1     -12.833   9.985  71.547  1.00  0.00    -0.537 C  
ENDROOT
BRANCH   2   4
HETATM    4  N   UNL     1     -11.227   8.629  70.211  1.00  0.00    -0.366 NA 
HETATM    5  H   UNL     1     -11.590   8.116  69.408  1.00  0.00     0.000 HD 
BRANCH   4   6
HETATM    6  C   UNL     1     -10.799   9.967  69.813  1.00  0.00    -0.269 C  
BRANCH   6   7
HETATM    7  C   UNL     1      -9.587   9.887  68.884  1.00  0.00    -0.172 C  
BRANCH   7   8
HETATM    8  C   UNL     1      -8.582  11.042  69.068  1.00  0.00    -0.076 C  
BRANCH   8   9
HETATM    9  C   UNL     1      -8.550  12.070  67.907  1.00  0.00    -0.165 C  
HETATM   10  C   UNL     1      -9.948  12.664  67.675  1.00  0.00    -0.216 A  
HETATM   11  C   UNL     1      -8.291  11.374  66.565  1.00  0.00    -0.164 A  
HETATM   12  C   UNL     1      -7.164  10.667  66.168  1.00  0.00    -0.138 A  
HETATM   13  C   UNL     1     -10.717  13.418  68.553  1.00  0.00    -0.278 A  
HETATM   14  C   UNL     1      -7.193  10.033  64.926  1.00  0.00    -0.140 A  
HETATM   15  C   UNL     1      -8.335  10.107  64.111  1.00  0.00    -0.168 A  
HETATM   16  C   UNL     1      -9.462  10.833  64.512  1.00  0.00    -0.297 A  
HETATM   17  C   UNL     1     -12.005  13.773  68.155  1.00  0.00    -0.394 A  
HETATM   18  C   UNL     1     -12.505  13.374  66.905  1.00  0.00    -0.114 A  
HETATM   19  C   UNL     1     -11.722  12.618  66.024  1.00  0.00    -0.470 A  
HETATM   20  C   UNL     1     -10.440  12.266  66.413  1.00  0.00    -0.263 A  
HETATM   21  C   UNL     1      -9.432  11.474  65.737  1.00  0.00    -0.255 A  
BRANCH   9  22
HETATM   22  C   UNL     1      -7.508  13.174  68.189  1.00  0.00    -0.131 C  
HETATM   23  H1  UNL     1      -6.136  13.819  69.554  1.00  0.00     0.000 HD 
HETATM   24  N   UNL     1      -6.824  13.090  69.369  1.00  0.00    -0.297 N  
HETATM   25  O   UNL     1      -7.272  14.107  67.423  1.00  0.00    -0.180 OA 
HETATM   26  H2  UNL     1      -6.994  12.334  70.033  1.00  0.00     0.000 HD 
ENDBRANCH   9  22
ENDBRANCH   8   9
ENDBRANCH   7   8
ENDBRANCH   6   7
ENDBRANCH   4   6
ENDBRANCH   2   4
TORSDOF 6
ENDMDL
MODEL      122
REMARK 921   NORMALIZED FREE ENERGY PREDICTED BY IDOCK:   -4.28 KCAL/MOL
REMARK 922        TOTAL FREE ENERGY PREDICTED BY IDOCK:   -6.78 KCAL/MOL
REMARK 923 INTER-LIGAND FREE ENERGY PREDICTED BY IDOCK:   -5.72 KCAL/MOL
REMARK 924 INTRA-LIGAND FREE ENERGY PREDICTED BY IDOCK:   -1.07 KCAL/MOL
REMARK 927      BINDING AFFINITY PREDICTED BY RF-SCORE:    0.00 PKD
ROOT
HETATM    1  C   UNL     1     -12.459  12.237  63.485  1.00  0.00    -0.642 C  
HETATM    2  C   UNL     1     -11.574  13.250  64.214  1.00  0.00    -0.400 C  
HETATM    3  C   UNL     1     -12.433  14.139  65.114  1.00  0.00    -0.453 C  
ENDROOT
BRANCH   2   4
HETATM    4  N   UNL     1     -10.575  12.487  64.967  1.00  0.00    -0.291 NA 
HETATM    5  H   UNL     1      -9.646  12.888  64.838  1.00  0.00     0.000 HD 
BRANCH   4   6
HETATM    6  C   UNL     1     -10.881  12.350  66.388  1.00  0.00    -0.258 C  
BRANCH   6   7
HETATM    7  C   UNL     1     -10.672  10.905  66.842  1.00  0.00    -0.318 C  
BRANCH   7   8
HETATM    8  C   UNL     1      -9.940  10.025  65.809  1.00  0.00    -0.346 C  
BRANCH   8   9
HETATM    9  C   UNL     1      -8.903   9.039  66.409  1.00  0.00    -0.172 C  
HETATM   10  C   UNL     1      -9.605   7.981  67.274  1.00  0.00    -0.210 A  
HETATM   11  C   UNL     1      -8.018   9.740  67.447  1.00  0.00    -0.102 A  
HETATM   12  C   UNL     1      -7.129  10.789  67.251  1.00  0.00    -0.091 A  
HETATM   13  C   UNL     1     -10.537   7.031  66.879  1.00  0.00    -0.372 A  
HETATM   14  C   UNL     1      -6.500  11.332  68.370  1.00  0.00    -0.057 A  
HETATM   15  C   UNL     1      -6.768  10.832  69.655  1.00  0.00    -0.122 A  
HETATM   16  C   UNL     1      -7.655   9.766  69.844  1.00  0.00    -0.154 A  
HETATM   17  C   UNL     1     -11.112   6.229  67.864  1.00  0.00    -0.360 A  
HETATM   18  C   UNL     1     -10.756   6.385  69.214  1.00  0.00    -0.349 A  
HETATM   19  C   UNL     1      -9.811   7.342  69.603  1.00  0.00    -0.175 A  
HETATM   20  C   UNL     1      -9.234   8.138  68.627  1.00  0.00    -0.143 A  
HETATM   21  C   UNL     1      -8.270   9.216  68.735  1.00  0.00    -0.109 A  
BRANCH   9  22
HETATM   22  C   UNL     1      -8.064   8.387  65.290  1.00  0.00    -0.140 C  
HETATM   23  H1  UNL     1      -7.987   8.068  63.275  1.00  0.00     0.000 HD 
HETATM   24  N   UNL     1      -8.542   8.499  64.014  1.00  0.00    -0.402 N  
HETATM   25  O   UNL     1      -7.012   7.780  65.484  1.00  0.00    -0.052 OA 
HETATM   26  H2  UNL     1      -9.413   8.991  63.811  1.00  0.00     0.000 HD 
ENDBRANCH   9  22
ENDBRANCH   8   9
ENDBRANCH   7   8
ENDBRANCH   6   7
ENDBRANCH   4   6
ENDBRANCH   2   4
TORSDOF 6
ENDMDL
MODEL      123
REMARK 921   NORMALIZED FREE ENERGY PREDICTED BY IDOCK:   -4.27 KCAL/MOL
REMARK 922        TOTAL FREE ENERGY PREDICTED BY IDOCK:   -6.77 KCAL/MOL
REMARK 923 INTER-LIGAND FREE ENERGY PREDICTED BY IDOCK:   -7.01 KCAL/MOL
REMARK 924 INTRA-LIGAND FREE ENERGY PREDICTED BY IDOCK:    0.24 KCAL/MOL
REMARK 927      BINDING AFFINITY PREDICTED BY RF-SCORE:    0.00 PKD
ROOT
HETATM    1  C   UNL     1      -6.018  18.889  69.305  1.00  0.00    -0.255 C  
HETATM    2  C   UNL     1      -5.279  17.590  69.631  1.00  0.00    -0.179 C  
HETATM    3  C   UNL     1      -5.221  17.389  71.145  1.00  0.00    -0.120 C  
ENDROOT
BRANCH   2   4
HETATM    4  N   UNL     1      -5.990  16.506  68.947  1.00  0.00    -0.138 NA 
HETATM    5  H   UNL     1      -6.253  15.776  69.610  1.00  0.00     0.000 HD 
BRANCH   4   6
HETATM    6  C   UNL     1      -7.154  16.948  68.185  1.00  0.00    -0.165 C  
BRANCH   6   7
HETATM    7  C   UNL     1      -8.129  15.789  67.977  1.00  0.00    -0.143 C  
BRANCH   7   8
HETATM    8  C   UNL     1      -8.564  15.595  66.510  1.00  0.00    -0.335 C  
BRANCH   8   9
HETATM    9  C   UNL     1     -10.093  15.450  66.296  1.00  0.00    -0.309 C  
HETATM   10  C   UNL     1     -10.822  15.391  67.647  1.00  0.00    -0.304 A  
HETATM   11  C   UNL     1     -10.436  14.076  65.706  1.00  0.00    -0.317 A  
HETATM   12  C   UNL     1     -10.064  13.552  64.475  1.00  0.00    -0.179 A  
HETATM   13  C   UNL     1     -10.878  16.365  68.635  1.00  0.00    -0.331 A  
HETATM   14  C   UNL     1     -10.415  12.233  64.192  1.00  0.00    -0.402 A  
HETATM   15  C   UNL     1     -11.119  11.462  65.132  1.00  0.00    -0.203 A  
HETATM   16  C   UNL     1     -11.502  12.001  66.366  1.00  0.00    -0.417 A  
HETATM   17  C   UNL     1     -11.528  16.051  69.828  1.00  0.00    -0.318 A  
HETATM   18  C   UNL     1     -12.106  14.784  70.017  1.00  0.00    -0.380 A  
HETATM   19  C   UNL     1     -12.050  13.810  69.014  1.00  0.00    -0.359 A  
HETATM   20  C   UNL     1     -11.407  14.119  67.826  1.00  0.00    -0.330 A  
HETATM   21  C   UNL     1     -11.168  13.314  66.644  1.00  0.00    -0.332 A  
BRANCH   9  22
HETATM   22  C   UNL     1     -10.628  16.600  65.415  1.00  0.00    -0.237 C  
HETATM   23  H1  UNL     1     -11.685  17.005  63.717  1.00  0.00     0.000 HD 
HETATM   24  N   UNL     1     -11.331  16.246  64.298  1.00  0.00    -0.642 N  
HETATM   25  O   UNL     1     -10.453  17.792  65.661  1.00  0.00    -0.613 OA 
HETATM   26  H2  UNL     1     -11.495  15.268  64.057  1.00  0.00     0.000 HD 
ENDBRANCH   9  22
ENDBRANCH   8   9
ENDBRANCH   7   8
ENDBRANCH   6   7
ENDBRANCH   4   6
ENDBRANCH   2   4
TORSDOF 6
ENDMDL
MODEL      124
REMARK 921   NORMALIZED FREE ENERGY PREDICTED BY IDOCK:   -4.26 KCAL/MOL
REMARK 922        TOTAL FREE ENERGY PREDICTED BY IDOCK:   -6.76 KCAL/MOL
REMARK 923 INTER-LIGAND FREE ENERGY PREDICTED BY IDOCK:   -6.49 KCAL/MOL
REMARK 924 INTRA-LIGAND FREE ENERGY PREDICTED BY IDOCK:   -0.27 KCAL/MOL
REMARK 927      BINDING AFFINITY PREDICTED BY RF-SCORE:    0.00 PKD
ROOT
HETATM    1  C   UNL     1      -5.480  10.286  63.043  1.00  0.00    -0.132 C  
HETATM    2  C   UNL     1      -6.802   9.646  62.615  1.00  0.00    -0.099 C  
HETATM    3  C   UNL     1      -7.123   8.458  63.522  1.00  0.00    -0.090 C  
ENDROOT
BRANCH   2   4
HETATM    4  N   UNL     1      -7.828  10.691  62.675  1.00  0.00    -0.266 NA 
HETATM    5  H   UNL     1      -7.911  11.164  61.775  1.00  0.00     0.000 HD 
BRANCH   4   6
HETATM    6  C   UNL     1      -9.132  10.217  63.127  1.00  0.00    -0.277 C  
BRANCH   6   7
HETATM    7  C   UNL     1      -9.559  10.954  64.397  1.00  0.00    -0.312 C  
BRANCH   7   8
HETATM    8  C   UNL     1     -10.086  12.381  64.143  1.00  0.00    -0.322 C  
BRANCH   8   9
HETATM    9  C   UNL     1     -11.040  12.928  65.236  1.00  0.00    -0.313 C  
HETATM   10  C   UNL     1     -10.556  14.297  65.739  1.00  0.00    -0.315 A  
HETATM   11  C   UNL     1     -10.948  12.086  66.515  1.00  0.00    -0.337 A  
HETATM   12  C   UNL     1     -11.276  10.748  66.689  1.00  0.00     0.003 A  
HETATM   13  C   UNL     1     -10.423  15.477  65.019  1.00  0.00    -0.392 A  
HETATM   14  C   UNL     1     -11.016  10.166  67.928  1.00  0.00    -0.335 A  
HETATM   15  C   UNL     1     -10.433  10.915  68.964  1.00  0.00    -0.244 A  
HETATM   16  C   UNL     1     -10.118  12.268  68.786  1.00  0.00    -0.082 A  
HETATM   17  C   UNL     1      -9.870  16.581  65.668  1.00  0.00    -0.187 A  
HETATM   18  C   UNL     1      -9.459  16.493  67.009  1.00  0.00    -0.249 A  
HETATM   19  C   UNL     1      -9.601  15.300  67.728  1.00  0.00    -0.206 A  
HETATM   20  C   UNL     1     -10.153  14.202  67.089  1.00  0.00    -0.258 A  
HETATM   21  C   UNL     1     -10.387  12.852  67.562  1.00  0.00    -0.223 A  
BRANCH   9  22
HETATM   22  C   UNL     1     -12.488  13.003  64.705  1.00  0.00    -0.400 C  
HETATM   23  H1  UNL     1     -13.709  12.388  63.189  1.00  0.00     0.000 HD 
HETATM   24  N   UNL     1     -12.753  12.339  63.540  1.00  0.00    -0.784 N  
HETATM   25  O   UNL     1     -13.393  13.622  65.262  1.00  0.00    -0.669 OA 
HETATM   26  H2  UNL     1     -12.028  11.818  63.045  1.00  0.00     0.000 HD 
ENDBRANCH   9  22
ENDBRANCH   8   9
ENDBRANCH   7   8
ENDBRANCH   6   7
ENDBRANCH   4   6
ENDBRANCH   2   4
TORSDOF 6
ENDMDL
MODEL      125
REMARK 921   NORMALIZED FREE ENERGY PREDICTED BY IDOCK:   -4.23 KCAL/MOL
REMARK 922        TOTAL FREE ENERGY PREDICTED BY IDOCK:   -6.73 KCAL/MOL
REMARK 923 INTER-LIGAND FREE ENERGY PREDICTED BY IDOCK:   -5.77 KCAL/MOL
REMARK 924 INTRA-LIGAND FREE ENERGY PREDICTED BY IDOCK:   -0.95 KCAL/MOL
REMARK 927      BINDING AFFINITY PREDICTED BY RF-SCORE:    0.00 PKD
ROOT
HETATM    1  C   UNL     1     -10.189  14.269  66.275  1.00  0.00    -0.307 C  
HETATM    2  C   UNL     1     -10.965  12.950  66.266  1.00  0.00    -0.281 C  
HETATM    3  C   UNL     1     -10.727  12.216  64.946  1.00  0.00    -0.336 C  
ENDROOT
BRANCH   2   4
HETATM    4  N   UNL     1     -10.516  12.177  67.427  1.00  0.00    -0.211 NA 
HETATM    5  H   UNL     1     -10.299  12.796  68.208  1.00  0.00     0.000 HD 
BRANCH   4   6
HETATM    6  C   UNL     1     -11.450  11.135  67.842  1.00  0.00    -0.284 C  
BRANCH   6   7
HETATM    7  C   UNL     1     -10.725   9.797  67.994  1.00  0.00    -0.298 C  
BRANCH   7   8
HETATM    8  C   UNL     1      -9.423   9.881  68.816  1.00  0.00    -0.157 C  
BRANCH   8   9
HETATM    9  C   UNL     1      -9.243   8.758  69.871  1.00  0.00    -0.160 C  
HETATM   10  C   UNL     1      -9.046   7.399  69.181  1.00  0.00    -0.134 A  
HETATM   11  C   UNL     1     -10.545   8.519  70.645  1.00  0.00    -0.241 A  
HETATM   12  C   UNL     1     -11.222   9.399  71.479  1.00  0.00    -0.457 A  
HETATM   13  C   UNL     1      -8.018   7.007  68.334  1.00  0.00    -0.123 A  
HETATM   14  C   UNL     1     -12.449   8.992  72.003  1.00  0.00    -0.460 A  
HETATM   15  C   UNL     1     -12.980   7.730  71.685  1.00  0.00    -0.374 A  
HETATM   16  C   UNL     1     -12.285   6.844  70.854  1.00  0.00    -0.404 A  
HETATM   17  C   UNL     1      -8.098   5.745  67.748  1.00  0.00    -0.102 A  
HETATM   18  C   UNL     1      -9.191   4.901  68.008  1.00  0.00    -0.147 A  
HETATM   19  C   UNL     1     -10.221   5.302  68.867  1.00  0.00    -0.248 A  
HETATM   20  C   UNL     1     -10.144   6.554  69.455  1.00  0.00    -0.203 A  
HETATM   21  C   UNL     1     -11.062   7.239  70.344  1.00  0.00    -0.291 A  
BRANCH   9  22
HETATM   22  C   UNL     1      -8.068   9.086  70.817  1.00  0.00    -0.166 C  
HETATM   23  H1  UNL     1      -7.018   8.393  72.424  1.00  0.00     0.000 HD 
HETATM   24  N   UNL     1      -7.795   8.176  71.799  1.00  0.00    -0.102 N  
HETATM   25  O   UNL     1      -7.384  10.104  70.735  1.00  0.00    -0.288 OA 
HETATM   26  H2  UNL     1      -8.342   7.321  71.903  1.00  0.00     0.000 HD 
ENDBRANCH   9  22
ENDBRANCH   8   9
ENDBRANCH   7   8
ENDBRANCH   6   7
ENDBRANCH   4   6
ENDBRANCH   2   4
TORSDOF 6
ENDMDL
MODEL      126
REMARK 921   NORMALIZED FREE ENERGY PREDICTED BY IDOCK:   -4.22 KCAL/MOL
REMARK 922        TOTAL FREE ENERGY PREDICTED BY IDOCK:   -6.71 KCAL/MOL
REMARK 923 INTER-LIGAND FREE ENERGY PREDICTED BY IDOCK:   -5.33 KCAL/MOL
REMARK 924 INTRA-LIGAND FREE ENERGY PREDICTED BY IDOCK:   -1.38 KCAL/MOL
REMARK 927      BINDING AFFINITY PREDICTED BY RF-SCORE:    0.00 PKD
ROOT
HETATM    1  C   UNL     1      -6.579   9.802  65.271  1.00  0.00    -0.098 C  
HETATM    2  C   UNL     1      -7.938   9.604  64.596  1.00  0.00    -0.135 C  
HETATM    3  C   UNL     1      -8.781   8.617  65.403  1.00  0.00    -0.208 C  
ENDROOT
BRANCH   2   4
HETATM    4  N   UNL     1      -8.565  10.925  64.494  1.00  0.00    -0.365 NA 
HETATM    5  H   UNL     1      -8.171  11.449  63.712  1.00  0.00     0.000 HD 
BRANCH   4   6
HETATM    6  C   UNL     1     -10.021  10.885  64.402  1.00  0.00    -0.322 C  
BRANCH   6   7
HETATM    7  C   UNL     1     -10.642  11.970  65.283  1.00  0.00    -0.328 C  
BRANCH   7   8
HETATM    8  C   UNL     1     -11.205  11.443  66.619  1.00  0.00    -0.298 C  
BRANCH   8   9
HETATM    9  C   UNL     1     -10.688  12.181  67.881  1.00  0.00    -0.237 C  
HETATM   10  C   UNL     1     -10.431  13.664  67.571  1.00  0.00    -0.241 A  
HETATM   11  C   UNL     1      -9.280  11.702  68.257  1.00  0.00    -0.187 A  
HETATM   12  C   UNL     1      -8.882  10.432  68.654  1.00  0.00    -0.142 A  
HETATM   13  C   UNL     1     -11.347  14.628  67.171  1.00  0.00    -0.365 A  
HETATM   14  C   UNL     1      -7.521  10.205  68.853  1.00  0.00    -0.086 A  
HETATM   15  C   UNL     1      -6.586  11.234  68.650  1.00  0.00    -0.064 A  
HETATM   16  C   UNL     1      -6.996  12.515  68.263  1.00  0.00    -0.089 A  
HETATM   17  C   UNL     1     -10.864  15.897  66.854  1.00  0.00    -0.240 A  
HETATM   18  C   UNL     1      -9.491  16.184  66.936  1.00  0.00    -0.245 A  
HETATM   19  C   UNL     1      -8.575  15.207  67.345  1.00  0.00    -0.201 A  
HETATM   20  C   UNL     1      -9.051  13.946  67.664  1.00  0.00    -0.197 A  
HETATM   21  C   UNL     1      -8.347  12.748  68.078  1.00  0.00    -0.173 A  
BRANCH   9  22
HETATM   22  C   UNL     1     -11.680  12.014  69.052  1.00  0.00    -0.325 C  
HETATM   23  H1  UNL     1     -12.996  10.710  69.909  1.00  0.00     0.000 HD 
HETATM   24  N   UNL     1     -12.341  10.820  69.135  1.00  0.00    -0.462 N  
HETATM   25  O   UNL     1     -11.904  12.883  69.892  1.00  0.00    -0.323 OA 
HETATM   26  H2  UNL     1     -12.186  10.075  68.455  1.00  0.00     0.000 HD 
ENDBRANCH   9  22
ENDBRANCH   8   9
ENDBRANCH   7   8
ENDBRANCH   6   7
ENDBRANCH   4   6
ENDBRANCH   2   4
TORSDOF 6
ENDMDL
MODEL      127
REMARK 921   NORMALIZED FREE ENERGY PREDICTED BY IDOCK:   -4.20 KCAL/MOL
REMARK 922        TOTAL FREE ENERGY PREDICTED BY IDOCK:   -6.68 KCAL/MOL
REMARK 923 INTER-LIGAND FREE ENERGY PREDICTED BY IDOCK:   -5.42 KCAL/MOL
REMARK 924 INTRA-LIGAND FREE ENERGY PREDICTED BY IDOCK:   -1.26 KCAL/MOL
REMARK 927      BINDING AFFINITY PREDICTED BY RF-SCORE:    0.00 PKD
ROOT
HETATM    1  C   UNL     1     -10.251  12.046  66.611  1.00  0.00    -0.229 C  
HETATM    2  C   UNL     1     -10.917  13.186  67.383  1.00  0.00    -0.264 C  
HETATM    3  C   UNL     1     -12.381  13.314  66.963  1.00  0.00    -0.190 C  
ENDROOT
BRANCH   2   4
HETATM    4  N   UNL     1     -10.766  12.888  68.810  1.00  0.00    -0.323 NA 
HETATM    5  H   UNL     1     -10.846  13.739  69.365  1.00  0.00     0.000 HD 
BRANCH   4   6
HETATM    6  C   UNL     1     -11.685  11.867  69.303  1.00  0.00    -0.328 C  
BRANCH   6   7
HETATM    7  C   UNL     1     -10.930  10.814  70.116  1.00  0.00    -0.230 C  
BRANCH   7   8
HETATM    8  C   UNL     1     -11.658   9.458  70.210  1.00  0.00    -0.181 C  
BRANCH   8   9
HETATM    9  C   UNL     1     -10.754   8.216  69.996  1.00  0.00    -0.243 C  
HETATM   10  C   UNL     1      -9.569   8.238  70.973  1.00  0.00    -0.197 A  
HETATM   11  C   UNL     1     -10.032   8.290  68.644  1.00  0.00    -0.203 A  
HETATM   12  C   UNL     1     -10.589   8.289  67.372  1.00  0.00    -0.324 A  
HETATM   13  C   UNL     1      -9.600   8.191  72.361  1.00  0.00    -0.335 A  
HETATM   14  C   UNL     1      -9.736   8.464  66.284  1.00  0.00    -0.278 A  
HETATM   15  C   UNL     1      -8.356   8.641  66.477  1.00  0.00    -0.108 A  
HETATM   16  C   UNL     1      -7.800   8.627  67.762  1.00  0.00    -0.103 A  
HETATM   17  C   UNL     1      -8.393   8.319  73.047  1.00  0.00    -0.246 A  
HETATM   18  C   UNL     1      -7.186   8.493  72.350  1.00  0.00    -0.080 A  
HETATM   19  C   UNL     1      -7.162   8.534  70.950  1.00  0.00    -0.065 A  
HETATM   20  C   UNL     1      -8.359   8.403  70.264  1.00  0.00    -0.124 A  
HETATM   21  C   UNL     1      -8.642   8.441  68.843  1.00  0.00    -0.135 A  
BRANCH   9  22
HETATM   22  C   UNL     1     -11.575   6.917  70.135  1.00  0.00    -0.289 C  
HETATM   23  H1  UNL     1     -13.259   6.126  70.976  1.00  0.00     0.000 HD 
HETATM   24  N   UNL     1     -12.716   6.985  70.885  1.00  0.00    -0.555 N  
HETATM   25  O   UNL     1     -11.259   5.846  69.620  1.00  0.00    -0.395 OA 
HETATM   26  H2  UNL     1     -13.011   7.853  71.332  1.00  0.00     0.000 HD 
ENDBRANCH   9  22
ENDBRANCH   8   9
ENDBRANCH   7   8
ENDBRANCH   6   7
ENDBRANCH   4   6
ENDBRANCH   2   4
TORSDOF 6
ENDMDL
MODEL      128
REMARK 921   NORMALIZED FREE ENERGY PREDICTED BY IDOCK:   -4.19 KCAL/MOL
REMARK 922        TOTAL FREE ENERGY PREDICTED BY IDOCK:   -6.67 KCAL/MOL
REMARK 923 INTER-LIGAND FREE ENERGY PREDICTED BY IDOCK:   -6.67 KCAL/MOL
REMARK 924 INTRA-LIGAND FREE ENERGY PREDICTED BY IDOCK:   -0.00 KCAL/MOL
REMARK 927      BINDING AFFINITY PREDICTED BY RF-SCORE:    0.00 PKD
ROOT
HETATM    1  C   UNL     1      -8.551   4.854  66.168  1.00  0.00    -0.116 C  
HETATM    2  C   UNL     1      -9.946   4.622  66.752  1.00  0.00    -0.225 C  
HETATM    3  C   UNL     1      -9.865   4.547  68.277  1.00  0.00    -0.153 C  
ENDROOT
BRANCH   2   4
HETATM    4  N   UNL     1     -10.796   5.721  66.287  1.00  0.00    -0.680 NA 
HETATM    5  H   UNL     1     -11.690   5.364  65.949  1.00  0.00     0.000 HD 
BRANCH   4   6
HETATM    6  C   UNL     1     -11.007   6.769  67.281  1.00  0.00    -0.363 C  
BRANCH   6   7
HETATM    7  C   UNL     1     -10.220   8.026  66.908  1.00  0.00    -0.385 C  
BRANCH   7   8
HETATM    8  C   UNL     1     -10.819   9.329  67.475  1.00  0.00    -0.182 C  
BRANCH   8   9
HETATM    9  C   UNL     1     -10.030  10.617  67.122  1.00  0.00    -0.234 C  
HETATM   10  C   UNL     1     -10.759  11.859  67.659  1.00  0.00    -0.253 A  
HETATM   11  C   UNL     1     -10.058  10.880  65.611  1.00  0.00    -0.318 A  
HETATM   12  C   UNL     1      -9.528  10.098  64.594  1.00  0.00    -0.357 A  
HETATM   13  C   UNL     1     -11.040  12.185  68.980  1.00  0.00    -0.290 A  
HETATM   14  C   UNL     1      -9.760  10.492  63.277  1.00  0.00    -0.361 A  
HETATM   15  C   UNL     1     -10.516  11.643  62.996  1.00  0.00    -0.256 A  
HETATM   16  C   UNL     1     -11.036  12.434  64.028  1.00  0.00    -0.442 A  
HETATM   17  C   UNL     1     -11.801  13.327  69.224  1.00  0.00    -0.383 A  
HETATM   18  C   UNL     1     -12.268  14.118  68.161  1.00  0.00    -0.179 A  
HETATM   19  C   UNL     1     -11.976  13.785  66.833  1.00  0.00    -0.460 A  
HETATM   20  C   UNL     1     -11.217  12.653  66.586  1.00  0.00    -0.346 A  
HETATM   21  C   UNL     1     -10.795  12.054  65.335  1.00  0.00    -0.336 A  
BRANCH   9  22
HETATM   22  C   UNL     1      -8.586  10.534  67.662  1.00  0.00    -0.118 C  
HETATM   23  H1  UNL     1      -6.912  11.640  68.035  1.00  0.00     0.000 HD 
HETATM   24  N   UNL     1      -7.866  11.695  67.678  1.00  0.00    -0.127 N  
HETATM   25  O   UNL     1      -8.062   9.497  68.063  1.00  0.00    -0.101 OA 
HETATM   26  H2  UNL     1      -8.263  12.576  67.350  1.00  0.00     0.000 HD 
ENDBRANCH   9  22
ENDBRANCH   8   9
ENDBRANCH   7   8
ENDBRANCH   6   7
ENDBRANCH   4   6
ENDBRANCH   2   4
TORSDOF 6
ENDMDL
MODEL      129
REMARK 921   NORMALIZED FREE ENERGY PREDICTED BY IDOCK:   -4.17 KCAL/MOL
REMARK 922        TOTAL FREE ENERGY PREDICTED BY IDOCK:   -6.64 KCAL/MOL
REMARK 923 INTER-LIGAND FREE ENERGY PREDICTED BY IDOCK:   -6.76 KCAL/MOL
REMARK 924 INTRA-LIGAND FREE ENERGY PREDICTED BY IDOCK:    0.12 KCAL/MOL
REMARK 927      BINDING AFFINITY PREDICTED BY RF-SCORE:    0.00 PKD
ROOT
HETATM    1  C   UNL     1      -6.536  15.308  68.324  1.00  0.00    -0.115 C  
HETATM    2  C   UNL     1      -6.299  13.858  67.898  1.00  0.00    -0.161 C  
HETATM    3  C   UNL     1      -5.905  13.017  69.112  1.00  0.00    -0.081 C  
ENDROOT
BRANCH   2   4
HETATM    4  N   UNL     1      -7.533  13.387  67.265  1.00  0.00    -0.349 NA 
HETATM    5  H   UNL     1      -8.025  12.736  67.878  1.00  0.00     0.000 HD 
BRANCH   4   6
HETATM    6  C   UNL     1      -8.426  14.459  66.834  1.00  0.00    -0.127 C  
BRANCH   6   7
HETATM    7  C   UNL     1      -9.598  14.601  67.805  1.00  0.00    -0.213 C  
BRANCH   7   8
HETATM    8  C   UNL     1      -9.823  13.364  68.698  1.00  0.00    -0.116 C  
BRANCH   8   9
HETATM    9  C   UNL     1     -11.277  12.824  68.711  1.00  0.00    -0.327 C  
HETATM   10  C   UNL     1     -12.123  13.577  69.749  1.00  0.00    -0.381 A  
HETATM   11  C   UNL     1     -11.326  11.393  69.261  1.00  0.00    -0.355 A  
HETATM   12  C   UNL     1     -10.747  10.248  68.730  1.00  0.00    -0.247 A  
HETATM   13  C   UNL     1     -12.440  14.929  69.781  1.00  0.00    -0.222 A  
HETATM   14  C   UNL     1     -10.844   9.065  69.461  1.00  0.00    -0.177 A  
HETATM   15  C   UNL     1     -11.503   9.043  70.702  1.00  0.00    -0.291 A  
HETATM   16  C   UNL     1     -12.096  10.198  71.225  1.00  0.00    -0.489 A  
HETATM   17  C   UNL     1     -13.149  15.409  70.881  1.00  0.00    -0.528 A  
HETATM   18  C   UNL     1     -13.525  14.547  71.924  1.00  0.00    -0.466 A  
HETATM   19  C   UNL     1     -13.205  13.184  71.883  1.00  0.00    -0.526 A  
HETATM   20  C   UNL     1     -12.504  12.702  70.790  1.00  0.00    -0.357 A  
HETATM   21  C   UNL     1     -12.013  11.370  70.495  1.00  0.00    -0.451 A  
BRANCH   9  22
HETATM   22  C   UNL     1     -11.902  12.916  67.302  1.00  0.00    -0.356 C  
HETATM   23  H1  UNL     1     -11.905  12.051  65.453  1.00  0.00     0.000 HD 
HETATM   24  N   UNL     1     -11.492  11.991  66.383  1.00  0.00    -0.364 N  
HETATM   25  O   UNL     1     -12.728  13.764  66.971  1.00  0.00    -0.059 OA 
HETATM   26  H2  UNL     1     -10.805  11.273  66.617  1.00  0.00     0.000 HD 
ENDBRANCH   9  22
ENDBRANCH   8   9
ENDBRANCH   7   8
ENDBRANCH   6   7
ENDBRANCH   4   6
ENDBRANCH   2   4
TORSDOF 6
ENDMDL
MODEL      130
REMARK 921   NORMALIZED FREE ENERGY PREDICTED BY IDOCK:   -4.16 KCAL/MOL
REMARK 922        TOTAL FREE ENERGY PREDICTED BY IDOCK:   -6.63 KCAL/MOL
REMARK 923 INTER-LIGAND FREE ENERGY PREDICTED BY IDOCK:   -6.08 KCAL/MOL
REMARK 924 INTRA-LIGAND FREE ENERGY PREDICTED BY IDOCK:   -0.55 KCAL/MOL
REMARK 927      BINDING AFFINITY PREDICTED BY RF-SCORE:    0.00 PKD
ROOT
HETATM    1  C   UNL     1      -7.435   3.395  66.777  1.00  0.00    -0.076 C  
HETATM    2  C   UNL     1      -8.951   3.508  66.945  1.00  0.00    -0.152 C  
HETATM    3  C   UNL     1      -9.406   2.667  68.138  1.00  0.00    -0.258 C  
ENDROOT
BRANCH   2   4
HETATM    4  N   UNL     1      -9.263   4.931  67.109  1.00  0.00    -0.119 NA 
HETATM    5  H   UNL     1      -8.480   5.507  66.802  1.00  0.00     0.000 HD 
BRANCH   4   6
HETATM    6  C   UNL     1     -10.496   5.348  66.449  1.00  0.00    -0.267 C  
BRANCH   6   7
HETATM    7  C   UNL     1     -10.905   6.746  66.913  1.00  0.00    -0.402 C  
BRANCH   7   8
HETATM    8  C   UNL     1     -10.925   6.914  68.446  1.00  0.00    -0.198 C  
BRANCH   8   9
HETATM    9  C   UNL     1     -10.260   8.214  68.969  1.00  0.00    -0.228 C  
HETATM   10  C   UNL     1     -11.090   8.823  70.109  1.00  0.00    -0.214 A  
HETATM   11  C   UNL     1     -10.328   9.327  67.916  1.00  0.00    -0.279 A  
HETATM   12  C   UNL     1      -9.742   9.356  66.658  1.00  0.00    -0.280 A  
HETATM   13  C   UNL     1     -11.384   8.269  71.348  1.00  0.00    -0.309 A  
HETATM   14  C   UNL     1     -10.024  10.441  65.829  1.00  0.00    -0.334 A  
HETATM   15  C   UNL     1     -10.883  11.467  66.260  1.00  0.00    -0.318 A  
HETATM   16  C   UNL     1     -11.459  11.437  67.535  1.00  0.00    -0.336 A  
HETATM   17  C   UNL     1     -12.242   8.972  72.193  1.00  0.00    -0.427 A  
HETATM   18  C   UNL     1     -12.790  10.203  71.795  1.00  0.00    -0.554 A  
HETATM   19  C   UNL     1     -12.485  10.757  70.546  1.00  0.00    -0.447 A  
HETATM   20  C   UNL     1     -11.631  10.063  69.705  1.00  0.00    -0.193 A  
HETATM   21  C   UNL     1     -11.171  10.369  68.365  1.00  0.00    -0.318 A  
BRANCH   9  22
HETATM   22  C   UNL     1      -8.808   7.938  69.415  1.00  0.00    -0.145 C  
HETATM   23  H1  UNL     1      -7.158   8.805  70.247  1.00  0.00     0.000 HD 
HETATM   24  N   UNL     1      -8.117   8.987  69.953  1.00  0.00    -0.107 N  
HETATM   25  O   UNL     1      -8.252   6.846  69.308  1.00  0.00    -0.122 OA 
HETATM   26  H2  UNL     1      -8.540   9.910  70.055  1.00  0.00     0.000 HD 
ENDBRANCH   9  22
ENDBRANCH   8   9
ENDBRANCH   7   8
ENDBRANCH   6   7
ENDBRANCH   4   6
ENDBRANCH   2   4
TORSDOF 6
ENDMDL
MODEL      131
REMARK 921   NORMALIZED FREE ENERGY PREDICTED BY IDOCK:   -4.16 KCAL/MOL
REMARK 922        TOTAL FREE ENERGY PREDICTED BY IDOCK:   -6.63 KCAL/MOL
REMARK 923 INTER-LIGAND FREE ENERGY PREDICTED BY IDOCK:   -6.22 KCAL/MOL
REMARK 924 INTRA-LIGAND FREE ENERGY PREDICTED BY IDOCK:   -0.41 KCAL/MOL
REMARK 927      BINDING AFFINITY PREDICTED BY RF-SCORE:    0.00 PKD
ROOT
HETATM    1  C   UNL     1      -8.351  18.538  66.735  1.00  0.00    -0.279 C  
HETATM    2  C   UNL     1      -8.605  17.973  68.134  1.00  0.00    -0.273 C  
HETATM    3  C   UNL     1      -9.722  18.760  68.819  1.00  0.00    -0.432 C  
ENDROOT
BRANCH   2   4
HETATM    4  N   UNL     1      -8.935  16.554  67.973  1.00  0.00    -0.201 NA 
HETATM    5  H   UNL     1      -8.643  16.220  67.055  1.00  0.00     0.000 HD 
BRANCH   4   6
HETATM    6  C   UNL     1      -8.398  15.697  69.025  1.00  0.00    -0.235 C  
BRANCH   6   7
HETATM    7  C   UNL     1      -8.838  14.248  68.812  1.00  0.00    -0.094 C  
BRANCH   7   8
HETATM    8  C   UNL     1     -10.365  14.072  68.681  1.00  0.00    -0.238 C  
BRANCH   8   9
HETATM    9  C   UNL     1     -10.820  12.682  68.166  1.00  0.00    -0.250 C  
HETATM   10  C   UNL     1     -11.358  11.828  69.325  1.00  0.00    -0.348 A  
HETATM   11  C   UNL     1      -9.617  11.847  67.708  1.00  0.00    -0.190 A  
HETATM   12  C   UNL     1      -8.735  12.109  66.668  1.00  0.00    -0.153 A  
HETATM   13  C   UNL     1     -12.456  12.079  70.138  1.00  0.00    -0.122 A  
HETATM   14  C   UNL     1      -7.651  11.251  66.498  1.00  0.00    -0.111 A  
HETATM   15  C   UNL     1      -7.458  10.159  67.361  1.00  0.00    -0.094 A  
HETATM   16  C   UNL     1      -8.359   9.893  68.399  1.00  0.00    -0.107 A  
HETATM   17  C   UNL     1     -12.701  11.203  71.194  1.00  0.00    -0.510 A  
HETATM   18  C   UNL     1     -11.858  10.104  71.425  1.00  0.00    -0.414 A  
HETATM   19  C   UNL     1     -10.756   9.856  70.598  1.00  0.00    -0.372 A  
HETATM   20  C   UNL     1     -10.510  10.721  69.545  1.00  0.00    -0.205 A  
HETATM   21  C   UNL     1      -9.444  10.735  68.562  1.00  0.00    -0.181 A  
BRANCH   9  22
HETATM   22  C   UNL     1     -11.869  12.836  67.044  1.00  0.00    -0.361 C  
HETATM   23  H1  UNL     1     -13.201  14.142  66.217  1.00  0.00     0.000 HD 
HETATM   24  N   UNL     1     -12.508  14.041  66.958  1.00  0.00    -0.518 N  
HETATM   25  O   UNL     1     -12.156  11.946  66.246  1.00  0.00    -0.535 OA 
HETATM   26  H2  UNL     1     -12.302  14.803  67.605  1.00  0.00     0.000 HD 
ENDBRANCH   9  22
ENDBRANCH   8   9
ENDBRANCH   7   8
ENDBRANCH   6   7
ENDBRANCH   4   6
ENDBRANCH   2   4
TORSDOF 6
ENDMDL
MODEL      132
REMARK 921   NORMALIZED FREE ENERGY PREDICTED BY IDOCK:   -4.16 KCAL/MOL
REMARK 922        TOTAL FREE ENERGY PREDICTED BY IDOCK:   -6.62 KCAL/MOL
REMARK 923 INTER-LIGAND FREE ENERGY PREDICTED BY IDOCK:   -6.24 KCAL/MOL
REMARK 924 INTRA-LIGAND FREE ENERGY PREDICTED BY IDOCK:   -0.37 KCAL/MOL
REMARK 927      BINDING AFFINITY PREDICTED BY RF-SCORE:    0.00 PKD
ROOT
HETATM    1  C   UNL     1      -8.533   8.940  63.569  1.00  0.00    -0.146 C  
HETATM    2  C   UNL     1      -8.390   8.702  65.074  1.00  0.00    -0.171 C  
HETATM    3  C   UNL     1      -8.529   7.210  65.380  1.00  0.00    -0.090 C  
ENDROOT
BRANCH   2   4
HETATM    4  N   UNL     1      -7.086   9.238  65.473  1.00  0.00    -0.084 NA 
HETATM    5  H   UNL     1      -6.431   9.208  64.691  1.00  0.00     0.000 HD 
BRANCH   4   6
HETATM    6  C   UNL     1      -7.145  10.581  66.041  1.00  0.00    -0.137 C  
BRANCH   6   7
HETATM    7  C   UNL     1      -8.426  10.761  66.856  1.00  0.00    -0.131 C  
BRANCH   7   8
HETATM    8  C   UNL     1      -8.678  12.213  67.311  1.00  0.00    -0.182 C  
BRANCH   8   9
HETATM    9  C   UNL     1     -10.173  12.618  67.401  1.00  0.00    -0.219 C  
HETATM   10  C   UNL     1     -10.800  12.677  66.000  1.00  0.00    -0.306 A  
HETATM   11  C   UNL     1     -10.319  14.075  67.860  1.00  0.00    -0.239 A  
HETATM   12  C   UNL     1      -9.939  14.636  69.072  1.00  0.00    -0.195 A  
HETATM   13  C   UNL     1     -10.957  11.644  65.086  1.00  0.00    -0.326 A  
HETATM   14  C   UNL     1     -10.083  16.013  69.230  1.00  0.00    -0.249 A  
HETATM   15  C   UNL     1     -10.592  16.804  68.186  1.00  0.00    -0.350 A  
HETATM   16  C   UNL     1     -10.985  16.229  66.972  1.00  0.00    -0.086 A  
HETATM   17  C   UNL     1     -11.474  11.955  63.829  1.00  0.00    -0.542 A  
HETATM   18  C   UNL     1     -11.822  13.277  63.504  1.00  0.00    -0.477 A  
HETATM   19  C   UNL     1     -11.665  14.312  64.433  1.00  0.00    -0.405 A  
HETATM   20  C   UNL     1     -11.155  14.007  65.685  1.00  0.00    -0.302 A  
HETATM   21  C   UNL     1     -10.856  14.861  66.817  1.00  0.00    -0.320 A  
BRANCH   9  22
HETATM   22  C   UNL     1     -10.943  11.649  68.324  1.00  0.00    -0.226 C  
HETATM   23  H1  UNL     1     -10.896  10.745  70.153  1.00  0.00     0.000 HD 
HETATM   24  N   UNL     1     -10.387  11.385  69.544  1.00  0.00    -0.438 N  
HETATM   25  O   UNL     1     -12.005  11.109  68.019  1.00  0.00    -0.625 OA 
HETATM   26  H2  UNL     1      -9.504  11.809  69.833  1.00  0.00     0.000 HD 
ENDBRANCH   9  22
ENDBRANCH   8   9
ENDBRANCH   7   8
ENDBRANCH   6   7
ENDBRANCH   4   6
ENDBRANCH   2   4
TORSDOF 6
ENDMDL
MODEL      133
REMARK 921   NORMALIZED FREE ENERGY PREDICTED BY IDOCK:   -4.13 KCAL/MOL
REMARK 922        TOTAL FREE ENERGY PREDICTED BY IDOCK:   -6.58 KCAL/MOL
REMARK 923 INTER-LIGAND FREE ENERGY PREDICTED BY IDOCK:   -6.42 KCAL/MOL
REMARK 924 INTRA-LIGAND FREE ENERGY PREDICTED BY IDOCK:   -0.16 KCAL/MOL
REMARK 927      BINDING AFFINITY PREDICTED BY RF-SCORE:    0.00 PKD
ROOT
HETATM    1  C   UNL     1     -11.854   8.784  72.073  1.00  0.00    -0.442 C  
HETATM    2  C   UNL     1     -10.441   8.840  71.488  1.00  0.00    -0.303 C  
HETATM    3  C   UNL     1     -10.217   7.652  70.553  1.00  0.00    -0.201 C  
ENDROOT
BRANCH   2   4
HETATM    4  N   UNL     1     -10.309  10.128  70.802  1.00  0.00    -0.322 NA 
HETATM    5  H   UNL     1      -9.673  10.048  70.008  1.00  0.00     0.000 HD 
BRANCH   4   6
HETATM    6  C   UNL     1     -11.580  10.710  70.383  1.00  0.00    -0.351 C  
BRANCH   6   7
HETATM    7  C   UNL     1     -11.506  11.165  68.925  1.00  0.00    -0.363 C  
BRANCH   7   8
HETATM    8  C   UNL     1     -10.374  12.175  68.643  1.00  0.00    -0.211 C  
BRANCH   8   9
HETATM    9  C   UNL     1     -10.852  13.587  68.213  1.00  0.00    -0.277 C  
HETATM   10  C   UNL     1      -9.650  14.484  67.883  1.00  0.00    -0.217 A  
HETATM   11  C   UNL     1     -11.476  14.338  69.395  1.00  0.00    -0.337 A  
HETATM   12  C   UNL     1     -12.616  14.010  70.117  1.00  0.00    -0.310 A  
HETATM   13  C   UNL     1      -8.698  14.313  66.886  1.00  0.00    -0.202 A  
HETATM   14  C   UNL     1     -12.940  14.795  71.222  1.00  0.00    -0.413 A  
HETATM   15  C   UNL     1     -12.129  15.881  71.592  1.00  0.00    -0.554 A  
HETATM   16  C   UNL     1     -10.988  16.214  70.851  1.00  0.00    -0.103 A  
HETATM   17  C   UNL     1      -7.635  15.213  66.834  1.00  0.00     0.011 A  
HETATM   18  C   UNL     1      -7.534  16.258  67.768  1.00  0.00    -0.150 A  
HETATM   19  C   UNL     1      -8.500  16.427  68.767  1.00  0.00    -0.249 A  
HETATM   20  C   UNL     1      -9.560  15.537  68.820  1.00  0.00    -0.208 A  
HETATM   21  C   UNL     1     -10.671  15.446  69.746  1.00  0.00    -0.300 A  
BRANCH   9  22
HETATM   22  C   UNL     1     -11.827  13.489  67.019  1.00  0.00    -0.402 C  
HETATM   23  H1  UNL     1     -12.292  12.377  65.372  1.00  0.00     0.000 HD 
HETATM   24  N   UNL     1     -11.648  12.441  66.161  1.00  0.00    -0.380 N  
HETATM   25  O   UNL     1     -12.732  14.292  66.805  1.00  0.00    -0.138 OA 
HETATM   26  H2  UNL     1     -10.905  11.755  66.301  1.00  0.00     0.000 HD 
ENDBRANCH   9  22
ENDBRANCH   8   9
ENDBRANCH   7   8
ENDBRANCH   6   7
ENDBRANCH   4   6
ENDBRANCH   2   4
TORSDOF 6
ENDMDL
MODEL      134
REMARK 921   NORMALIZED FREE ENERGY PREDICTED BY IDOCK:   -4.10 KCAL/MOL
REMARK 922        TOTAL FREE ENERGY PREDICTED BY IDOCK:   -6.54 KCAL/MOL
REMARK 923 INTER-LIGAND FREE ENERGY PREDICTED BY IDOCK:   -5.79 KCAL/MOL
REMARK 924 INTRA-LIGAND FREE ENERGY PREDICTED BY IDOCK:   -0.76 KCAL/MOL
REMARK 927      BINDING AFFINITY PREDICTED BY RF-SCORE:    0.00 PKD
ROOT
HETATM    1  C   UNL     1      -7.288  14.412  68.720  1.00  0.00    -0.131 C  
HETATM    2  C   UNL     1      -7.985  13.539  67.675  1.00  0.00    -0.176 C  
HETATM    3  C   UNL     1      -8.855  14.409  66.767  1.00  0.00    -0.225 C  
ENDROOT
BRANCH   2   4
HETATM    4  N   UNL     1      -6.936  12.830  66.937  1.00  0.00    -0.384 NA 
HETATM    5  H   UNL     1      -6.029  12.968  67.381  1.00  0.00     0.000 HD 
BRANCH   4   6
HETATM    6  C   UNL     1      -7.203  11.407  66.747  1.00  0.00    -0.131 C  
BRANCH   6   7
HETATM    7  C   UNL     1      -7.950  10.838  67.954  1.00  0.00    -0.110 C  
BRANCH   7   8
HETATM    8  C   UNL     1      -8.234   9.325  67.855  1.00  0.00    -0.115 C  
BRANCH   8   9
HETATM    9  C   UNL     1      -9.689   8.910  68.200  1.00  0.00    -0.180 C  
HETATM   10  C   UNL     1     -10.583  10.152  68.341  1.00  0.00    -0.249 A  
HETATM   11  C   UNL     1      -9.769   8.317  69.613  1.00  0.00    -0.173 A  
HETATM   12  C   UNL     1      -9.167   7.163  70.095  1.00  0.00    -0.155 A  
HETATM   13  C   UNL     1     -10.898  11.097  67.374  1.00  0.00    -0.317 A  
HETATM   14  C   UNL     1      -9.305   6.870  71.451  1.00  0.00    -0.156 A  
HETATM   15  C   UNL     1     -10.026   7.727  72.299  1.00  0.00    -0.259 A  
HETATM   16  C   UNL     1     -10.641   8.883  71.803  1.00  0.00    -0.432 A  
HETATM   17  C   UNL     1     -11.661  12.199  67.759  1.00  0.00    -0.410 A  
HETATM   18  C   UNL     1     -12.092  12.343  69.088  1.00  0.00    -0.195 A  
HETATM   19  C   UNL     1     -11.774  11.383  70.057  1.00  0.00    -0.416 A  
HETATM   20  C   UNL     1     -11.020  10.284  69.677  1.00  0.00    -0.314 A  
HETATM   21  C   UNL     1     -10.519   9.168  70.455  1.00  0.00    -0.289 A  
BRANCH   9  22
HETATM   22  C   UNL     1     -10.241   7.935  67.139  1.00  0.00    -0.290 C  
HETATM   23  H1  UNL     1     -10.088   7.394  65.176  1.00  0.00     0.000 HD 
HETATM   24  N   UNL     1      -9.724   8.038  65.878  1.00  0.00    -0.430 N  
HETATM   25  O   UNL     1     -11.107   7.093  67.365  1.00  0.00    -0.247 OA 
HETATM   26  H2  UNL     1      -9.007   8.727  65.648  1.00  0.00     0.000 HD 
ENDBRANCH   9  22
ENDBRANCH   8   9
ENDBRANCH   7   8
ENDBRANCH   6   7
ENDBRANCH   4   6
ENDBRANCH   2   4
TORSDOF 6
ENDMDL
MODEL      135
REMARK 921   NORMALIZED FREE ENERGY PREDICTED BY IDOCK:   -4.09 KCAL/MOL
REMARK 922        TOTAL FREE ENERGY PREDICTED BY IDOCK:   -6.53 KCAL/MOL
REMARK 923 INTER-LIGAND FREE ENERGY PREDICTED BY IDOCK:   -5.45 KCAL/MOL
REMARK 924 INTRA-LIGAND FREE ENERGY PREDICTED BY IDOCK:   -1.08 KCAL/MOL
REMARK 927      BINDING AFFINITY PREDICTED BY RF-SCORE:    0.00 PKD
ROOT
HETATM    1  C   UNL     1     -12.080   9.254  71.704  1.00  0.00    -0.451 C  
HETATM    2  C   UNL     1     -13.078   8.223  72.235  1.00  0.00    -0.237 C  
HETATM    3  C   UNL     1     -14.396   8.331  71.468  1.00  0.00    -0.525 C  
ENDROOT
BRANCH   2   4
HETATM    4  N   UNL     1     -12.452   6.905  72.094  1.00  0.00    -0.524 NA 
HETATM    5  H   UNL     1     -13.122   6.166  72.306  1.00  0.00     0.000 HD 
BRANCH   4   6
HETATM    6  C   UNL     1     -11.835   6.678  70.791  1.00  0.00    -0.383 C  
BRANCH   6   7
HETATM    7  C   UNL     1     -10.563   5.843  70.940  1.00  0.00    -0.319 C  
BRANCH   7   8
HETATM    8  C   UNL     1      -9.271   6.681  71.025  1.00  0.00    -0.160 C  
BRANCH   8   9
HETATM    9  C   UNL     1      -8.642   7.050  69.656  1.00  0.00    -0.134 C  
HETATM   10  C   UNL     1      -9.203   8.388  69.149  1.00  0.00    -0.150 A  
HETATM   11  C   UNL     1      -9.115   6.088  68.559  1.00  0.00    -0.112 A  
HETATM   12  C   UNL     1      -8.892   4.721  68.460  1.00  0.00    -0.119 A  
HETATM   13  C   UNL     1      -9.092   9.642  69.734  1.00  0.00    -0.232 A  
HETATM   14  C   UNL     1      -9.506   4.031  67.416  1.00  0.00    -0.231 A  
HETATM   15  C   UNL     1     -10.329   4.705  66.499  1.00  0.00    -0.235 A  
HETATM   16  C   UNL     1     -10.539   6.086  66.597  1.00  0.00    -0.312 A  
HETATM   17  C   UNL     1      -9.768  10.705  69.137  1.00  0.00    -0.205 A  
HETATM   18  C   UNL     1     -10.538  10.505  67.980  1.00  0.00    -0.251 A  
HETATM   19  C   UNL     1     -10.642   9.238  67.393  1.00  0.00    -0.324 A  
HETATM   20  C   UNL     1      -9.969   8.180  67.981  1.00  0.00    -0.222 A  
HETATM   21  C   UNL     1      -9.920   6.776  67.623  1.00  0.00    -0.171 A  
BRANCH   9  22
HETATM   22  C   UNL     1      -7.102   7.088  69.759  1.00  0.00    -0.067 C  
HETATM   23  H1  UNL     1      -5.541   6.821  71.047  1.00  0.00     0.000 HD 
HETATM   24  N   UNL     1      -6.558   6.796  70.979  1.00  0.00    -0.052 N  
HETATM   25  O   UNL     1      -6.358   7.366  68.821  1.00  0.00    -0.033 OA 
HETATM   26  H2  UNL     1      -7.142   6.565  71.783  1.00  0.00     0.000 HD 
ENDBRANCH   9  22
ENDBRANCH   8   9
ENDBRANCH   7   8
ENDBRANCH   6   7
ENDBRANCH   4   6
ENDBRANCH   2   4
TORSDOF 6
ENDMDL
MODEL      136
REMARK 921   NORMALIZED FREE ENERGY PREDICTED BY IDOCK:   -4.08 KCAL/MOL
REMARK 922        TOTAL FREE ENERGY PREDICTED BY IDOCK:   -6.51 KCAL/MOL
REMARK 923 INTER-LIGAND FREE ENERGY PREDICTED BY IDOCK:   -5.90 KCAL/MOL
REMARK 924 INTRA-LIGAND FREE ENERGY PREDICTED BY IDOCK:   -0.61 KCAL/MOL
REMARK 927      BINDING AFFINITY PREDICTED BY RF-SCORE:    0.00 PKD
ROOT
HETATM    1  C   UNL     1      -9.982   2.549  72.830  1.00  0.00    -0.199 C  
HETATM    2  C   UNL     1     -10.250   3.977  72.353  1.00  0.00    -0.162 C  
HETATM    3  C   UNL     1     -11.190   4.684  73.330  1.00  0.00    -0.411 C  
ENDROOT
BRANCH   2   4
HETATM    4  N   UNL     1      -8.950   4.646  72.242  1.00  0.00    -0.125 NA 
HETATM    5  H   UNL     1      -8.270   4.213  72.867  1.00  0.00     0.000 HD 
BRANCH   4   6
HETATM    6  C   UNL     1      -8.429   4.705  70.879  1.00  0.00    -0.098 C  
BRANCH   6   7
HETATM    7  C   UNL     1      -8.308   6.157  70.416  1.00  0.00    -0.125 C  
BRANCH   7   8
HETATM    8  C   UNL     1      -9.640   6.934  70.440  1.00  0.00    -0.171 C  
BRANCH   8   9
HETATM    9  C   UNL     1      -9.563   8.343  71.083  1.00  0.00    -0.226 C  
HETATM   10  C   UNL     1     -10.968   8.846  71.448  1.00  0.00    -0.380 A  
HETATM   11  C   UNL     1      -9.125   9.392  70.052  1.00  0.00    -0.244 A  
HETATM   12  C   UNL     1      -7.918   9.474  69.370  1.00  0.00    -0.099 A  
HETATM   13  C   UNL     1     -11.869   8.295  72.349  1.00  0.00    -0.461 A  
HETATM   14  C   UNL     1      -7.780  10.467  68.401  1.00  0.00    -0.098 A  
HETATM   15  C   UNL     1      -8.837  11.350  68.126  1.00  0.00    -0.162 A  
HETATM   16  C   UNL     1     -10.046  11.270  68.827  1.00  0.00    -0.204 A  
HETATM   17  C   UNL     1     -13.133   8.876  72.449  1.00  0.00    -0.476 A  
HETATM   18  C   UNL     1     -13.478   9.983  71.657  1.00  0.00    -0.398 A  
HETATM   19  C   UNL     1     -12.562  10.536  70.755  1.00  0.00    -0.474 A  
HETATM   20  C   UNL     1     -11.304   9.964  70.654  1.00  0.00    -0.413 A  
HETATM   21  C   UNL     1     -10.181  10.295  69.798  1.00  0.00    -0.262 A  
BRANCH   9  22
HETATM   22  C   UNL     1      -8.632   8.327  72.314  1.00  0.00    -0.194 C  
HETATM   23  H1  UNL     1      -8.397   7.532  74.179  1.00  0.00     0.000 HD 
HETATM   24  N   UNL     1      -9.012   7.542  73.365  1.00  0.00    -0.179 N  
HETATM   25  O   UNL     1      -7.590   8.976  72.396  1.00  0.00    -0.342 OA 
HETATM   26  H2  UNL     1      -9.871   6.992  73.339  1.00  0.00     0.000 HD 
ENDBRANCH   9  22
ENDBRANCH   8   9
ENDBRANCH   7   8
ENDBRANCH   6   7
ENDBRANCH   4   6
ENDBRANCH   2   4
TORSDOF 6
ENDMDL
MODEL      137
REMARK 921   NORMALIZED FREE ENERGY PREDICTED BY IDOCK:   -4.07 KCAL/MOL
REMARK 922        TOTAL FREE ENERGY PREDICTED BY IDOCK:   -6.50 KCAL/MOL
REMARK 923 INTER-LIGAND FREE ENERGY PREDICTED BY IDOCK:   -5.83 KCAL/MOL
REMARK 924 INTRA-LIGAND FREE ENERGY PREDICTED BY IDOCK:   -0.67 KCAL/MOL
REMARK 927      BINDING AFFINITY PREDICTED BY RF-SCORE:    0.00 PKD
ROOT
HETATM    1  C   UNL     1      -6.961  10.082  64.710  1.00  0.00    -0.137 C  
HETATM    2  C   UNL     1      -8.466   9.936  64.479  1.00  0.00    -0.175 C  
HETATM    3  C   UNL     1      -9.041   8.898  65.444  1.00  0.00    -0.222 C  
ENDROOT
BRANCH   2   4
HETATM    4  N   UNL     1      -9.062  11.262  64.661  1.00  0.00    -0.389 NA 
HETATM    5  H   UNL     1      -8.770  11.892  63.913  1.00  0.00     0.000 HD 
BRANCH   4   6
HETATM    6  C   UNL     1     -10.516  11.248  64.780  1.00  0.00    -0.323 C  
BRANCH   6   7
HETATM    7  C   UNL     1     -10.959  12.015  66.026  1.00  0.00    -0.346 C  
BRANCH   7   8
HETATM    8  C   UNL     1     -11.316  11.110  67.222  1.00  0.00    -0.302 C  
BRANCH   8   9
HETATM    9  C   UNL     1     -10.737  11.572  68.585  1.00  0.00    -0.242 C  
HETATM   10  C   UNL     1      -9.305  11.047  68.768  1.00  0.00    -0.185 A  
HETATM   11  C   UNL     1     -11.463  10.885  69.750  1.00  0.00    -0.390 A  
HETATM   12  C   UNL     1     -12.799  10.992  70.112  1.00  0.00    -0.109 A  
HETATM   13  C   UNL     1      -8.183  11.329  68.000  1.00  0.00    -0.134 A  
HETATM   14  C   UNL     1     -13.260  10.192  71.157  1.00  0.00    -0.438 A  
HETATM   15  C   UNL     1     -12.393   9.303  71.814  1.00  0.00    -0.454 A  
HETATM   16  C   UNL     1     -11.044   9.211  71.452  1.00  0.00    -0.415 A  
HETATM   17  C   UNL     1      -6.998  10.657  68.301  1.00  0.00    -0.072 A  
HETATM   18  C   UNL     1      -6.950   9.724  69.350  1.00  0.00    -0.059 A  
HETATM   19  C   UNL     1      -8.084   9.449  70.122  1.00  0.00    -0.167 A  
HETATM   20  C   UNL     1      -9.263  10.116  69.829  1.00  0.00    -0.175 A  
HETATM   21  C   UNL     1     -10.580  10.012  70.425  1.00  0.00    -0.343 A  
BRANCH   9  22
HETATM   22  C   UNL     1     -10.793  13.110  68.705  1.00  0.00    -0.246 C  
HETATM   23  H1  UNL     1     -12.056  14.712  68.640  1.00  0.00     0.000 HD 
HETATM   24  N   UNL     1     -12.020  13.696  68.561  1.00  0.00    -0.369 N  
HETATM   25  O   UNL     1      -9.810  13.819  68.913  1.00  0.00    -0.137 OA 
HETATM   26  H2  UNL     1     -12.859  13.143  68.383  1.00  0.00     0.000 HD 
ENDBRANCH   9  22
ENDBRANCH   8   9
ENDBRANCH   7   8
ENDBRANCH   6   7
ENDBRANCH   4   6
ENDBRANCH   2   4
TORSDOF 6
ENDMDL
MODEL      138
REMARK 921   NORMALIZED FREE ENERGY PREDICTED BY IDOCK:   -4.07 KCAL/MOL
REMARK 922        TOTAL FREE ENERGY PREDICTED BY IDOCK:   -6.50 KCAL/MOL
REMARK 923 INTER-LIGAND FREE ENERGY PREDICTED BY IDOCK:   -5.69 KCAL/MOL
REMARK 924 INTRA-LIGAND FREE ENERGY PREDICTED BY IDOCK:   -0.81 KCAL/MOL
REMARK 927      BINDING AFFINITY PREDICTED BY RF-SCORE:    0.00 PKD
ROOT
HETATM    1  C   UNL     1      -9.697   6.409  69.193  1.00  0.00    -0.148 C  
HETATM    2  C   UNL     1      -9.650   6.506  67.667  1.00  0.00    -0.122 C  
HETATM    3  C   UNL     1     -10.843   7.318  67.160  1.00  0.00    -0.378 C  
ENDROOT
BRANCH   2   4
HETATM    4  N   UNL     1      -8.365   7.114  67.312  1.00  0.00    -0.118 NA 
HETATM    5  H   UNL     1      -7.684   6.396  67.065  1.00  0.00     0.000 HD 
BRANCH   4   6
HETATM    6  C   UNL     1      -8.456   8.119  66.258  1.00  0.00    -0.131 C  
BRANCH   6   7
HETATM    7  C   UNL     1      -7.919   9.463  66.752  1.00  0.00    -0.108 C  
BRANCH   7   8
HETATM    8  C   UNL     1      -8.611  10.685  66.113  1.00  0.00    -0.163 C  
BRANCH   8   9
HETATM    9  C   UNL     1      -8.981  11.818  67.106  1.00  0.00    -0.177 C  
HETATM   10  C   UNL     1      -9.773  11.255  68.296  1.00  0.00    -0.199 A  
HETATM   11  C   UNL     1     -10.006  12.777  66.486  1.00  0.00    -0.256 A  
HETATM   12  C   UNL     1      -9.854  13.596  65.375  1.00  0.00    -0.153 A  
HETATM   13  C   UNL     1      -9.357  10.327  69.241  1.00  0.00    -0.221 A  
HETATM   14  C   UNL     1     -10.964  14.315  64.935  1.00  0.00    -0.413 A  
HETATM   15  C   UNL     1     -12.198  14.203  65.597  1.00  0.00    -0.449 A  
HETATM   16  C   UNL     1     -12.340  13.385  66.725  1.00  0.00    -0.287 A  
HETATM   17  C   UNL     1     -10.288   9.891  70.184  1.00  0.00    -0.336 A  
HETATM   18  C   UNL     1     -11.605  10.379  70.170  1.00  0.00    -0.392 A  
HETATM   19  C   UNL     1     -12.015  11.319  69.216  1.00  0.00    -0.411 A  
HETATM   20  C   UNL     1     -11.092  11.757  68.280  1.00  0.00    -0.291 A  
HETATM   21  C   UNL     1     -11.237  12.681  67.172  1.00  0.00    -0.348 A  
BRANCH   9  22
HETATM   22  C   UNL     1      -7.712  12.563  67.574  1.00  0.00    -0.165 C  
HETATM   23  H1  UNL     1      -6.972  13.770  69.045  1.00  0.00     0.000 HD 
HETATM   24  N   UNL     1      -7.810  13.278  68.735  1.00  0.00    -0.309 N  
HETATM   25  O   UNL     1      -6.644  12.550  66.966  1.00  0.00    -0.112 OA 
HETATM   26  H2  UNL     1      -8.680  13.318  69.267  1.00  0.00     0.000 HD 
ENDBRANCH   9  22
ENDBRANCH   8   9
ENDBRANCH   7   8
ENDBRANCH   6   7
ENDBRANCH   4   6
ENDBRANCH   2   4
TORSDOF 6
ENDMDL
MODEL      139
REMARK 921   NORMALIZED FREE ENERGY PREDICTED BY IDOCK:   -4.05 KCAL/MOL
REMARK 922        TOTAL FREE ENERGY PREDICTED BY IDOCK:   -6.48 KCAL/MOL
REMARK 923 INTER-LIGAND FREE ENERGY PREDICTED BY IDOCK:   -5.82 KCAL/MOL
REMARK 924 INTRA-LIGAND FREE ENERGY PREDICTED BY IDOCK:   -0.66 KCAL/MOL
REMARK 927      BINDING AFFINITY PREDICTED BY RF-SCORE:    0.00 PKD
ROOT
HETATM    1  C   UNL     1      -5.390  13.290  70.792  1.00  0.00    -0.155 C  
HETATM    2  C   UNL     1      -6.144  12.958  69.503  1.00  0.00    -0.117 C  
HETATM    3  C   UNL     1      -6.644  11.514  69.550  1.00  0.00    -0.120 C  
ENDROOT
BRANCH   2   4
HETATM    4  N   UNL     1      -7.237  13.926  69.380  1.00  0.00    -0.309 NA 
HETATM    5  H   UNL     1      -7.467  14.325  70.290  1.00  0.00     0.000 HD 
BRANCH   4   6
HETATM    6  C   UNL     1      -6.985  14.984  68.406  1.00  0.00    -0.109 C  
BRANCH   6   7
HETATM    7  C   UNL     1      -8.122  15.054  67.385  1.00  0.00    -0.216 C  
BRANCH   7   8
HETATM    8  C   UNL     1      -8.631  13.673  66.923  1.00  0.00    -0.121 C  
BRANCH   8   9
HETATM    9  C   UNL     1     -10.158  13.453  67.085  1.00  0.00    -0.240 C  
HETATM   10  C   UNL     1     -10.717  14.354  68.197  1.00  0.00    -0.239 A  
HETATM   11  C   UNL     1     -10.454  12.058  67.648  1.00  0.00    -0.226 A  
HETATM   12  C   UNL     1     -10.187  10.824  67.070  1.00  0.00    -0.261 A  
HETATM   13  C   UNL     1     -10.736  15.742  68.250  1.00  0.00    -0.281 A  
HETATM   14  C   UNL     1     -10.459   9.678  67.817  1.00  0.00    -0.309 A  
HETATM   15  C   UNL     1     -10.982   9.778  69.117  1.00  0.00    -0.205 A  
HETATM   16  C   UNL     1     -11.261  11.026  69.688  1.00  0.00    -0.345 A  
HETATM   17  C   UNL     1     -11.214  16.346  69.411  1.00  0.00    -0.267 A  
HETATM   18  C   UNL     1     -11.659  15.569  70.493  1.00  0.00    -0.371 A  
HETATM   19  C   UNL     1     -11.641  14.170  70.431  1.00  0.00    -0.236 A  
HETATM   20  C   UNL     1     -11.170  13.565  69.277  1.00  0.00    -0.285 A  
HETATM   21  C   UNL     1     -11.005  12.164  68.945  1.00  0.00    -0.269 A  
BRANCH   9  22
HETATM   22  C   UNL     1     -10.885  13.695  65.745  1.00  0.00    -0.273 C  
HETATM   23  H1  UNL     1     -12.732  13.866  64.892  1.00  0.00     0.000 HD 
HETATM   24  N   UNL     1     -12.252  13.706  65.778  1.00  0.00    -0.433 N  
HETATM   25  O   UNL     1     -10.310  13.869  64.672  1.00  0.00    -0.432 OA 
HETATM   26  H2  UNL     1     -12.767  13.561  66.647  1.00  0.00     0.000 HD 
ENDBRANCH   9  22
ENDBRANCH   8   9
ENDBRANCH   7   8
ENDBRANCH   6   7
ENDBRANCH   4   6
ENDBRANCH   2   4
TORSDOF 6
ENDMDL
MODEL      140
REMARK 921   NORMALIZED FREE ENERGY PREDICTED BY IDOCK:   -4.04 KCAL/MOL
REMARK 922        TOTAL FREE ENERGY PREDICTED BY IDOCK:   -6.47 KCAL/MOL
REMARK 923 INTER-LIGAND FREE ENERGY PREDICTED BY IDOCK:   -4.70 KCAL/MOL
REMARK 924 INTRA-LIGAND FREE ENERGY PREDICTED BY IDOCK:   -1.77 KCAL/MOL
REMARK 927      BINDING AFFINITY PREDICTED BY RF-SCORE:    0.00 PKD
ROOT
HETATM    1  C   UNL     1     -11.016   4.982  73.074  1.00  0.00    -0.360 C  
HETATM    2  C   UNL     1     -10.793   6.409  73.577  1.00  0.00    -0.174 C  
HETATM    3  C   UNL     1      -9.305   6.758  73.509  1.00  0.00    -0.179 C  
ENDROOT
BRANCH   2   4
HETATM    4  N   UNL     1     -11.615   7.294  72.748  1.00  0.00    -0.533 NA 
HETATM    5  H   UNL     1     -11.133   8.176  72.577  1.00  0.00     0.000 HD 
BRANCH   4   6
HETATM    6  C   UNL     1     -12.047   6.694  71.489  1.00  0.00    -0.355 C  
BRANCH   6   7
HETATM    7  C   UNL     1     -11.317   7.340  70.311  1.00  0.00    -0.266 C  
BRANCH   7   8
HETATM    8  C   UNL     1     -11.237   6.444  69.058  1.00  0.00    -0.402 C  
BRANCH   8   9
HETATM    9  C   UNL     1      -9.799   6.065  68.618  1.00  0.00    -0.166 C  
HETATM   10  C   UNL     1      -9.228   4.970  69.532  1.00  0.00    -0.167 A  
HETATM   11  C   UNL     1      -8.823   7.218  68.881  1.00  0.00    -0.127 A  
HETATM   12  C   UNL     1      -8.820   8.487  68.316  1.00  0.00    -0.142 A  
HETATM   13  C   UNL     1      -9.698   3.677  69.720  1.00  0.00    -0.150 A  
HETATM   14  C   UNL     1      -7.886   9.410  68.783  1.00  0.00    -0.084 A  
HETATM   15  C   UNL     1      -6.981   9.061  69.800  1.00  0.00    -0.054 A  
HETATM   16  C   UNL     1      -6.981   7.775  70.355  1.00  0.00    -0.046 A  
HETATM   17  C   UNL     1      -9.067   2.884  70.678  1.00  0.00    -0.192 A  
HETATM   18  C   UNL     1      -7.992   3.386  71.430  1.00  0.00    -0.060 A  
HETATM   19  C   UNL     1      -7.521   4.689  71.231  1.00  0.00    -0.075 A  
HETATM   20  C   UNL     1      -8.142   5.479  70.277  1.00  0.00    -0.102 A  
HETATM   21  C   UNL     1      -7.897   6.853  69.884  1.00  0.00    -0.115 A  
BRANCH   9  22
HETATM   22  C   UNL     1      -9.782   5.628  67.137  1.00  0.00    -0.139 C  
HETATM   23  H1  UNL     1     -10.961   5.388  65.488  1.00  0.00     0.000 HD 
HETATM   24  N   UNL     1     -10.972   5.676  66.466  1.00  0.00    -0.695 N  
HETATM   25  O   UNL     1      -8.776   5.242  66.546  1.00  0.00    -0.114 OA 
HETATM   26  H2  UNL     1     -11.831   5.986  66.922  1.00  0.00     0.000 HD 
ENDBRANCH   9  22
ENDBRANCH   8   9
ENDBRANCH   7   8
ENDBRANCH   6   7
ENDBRANCH   4   6
ENDBRANCH   2   4
TORSDOF 6
ENDMDL
MODEL      141
REMARK 921   NORMALIZED FREE ENERGY PREDICTED BY IDOCK:   -4.00 KCAL/MOL
REMARK 922        TOTAL FREE ENERGY PREDICTED BY IDOCK:   -6.41 KCAL/MOL
REMARK 923 INTER-LIGAND FREE ENERGY PREDICTED BY IDOCK:   -5.19 KCAL/MOL
REMARK 924 INTRA-LIGAND FREE ENERGY PREDICTED BY IDOCK:   -1.21 KCAL/MOL
REMARK 927      BINDING AFFINITY PREDICTED BY RF-SCORE:    0.00 PKD
ROOT
HETATM    1  C   UNL     1      -8.586  19.147  68.743  1.00  0.00    -0.370 C  
HETATM    2  C   UNL     1      -9.674  18.343  68.029  1.00  0.00    -0.316 C  
HETATM    3  C   UNL     1     -10.673  19.292  67.366  1.00  0.00    -0.594 C  
ENDROOT
BRANCH   2   4
HETATM    4  N   UNL     1      -9.002  17.471  67.062  1.00  0.00    -0.234 NA 
HETATM    5  H   UNL     1      -8.501  16.723  67.541  1.00  0.00     0.000 HD 
BRANCH   4   6
HETATM    6  C   UNL     1      -9.889  16.921  66.042  1.00  0.00    -0.258 C  
BRANCH   6   7
HETATM    7  C   UNL     1      -9.424  15.525  65.624  1.00  0.00    -0.271 C  
BRANCH   7   8
HETATM    8  C   UNL     1     -10.573  14.515  65.434  1.00  0.00    -0.385 C  
BRANCH   8   9
HETATM    9  C   UNL     1     -10.742  13.494  66.590  1.00  0.00    -0.282 C  
HETATM   10  C   UNL     1     -11.014  14.223  67.915  1.00  0.00    -0.278 A  
HETATM   11  C   UNL     1      -9.415  12.790  66.898  1.00  0.00    -0.235 A  
HETATM   12  C   UNL     1      -8.672  11.957  66.072  1.00  0.00     0.056 A  
HETATM   13  C   UNL     1     -12.092  15.035  68.243  1.00  0.00    -0.110 A  
HETATM   14  C   UNL     1      -7.438  11.506  66.536  1.00  0.00    -0.022 A  
HETATM   15  C   UNL     1      -6.963  11.893  67.801  1.00  0.00    -0.102 A  
HETATM   16  C   UNL     1      -7.723  12.723  68.633  1.00  0.00    -0.064 A  
HETATM   17  C   UNL     1     -12.079  15.670  69.484  1.00  0.00    -0.307 A  
HETATM   18  C   UNL     1     -11.004  15.490  70.371  1.00  0.00    -0.360 A  
HETATM   19  C   UNL     1      -9.924  14.666  70.035  1.00  0.00     0.406 A  
HETATM   20  C   UNL     1      -9.934  14.030  68.804  1.00  0.00    -0.164 A  
HETATM   21  C   UNL     1      -8.954  13.161  68.182  1.00  0.00    -0.195 A  
BRANCH   9  22
HETATM   22  C   UNL     1     -11.862  12.484  66.262  1.00  0.00    -0.390 C  
HETATM   23  H1  UNL     1     -13.425  12.125  64.999  1.00  0.00     0.000 HD 
HETATM   24  N   UNL     1     -12.685  12.793  65.216  1.00  0.00    -0.473 N  
HETATM   25  O   UNL     1     -12.050  11.440  66.885  1.00  0.00    -0.243 OA 
HETATM   26  H2  UNL     1     -12.566  13.651  64.677  1.00  0.00     0.000 HD 
ENDBRANCH   9  22
ENDBRANCH   8   9
ENDBRANCH   7   8
ENDBRANCH   6   7
ENDBRANCH   4   6
ENDBRANCH   2   4
TORSDOF 6
ENDMDL
MODEL      142
REMARK 921   NORMALIZED FREE ENERGY PREDICTED BY IDOCK:   -4.00 KCAL/MOL
REMARK 922        TOTAL FREE ENERGY PREDICTED BY IDOCK:   -6.41 KCAL/MOL
REMARK 923 INTER-LIGAND FREE ENERGY PREDICTED BY IDOCK:   -6.18 KCAL/MOL
REMARK 924 INTRA-LIGAND FREE ENERGY PREDICTED BY IDOCK:   -0.22 KCAL/MOL
REMARK 927      BINDING AFFINITY PREDICTED BY RF-SCORE:    0.00 PKD
ROOT
HETATM    1  C   UNL     1      -5.973  19.077  67.820  1.00  0.00    -0.205 C  
HETATM    2  C   UNL     1      -7.368  19.435  67.302  1.00  0.00    -0.220 C  
HETATM    3  C   UNL     1      -7.504  20.953  67.182  1.00  0.00    -0.332 C  
ENDROOT
BRANCH   2   4
HETATM    4  N   UNL     1      -7.540  18.752  66.017  1.00  0.00    -0.409 NA 
HETATM    5  H   UNL     1      -6.849  19.080  65.342  1.00  0.00     0.000 HD 
BRANCH   4   6
HETATM    6  C   UNL     1      -7.513  17.296  66.111  1.00  0.00    -0.286 C  
BRANCH   6   7
HETATM    7  C   UNL     1      -8.716  16.788  66.906  1.00  0.00    -0.242 C  
BRANCH   7   8
HETATM    8  C   UNL     1      -9.610  15.804  66.126  1.00  0.00    -0.364 C  
BRANCH   8   9
HETATM    9  C   UNL     1     -10.065  14.557  66.929  1.00  0.00    -0.257 C  
HETATM   10  C   UNL     1      -8.867  13.642  67.227  1.00  0.00    -0.227 A  
HETATM   11  C   UNL     1     -10.940  13.639  66.068  1.00  0.00    -0.288 A  
HETATM   12  C   UNL     1     -12.180  13.914  65.506  1.00  0.00    -0.467 A  
HETATM   13  C   UNL     1      -7.734  13.928  67.977  1.00  0.00    -0.151 A  
HETATM   14  C   UNL     1     -12.749  12.952  64.673  1.00  0.00    -0.403 A  
HETATM   15  C   UNL     1     -12.079  11.746  64.409  1.00  0.00    -0.199 A  
HETATM   16  C   UNL     1     -10.835  11.470  64.990  1.00  0.00    -0.336 A  
HETATM   17  C   UNL     1      -6.726  12.966  68.033  1.00  0.00    -0.109 A  
HETATM   18  C   UNL     1      -6.858  11.749  67.345  1.00  0.00    -0.122 A  
HETATM   19  C   UNL     1      -8.005  11.466  66.595  1.00  0.00    -0.148 A  
HETATM   20  C   UNL     1      -9.011  12.417  66.539  1.00  0.00    -0.145 A  
HETATM   21  C   UNL     1     -10.274  12.417  65.827  1.00  0.00    -0.283 A  
BRANCH   9  22
HETATM   22  C   UNL     1     -10.785  14.982  68.227  1.00  0.00    -0.253 C  
HETATM   23  H1  UNL     1     -11.275  14.356  70.107  1.00  0.00     0.000 HD 
HETATM   24  N   UNL     1     -10.799  14.076  69.250  1.00  0.00    -0.380 N  
HETATM   25  O   UNL     1     -11.340  16.068  68.381  1.00  0.00    -0.355 OA 
HETATM   26  H2  UNL     1     -10.354  13.161  69.161  1.00  0.00     0.000 HD 
ENDBRANCH   9  22
ENDBRANCH   8   9
ENDBRANCH   7   8
ENDBRANCH   6   7
ENDBRANCH   4   6
ENDBRANCH   2   4
TORSDOF 6
ENDMDL
MODEL      143
REMARK 921   NORMALIZED FREE ENERGY PREDICTED BY IDOCK:   -3.98 KCAL/MOL
REMARK 922        TOTAL FREE ENERGY PREDICTED BY IDOCK:   -6.38 KCAL/MOL
REMARK 923 INTER-LIGAND FREE ENERGY PREDICTED BY IDOCK:   -6.21 KCAL/MOL
REMARK 924 INTRA-LIGAND FREE ENERGY PREDICTED BY IDOCK:   -0.17 KCAL/MOL
REMARK 927      BINDING AFFINITY PREDICTED BY RF-SCORE:    0.00 PKD
ROOT
HETATM    1  C   UNL     1      -7.837   4.835  73.419  1.00  0.00    -0.096 C  
HETATM    2  C   UNL     1      -7.314   5.916  74.368  1.00  0.00    -0.087 C  
HETATM    3  C   UNL     1      -5.875   6.279  74.000  1.00  0.00    -0.062 C  
ENDROOT
BRANCH   2   4
HETATM    4  N   UNL     1      -8.226   7.058  74.264  1.00  0.00    -0.132 NA 
HETATM    5  H   UNL     1      -7.954   7.794  74.917  1.00  0.00     0.000 HD 
BRANCH   4   6
HETATM    6  C   UNL     1      -8.354   7.594  72.913  1.00  0.00    -0.133 C  
BRANCH   6   7
HETATM    7  C   UNL     1      -9.793   8.039  72.648  1.00  0.00    -0.347 C  
BRANCH   7   8
HETATM    8  C   UNL     1      -9.923   9.109  71.545  1.00  0.00    -0.358 C  
BRANCH   8   9
HETATM    9  C   UNL     1     -11.126   8.914  70.585  1.00  0.00    -0.306 C  
HETATM   10  C   UNL     1     -10.774   7.909  69.478  1.00  0.00    -0.195 A  
HETATM   11  C   UNL     1     -11.386  10.186  69.768  1.00  0.00    -0.312 A  
HETATM   12  C   UNL     1     -11.765  11.440  70.227  1.00  0.00    -0.397 A  
HETATM   13  C   UNL     1     -10.441   6.567  69.611  1.00  0.00    -0.260 A  
HETATM   14  C   UNL     1     -11.849  12.479  69.301  1.00  0.00    -0.360 A  
HETATM   15  C   UNL     1     -11.552  12.256  67.946  1.00  0.00    -0.416 A  
HETATM   16  C   UNL     1     -11.184  10.985  67.488  1.00  0.00    -0.372 A  
HETATM   17  C   UNL     1     -10.065   5.869  68.464  1.00  0.00    -0.210 A  
HETATM   18  C   UNL     1     -10.025   6.510  67.215  1.00  0.00    -0.189 A  
HETATM   19  C   UNL     1     -10.367   7.862  67.089  1.00  0.00    -0.398 A  
HETATM   20  C   UNL     1     -10.744   8.559  68.225  1.00  0.00    -0.092 A  
HETATM   21  C   UNL     1     -11.112   9.950  68.402  1.00  0.00    -0.193 A  
BRANCH   9  22
HETATM   22  C   UNL     1     -12.380   8.473  71.370  1.00  0.00    -0.297 C  
HETATM   23  H1  UNL     1     -13.942   7.159  71.355  1.00  0.00     0.000 HD 
HETATM   24  N   UNL     1     -13.113   7.450  70.836  1.00  0.00    -0.603 N  
HETATM   25  O   UNL     1     -12.746   8.987  72.425  1.00  0.00    -0.392 OA 
HETATM   26  H2  UNL     1     -12.845   7.000  69.961  1.00  0.00     0.000 HD 
ENDBRANCH   9  22
ENDBRANCH   8   9
ENDBRANCH   7   8
ENDBRANCH   6   7
ENDBRANCH   4   6
ENDBRANCH   2   4
TORSDOF 6
ENDMDL
MODEL      144
REMARK 921   NORMALIZED FREE ENERGY PREDICTED BY IDOCK:   -3.95 KCAL/MOL
REMARK 922        TOTAL FREE ENERGY PREDICTED BY IDOCK:   -6.35 KCAL/MOL
REMARK 923 INTER-LIGAND FREE ENERGY PREDICTED BY IDOCK:   -5.25 KCAL/MOL
REMARK 924 INTRA-LIGAND FREE ENERGY PREDICTED BY IDOCK:   -1.10 KCAL/MOL
REMARK 927      BINDING AFFINITY PREDICTED BY RF-SCORE:    0.00 PKD
ROOT
HETATM    1  C   UNL     1     -11.678   8.196  72.492  1.00  0.00    -0.457 C  
HETATM    2  C   UNL     1     -12.701   9.011  71.699  1.00  0.00    -0.358 C  
HETATM    3  C   UNL     1     -13.993   9.152  72.506  1.00  0.00    -0.453 C  
ENDROOT
BRANCH   2   4
HETATM    4  N   UNL     1     -12.083  10.305  71.399  1.00  0.00    -0.377 NA 
HETATM    5  H   UNL     1     -11.070  10.252  71.507  1.00  0.00     0.000 HD 
BRANCH   4   6
HETATM    6  C   UNL     1     -12.431  10.838  70.085  1.00  0.00    -0.285 C  
BRANCH   6   7
HETATM    7  C   UNL     1     -11.392  10.417  69.045  1.00  0.00    -0.279 C  
BRANCH   7   8
HETATM    8  C   UNL     1      -9.948  10.377  69.586  1.00  0.00    -0.209 C  
BRANCH   8   9
HETATM    9  C   UNL     1      -9.006   9.383  68.857  1.00  0.00    -0.136 C  
HETATM   10  C   UNL     1      -8.808   9.804  67.393  1.00  0.00    -0.137 A  
HETATM   11  C   UNL     1      -9.677   8.014  68.690  1.00  0.00    -0.163 A  
HETATM   12  C   UNL     1     -10.085   7.131  69.681  1.00  0.00    -0.196 A  
HETATM   13  C   UNL     1      -8.237  10.973  66.905  1.00  0.00    -0.140 A  
HETATM   14  C   UNL     1     -10.766   5.979  69.291  1.00  0.00    -0.401 A  
HETATM   15  C   UNL     1     -11.032   5.729  67.934  1.00  0.00    -0.140 A  
HETATM   16  C   UNL     1     -10.605   6.617  66.940  1.00  0.00    -0.376 A  
HETATM   17  C   UNL     1      -8.249  11.182  65.527  1.00  0.00     0.102 A  
HETATM   18  C   UNL     1      -8.826  10.236  64.663  1.00  0.00    -0.220 A  
HETATM   19  C   UNL     1      -9.396   9.058  65.162  1.00  0.00    -0.099 A  
HETATM   20  C   UNL     1      -9.382   8.845  66.531  1.00  0.00    -0.252 A  
HETATM   21  C   UNL     1      -9.918   7.754  67.322  1.00  0.00    -0.277 A  
BRANCH   9  22
HETATM   22  C   UNL     1      -7.657   9.272  69.599  1.00  0.00    -0.084 C  
HETATM   23  H1  UNL     1      -5.932   8.185  69.705  1.00  0.00     0.000 HD 
HETATM   24  N   UNL     1      -6.823   8.259  69.215  1.00  0.00    -0.050 N  
HETATM   25  O   UNL     1      -7.304  10.029  70.501  1.00  0.00    -0.261 OA 
HETATM   26  H2  UNL     1      -7.080   7.606  68.474  1.00  0.00     0.000 HD 
ENDBRANCH   9  22
ENDBRANCH   8   9
ENDBRANCH   7   8
ENDBRANCH   6   7
ENDBRANCH   4   6
ENDBRANCH   2   4
TORSDOF 6
ENDMDL
MODEL      145
REMARK 921   NORMALIZED FREE ENERGY PREDICTED BY IDOCK:   -3.95 KCAL/MOL
REMARK 922        TOTAL FREE ENERGY PREDICTED BY IDOCK:   -6.34 KCAL/MOL
REMARK 923 INTER-LIGAND FREE ENERGY PREDICTED BY IDOCK:   -6.10 KCAL/MOL
REMARK 924 INTRA-LIGAND FREE ENERGY PREDICTED BY IDOCK:   -0.24 KCAL/MOL
REMARK 927      BINDING AFFINITY PREDICTED BY RF-SCORE:    0.00 PKD
ROOT
HETATM    1  C   UNL     1     -11.780  12.161  68.197  1.00  0.00    -0.402 C  
HETATM    2  C   UNL     1     -10.782  12.855  67.269  1.00  0.00    -0.245 C  
HETATM    3  C   UNL     1     -10.590  12.027  65.998  1.00  0.00    -0.303 C  
ENDROOT
BRANCH   2   4
HETATM    4  N   UNL     1     -11.309  14.195  66.993  1.00  0.00    -0.318 NA 
HETATM    5  H   UNL     1     -11.596  14.652  67.858  1.00  0.00     0.000 HD 
BRANCH   4   6
HETATM    6  C   UNL     1     -10.394  15.048  66.241  1.00  0.00    -0.296 C  
BRANCH   6   7
HETATM    7  C   UNL     1      -9.240  15.511  67.131  1.00  0.00    -0.228 C  
BRANCH   7   8
HETATM    8  C   UNL     1      -8.048  16.102  66.351  1.00  0.00    -0.305 C  
BRANCH   8   9
HETATM    9  C   UNL     1      -7.363  17.317  67.028  1.00  0.00    -0.218 C  
HETATM   10  C   UNL     1      -8.416  18.274  67.609  1.00  0.00    -0.260 A  
HETATM   11  C   UNL     1      -6.682  18.213  65.986  1.00  0.00    -0.312 A  
HETATM   12  C   UNL     1      -5.625  17.898  65.142  1.00  0.00     0.062 A  
HETATM   13  C   UNL     1      -9.347  18.022  68.608  1.00  0.00    -0.293 A  
HETATM   14  C   UNL     1      -5.232  18.849  64.202  1.00  0.00    -0.253 A  
HETATM   15  C   UNL     1      -5.896  20.084  64.112  1.00  0.00    -0.312 A  
HETATM   16  C   UNL     1      -6.952  20.400  64.975  1.00  0.00    -0.178 A  
HETATM   17  C   UNL     1     -10.272  19.022  68.908  1.00  0.00    -0.289 A  
HETATM   18  C   UNL     1     -10.257  20.243  68.215  1.00  0.00    -0.373 A  
HETATM   19  C   UNL     1      -9.312  20.491  67.212  1.00  0.00    -0.526 A  
HETATM   20  C   UNL     1      -8.390  19.502  66.913  1.00  0.00    -0.314 A  
HETATM   21  C   UNL     1      -7.335  19.464  65.919  1.00  0.00    -0.306 A  
BRANCH   9  22
HETATM   22  C   UNL     1      -6.371  16.846  68.113  1.00  0.00    -0.140 C  
HETATM   23  H1  UNL     1      -5.241  17.487  69.688  1.00  0.00     0.000 HD 
HETATM   24  N   UNL     1      -5.897  17.798  68.971  1.00  0.00    -0.187 N  
HETATM   25  O   UNL     1      -5.991  15.683  68.237  1.00  0.00    -0.100 OA 
HETATM   26  H2  UNL     1      -6.184  18.774  68.898  1.00  0.00     0.000 HD 
ENDBRANCH   9  22
ENDBRANCH   8   9
ENDBRANCH   7   8
ENDBRANCH   6   7
ENDBRANCH   4   6
ENDBRANCH   2   4
TORSDOF 6
ENDMDL
MODEL      146
REMARK 921   NORMALIZED FREE ENERGY PREDICTED BY IDOCK:   -3.94 KCAL/MOL
REMARK 922        TOTAL FREE ENERGY PREDICTED BY IDOCK:   -6.33 KCAL/MOL
REMARK 923 INTER-LIGAND FREE ENERGY PREDICTED BY IDOCK:   -6.23 KCAL/MOL
REMARK 924 INTRA-LIGAND FREE ENERGY PREDICTED BY IDOCK:   -0.10 KCAL/MOL
REMARK 927      BINDING AFFINITY PREDICTED BY RF-SCORE:    0.00 PKD
ROOT
HETATM    1  C   UNL     1      -6.254   9.858  63.390  1.00  0.00    -0.121 C  
HETATM    2  C   UNL     1      -7.697  10.224  63.036  1.00  0.00    -0.145 C  
HETATM    3  C   UNL     1      -8.392   9.027  62.386  1.00  0.00    -0.191 C  
ENDROOT
BRANCH   2   4
HETATM    4  N   UNL     1      -8.352  10.649  64.276  1.00  0.00    -0.340 NA 
HETATM    5  H   UNL     1      -8.566  11.645  64.245  1.00  0.00     0.000 HD 
BRANCH   4   6
HETATM    6  C   UNL     1      -9.546   9.879  64.610  1.00  0.00    -0.252 C  
BRANCH   6   7
HETATM    7  C   UNL     1     -10.134  10.353  65.939  1.00  0.00    -0.326 C  
BRANCH   7   8
HETATM    8  C   UNL     1      -9.223  11.329  66.712  1.00  0.00    -0.186 C  
BRANCH   8   9
HETATM    9  C   UNL     1      -9.933  12.602  67.242  1.00  0.00    -0.212 C  
HETATM   10  C   UNL     1     -10.872  13.180  66.172  1.00  0.00    -0.293 A  
HETATM   11  C   UNL     1      -8.933  13.752  67.420  1.00  0.00    -0.224 A  
HETATM   12  C   UNL     1      -7.845  13.819  68.280  1.00  0.00    -0.144 A  
HETATM   13  C   UNL     1     -11.989  12.586  65.600  1.00  0.00    -0.492 A  
HETATM   14  C   UNL     1      -7.014  14.935  68.198  1.00  0.00    -0.132 A  
HETATM   15  C   UNL     1      -7.272  15.954  67.266  1.00  0.00    -0.251 A  
HETATM   16  C   UNL     1      -8.379  15.886  66.411  1.00  0.00    -0.310 A  
HETATM   17  C   UNL     1     -12.639  13.268  64.572  1.00  0.00    -0.316 A  
HETATM   18  C   UNL     1     -12.171  14.517  64.133  1.00  0.00    -0.372 A  
HETATM   19  C   UNL     1     -11.047  15.112  64.718  1.00  0.00    -0.395 A  
HETATM   20  C   UNL     1     -10.400  14.439  65.742  1.00  0.00    -0.340 A  
HETATM   21  C   UNL     1      -9.213  14.786  66.499  1.00  0.00    -0.304 A  
BRANCH   9  22
HETATM   22  C   UNL     1     -10.690  12.296  68.552  1.00  0.00    -0.237 C  
HETATM   23  H1  UNL     1     -11.364  13.132  70.287  1.00  0.00     0.000 HD 
HETATM   24  N   UNL     1     -10.863  13.335  69.422  1.00  0.00    -0.450 N  
HETATM   25  O   UNL     1     -11.131  11.186  68.847  1.00  0.00    -0.199 OA 
HETATM   26  H2  UNL     1     -10.509  14.270  69.216  1.00  0.00     0.000 HD 
ENDBRANCH   9  22
ENDBRANCH   8   9
ENDBRANCH   7   8
ENDBRANCH   6   7
ENDBRANCH   4   6
ENDBRANCH   2   4
TORSDOF 6
ENDMDL
MODEL      147
REMARK 921   NORMALIZED FREE ENERGY PREDICTED BY IDOCK:   -3.93 KCAL/MOL
REMARK 922        TOTAL FREE ENERGY PREDICTED BY IDOCK:   -6.32 KCAL/MOL
REMARK 923 INTER-LIGAND FREE ENERGY PREDICTED BY IDOCK:   -5.70 KCAL/MOL
REMARK 924 INTRA-LIGAND FREE ENERGY PREDICTED BY IDOCK:   -0.62 KCAL/MOL
REMARK 927      BINDING AFFINITY PREDICTED BY RF-SCORE:    0.00 PKD
ROOT
HETATM    1  C   UNL     1     -11.726  14.335  67.567  1.00  0.00    -0.415 C  
HETATM    2  C   UNL     1     -12.242  13.410  66.464  1.00  0.00    -0.356 C  
HETATM    3  C   UNL     1     -11.458  13.650  65.173  1.00  0.00    -0.328 C  
ENDROOT
BRANCH   2   4
HETATM    4  N   UNL     1     -12.108  12.036  66.955  1.00  0.00    -0.545 NA 
HETATM    5  H   UNL     1     -11.688  11.440  66.242  1.00  0.00     0.000 HD 
BRANCH   4   6
HETATM    6  C   UNL     1     -11.376  11.924  68.212  1.00  0.00    -0.277 C  
BRANCH   6   7
HETATM    7  C   UNL     1     -11.735  10.620  68.926  1.00  0.00    -0.282 C  
BRANCH   7   8
HETATM    8  C   UNL     1     -10.807  10.281  70.110  1.00  0.00    -0.362 C  
BRANCH   8   9
HETATM    9  C   UNL     1      -9.589   9.390  69.750  1.00  0.00    -0.216 C  
HETATM   10  C   UNL     1      -8.694  10.094  68.718  1.00  0.00    -0.138 A  
HETATM   11  C   UNL     1     -10.032   8.147  68.968  1.00  0.00    -0.191 A  
HETATM   12  C   UNL     1     -10.852   7.111  69.395  1.00  0.00    -0.225 A  
HETATM   13  C   UNL     1      -7.999  11.288  68.858  1.00  0.00    -0.104 A  
HETATM   14  C   UNL     1     -11.199   6.127  68.470  1.00  0.00    -0.241 A  
HETATM   15  C   UNL     1     -10.733   6.192  67.146  1.00  0.00    -0.422 A  
HETATM   16  C   UNL     1      -9.895   7.232  66.727  1.00  0.00    -0.281 A  
HETATM   17  C   UNL     1      -7.320  11.784  67.745  1.00  0.00    -0.106 A  
HETATM   18  C   UNL     1      -7.346  11.092  66.523  1.00  0.00    -0.129 A  
HETATM   19  C   UNL     1      -8.045   9.887  66.392  1.00  0.00    -0.118 A  
HETATM   20  C   UNL     1      -8.718   9.388  67.495  1.00  0.00    -0.123 A  
HETATM   21  C   UNL     1      -9.539   8.203  67.645  1.00  0.00    -0.186 A  
BRANCH   9  22
HETATM   22  C   UNL     1      -8.797   9.014  71.020  1.00  0.00    -0.230 C  
HETATM   23  H1  UNL     1      -6.944   8.497  71.701  1.00  0.00     0.000 HD 
HETATM   24  N   UNL     1      -7.467   8.745  70.861  1.00  0.00    -0.079 N  
HETATM   25  O   UNL     1      -9.294   8.941  72.143  1.00  0.00    -0.348 OA 
HETATM   26  H2  UNL     1      -7.018   8.791  69.946  1.00  0.00     0.000 HD 
ENDBRANCH   9  22
ENDBRANCH   8   9
ENDBRANCH   7   8
ENDBRANCH   6   7
ENDBRANCH   4   6
ENDBRANCH   2   4
TORSDOF 6
ENDMDL
MODEL      148
REMARK 921   NORMALIZED FREE ENERGY PREDICTED BY IDOCK:   -3.93 KCAL/MOL
REMARK 922        TOTAL FREE ENERGY PREDICTED BY IDOCK:   -6.31 KCAL/MOL
REMARK 923 INTER-LIGAND FREE ENERGY PREDICTED BY IDOCK:   -5.16 KCAL/MOL
REMARK 924 INTRA-LIGAND FREE ENERGY PREDICTED BY IDOCK:   -1.15 KCAL/MOL
REMARK 927      BINDING AFFINITY PREDICTED BY RF-SCORE:    0.00 PKD
ROOT
HETATM    1  C   UNL     1     -10.779   5.327  72.927  1.00  0.00    -0.301 C  
HETATM    2  C   UNL     1     -11.575   5.785  71.704  1.00  0.00    -0.016 C  
HETATM    3  C   UNL     1     -12.445   6.989  72.071  1.00  0.00    -0.279 C  
ENDROOT
BRANCH   2   4
HETATM    4  N   UNL     1     -10.607   6.093  70.648  1.00  0.00    -0.234 NA 
HETATM    5  H   UNL     1      -9.778   5.505  70.739  1.00  0.00     0.000 HD 
BRANCH   4   6
HETATM    6  C   UNL     1     -11.153   6.004  69.298  1.00  0.00    -0.354 C  
BRANCH   6   7
HETATM    7  C   UNL     1     -10.329   6.855  68.330  1.00  0.00    -0.213 C  
BRANCH   7   8
HETATM    8  C   UNL     1      -9.009   7.381  68.930  1.00  0.00    -0.130 C  
BRANCH   8   9
HETATM    9  C   UNL     1      -8.809   8.915  68.821  1.00  0.00    -0.137 C  
HETATM   10  C   UNL     1      -9.990   9.659  69.463  1.00  0.00    -0.223 A  
HETATM   11  C   UNL     1      -8.916   9.379  67.362  1.00  0.00    -0.134 A  
HETATM   12  C   UNL     1      -8.096   9.047  66.293  1.00  0.00    -0.110 A  
HETATM   13  C   UNL     1     -10.402   9.633  70.789  1.00  0.00    -0.356 A  
HETATM   14  C   UNL     1      -8.447   9.516  65.028  1.00  0.00    -0.165 A  
HETATM   15  C   UNL     1      -9.601  10.297  64.848  1.00  0.00    -0.365 A  
HETATM   16  C   UNL     1     -10.416  10.640  65.934  1.00  0.00    -0.243 A  
HETATM   17  C   UNL     1     -11.567  10.321  71.126  1.00  0.00    -0.385 A  
HETATM   18  C   UNL     1     -12.299  11.015  70.148  1.00  0.00    -0.389 A  
HETATM   19  C   UNL     1     -11.874  11.041  68.814  1.00  0.00    -0.352 A  
HETATM   20  C   UNL     1     -10.715  10.362  68.476  1.00  0.00    -0.255 A  
HETATM   21  C   UNL     1     -10.063  10.187  67.192  1.00  0.00    -0.260 A  
BRANCH   9  22
HETATM   22  C   UNL     1      -7.466   9.334  69.456  1.00  0.00    -0.079 C  
HETATM   23  H1  UNL     1      -5.588   8.670  69.900  1.00  0.00     0.000 HD 
HETATM   24  N   UNL     1      -6.475   8.393  69.480  1.00  0.00    -0.040 N  
HETATM   25  O   UNL     1      -7.251  10.445  69.937  1.00  0.00    -0.142 OA 
HETATM   26  H2  UNL     1      -6.616   7.458  69.095  1.00  0.00     0.000 HD 
ENDBRANCH   9  22
ENDBRANCH   8   9
ENDBRANCH   7   8
ENDBRANCH   6   7
ENDBRANCH   4   6
ENDBRANCH   2   4
TORSDOF 6
ENDMDL
MODEL      149
REMARK 921   NORMALIZED FREE ENERGY PREDICTED BY IDOCK:   -3.92 KCAL/MOL
REMARK 922        TOTAL FREE ENERGY PREDICTED BY IDOCK:   -6.29 KCAL/MOL
REMARK 923 INTER-LIGAND FREE ENERGY PREDICTED BY IDOCK:   -5.38 KCAL/MOL
REMARK 924 INTRA-LIGAND FREE ENERGY PREDICTED BY IDOCK:   -0.92 KCAL/MOL
REMARK 927      BINDING AFFINITY PREDICTED BY RF-SCORE:    0.00 PKD
ROOT
HETATM    1  C   UNL     1      -8.677   5.311  65.648  1.00  0.00    -0.146 C  
HETATM    2  C   UNL     1      -9.961   4.583  66.052  1.00  0.00    -0.248 C  
HETATM    3  C   UNL     1      -9.626   3.413  66.978  1.00  0.00    -0.117 C  
ENDROOT
BRANCH   2   4
HETATM    4  N   UNL     1     -10.835   5.572  66.690  1.00  0.00    -0.531 NA 
HETATM    5  H   UNL     1     -11.815   5.345  66.521  1.00  0.00     0.000 HD 
BRANCH   4   6
HETATM    6  C   UNL     1     -10.589   5.748  68.117  1.00  0.00    -0.216 C  
BRANCH   6   7
HETATM    7  C   UNL     1      -9.759   7.008  68.365  1.00  0.00    -0.139 C  
BRANCH   7   8
HETATM    8  C   UNL     1     -10.604   8.276  68.601  1.00  0.00    -0.144 C  
BRANCH   8   9
HETATM    9  C   UNL     1     -10.503   8.871  70.030  1.00  0.00    -0.227 C  
HETATM   10  C   UNL     1      -9.048   9.238  70.359  1.00  0.00    -0.288 A  
HETATM   11  C   UNL     1     -10.793   7.802  71.091  1.00  0.00    -0.254 A  
HETATM   12  C   UNL     1     -11.972   7.101  71.305  1.00  0.00    -0.374 A  
HETATM   13  C   UNL     1      -8.234  10.169  69.726  1.00  0.00    -0.161 A  
HETATM   14  C   UNL     1     -11.972   6.099  72.274  1.00  0.00    -0.285 A  
HETATM   15  C   UNL     1     -10.807   5.808  73.003  1.00  0.00    -0.306 A  
HETATM   16  C   UNL     1      -9.624   6.528  72.791  1.00  0.00    -0.157 A  
HETATM   17  C   UNL     1      -6.906  10.266  70.142  1.00  0.00    -0.152 A  
HETATM   18  C   UNL     1      -6.414   9.443  71.167  1.00  0.00    -0.067 A  
HETATM   19  C   UNL     1      -7.242   8.510  71.803  1.00  0.00    -0.112 A  
HETATM   20  C   UNL     1      -8.563   8.413  71.396  1.00  0.00    -0.207 A  
HETATM   21  C   UNL     1      -9.625   7.532  71.840  1.00  0.00    -0.178 A  
BRANCH   9  22
HETATM   22  C   UNL     1     -11.439  10.090  70.177  1.00  0.00    -0.277 C  
HETATM   23  H1  UNL     1     -12.628  11.377  69.130  1.00  0.00     0.000 HD 
HETATM   24  N   UNL     1     -12.009  10.572  69.033  1.00  0.00    -0.531 N  
HETATM   25  O   UNL     1     -11.687  10.640  71.249  1.00  0.00    -0.261 OA 
HETATM   26  H2  UNL     1     -11.826  10.147  68.124  1.00  0.00     0.000 HD 
ENDBRANCH   9  22
ENDBRANCH   8   9
ENDBRANCH   7   8
ENDBRANCH   6   7
ENDBRANCH   4   6
ENDBRANCH   2   4
TORSDOF 6
ENDMDL
MODEL      150
REMARK 921   NORMALIZED FREE ENERGY PREDICTED BY IDOCK:   -3.89 KCAL/MOL
REMARK 922        TOTAL FREE ENERGY PREDICTED BY IDOCK:   -6.26 KCAL/MOL
REMARK 923 INTER-LIGAND FREE ENERGY PREDICTED BY IDOCK:   -5.30 KCAL/MOL
REMARK 924 INTRA-LIGAND FREE ENERGY PREDICTED BY IDOCK:   -0.96 KCAL/MOL
REMARK 927      BINDING AFFINITY PREDICTED BY RF-SCORE:    0.00 PKD
ROOT
HETATM    1  C   UNL     1      -9.563   1.852  71.996  1.00  0.00    -0.184 C  
HETATM    2  C   UNL     1     -10.507   2.652  72.896  1.00  0.00    -0.148 C  
HETATM    3  C   UNL     1     -10.106   2.471  74.361  1.00  0.00    -0.169 C  
ENDROOT
BRANCH   2   4
HETATM    4  N   UNL     1     -10.435   4.050  72.463  1.00  0.00    -0.153 NA 
HETATM    5  H   UNL     1     -11.227   4.579  72.827  1.00  0.00     0.000 HD 
BRANCH   4   6
HETATM    6  C   UNL     1      -9.178   4.712  72.801  1.00  0.00    -0.128 C  
BRANCH   6   7
HETATM    7  C   UNL     1      -8.750   5.653  71.675  1.00  0.00    -0.136 C  
BRANCH   7   8
HETATM    8  C   UNL     1      -9.303   5.261  70.289  1.00  0.00    -0.207 C  
BRANCH   8   9
HETATM    9  C   UNL     1      -9.905   6.434  69.471  1.00  0.00    -0.176 C  
HETATM   10  C   UNL     1      -8.870   7.555  69.295  1.00  0.00    -0.136 A  
HETATM   11  C   UNL     1     -10.999   7.154  70.270  1.00  0.00    -0.288 A  
HETATM   12  C   UNL     1     -12.212   6.646  70.717  1.00  0.00    -0.302 A  
HETATM   13  C   UNL     1      -7.646   7.499  68.641  1.00  0.00    -0.110 A  
HETATM   14  C   UNL     1     -13.010   7.464  71.515  1.00  0.00    -0.421 A  
HETATM   15  C   UNL     1     -12.590   8.761  71.857  1.00  0.00    -0.428 A  
HETATM   16  C   UNL     1     -11.372   9.271  71.392  1.00  0.00    -0.434 A  
HETATM   17  C   UNL     1      -6.826   8.625  68.690  1.00  0.00    -0.063 A  
HETATM   18  C   UNL     1      -7.229   9.777  69.385  1.00  0.00    -0.076 A  
HETATM   19  C   UNL     1      -8.467   9.827  70.038  1.00  0.00    -0.229 A  
HETATM   20  C   UNL     1      -9.287   8.712  69.989  1.00  0.00    -0.165 A  
HETATM   21  C   UNL     1     -10.584   8.466  70.589  1.00  0.00    -0.234 A  
BRANCH   9  22
HETATM   22  C   UNL     1     -10.429   5.932  68.109  1.00  0.00    -0.233 C  
HETATM   23  H1  UNL     1     -11.828   6.280  66.664  1.00  0.00     0.000 HD 
HETATM   24  N   UNL     1     -11.482   6.612  67.564  1.00  0.00    -0.715 N  
HETATM   25  O   UNL     1      -9.961   4.968  67.506  1.00  0.00    -0.164 OA 
HETATM   26  H2  UNL     1     -11.901   7.414  68.035  1.00  0.00     0.000 HD 
ENDBRANCH   9  22
ENDBRANCH   8   9
ENDBRANCH   7   8
ENDBRANCH   6   7
ENDBRANCH   4   6
ENDBRANCH   2   4
TORSDOF 6
ENDMDL
MODEL      151
REMARK 921   NORMALIZED FREE ENERGY PREDICTED BY IDOCK:   -3.88 KCAL/MOL
REMARK 922        TOTAL FREE ENERGY PREDICTED BY IDOCK:   -6.24 KCAL/MOL
REMARK 923 INTER-LIGAND FREE ENERGY PREDICTED BY IDOCK:   -5.91 KCAL/MOL
REMARK 924 INTRA-LIGAND FREE ENERGY PREDICTED BY IDOCK:   -0.33 KCAL/MOL
REMARK 927      BINDING AFFINITY PREDICTED BY RF-SCORE:    0.00 PKD
ROOT
HETATM    1  C   UNL     1      -7.481  10.094  64.189  1.00  0.00    -0.114 C  
HETATM    2  C   UNL     1      -8.663   9.205  64.578  1.00  0.00    -0.160 C  
HETATM    3  C   UNL     1      -8.298   8.358  65.798  1.00  0.00    -0.150 C  
ENDROOT
BRANCH   2   4
HETATM    4  N   UNL     1      -9.804  10.089  64.830  1.00  0.00    -0.346 NA 
HETATM    5  H   UNL     1      -9.811  10.397  65.803  1.00  0.00     0.000 HD 
BRANCH   4   6
HETATM    6  C   UNL     1      -9.876  11.236  63.929  1.00  0.00    -0.300 C  
BRANCH   6   7
HETATM    7  C   UNL     1     -10.960  12.210  64.390  1.00  0.00    -0.375 C  
BRANCH   7   8
HETATM    8  C   UNL     1     -10.445  13.641  64.648  1.00  0.00    -0.442 C  
BRANCH   8   9
HETATM    9  C   UNL     1     -10.624  14.146  66.103  1.00  0.00    -0.293 C  
HETATM   10  C   UNL     1     -10.181  15.613  66.222  1.00  0.00    -0.312 A  
HETATM   11  C   UNL     1      -9.636  13.454  67.049  1.00  0.00    -0.244 A  
HETATM   12  C   UNL     1      -9.554  12.105  67.370  1.00  0.00    -0.177 A  
HETATM   13  C   UNL     1     -10.716  16.725  65.586  1.00  0.00    -0.199 A  
HETATM   14  C   UNL     1      -8.504  11.688  68.185  1.00  0.00    -0.156 A  
HETATM   15  C   UNL     1      -7.556  12.610  68.659  1.00  0.00    -0.083 A  
HETATM   16  C   UNL     1      -7.652  13.971  68.343  1.00  0.00    -0.129 A  
HETATM   17  C   UNL     1     -10.086  17.954  65.777  1.00  0.00    -0.058 A  
HETATM   18  C   UNL     1      -8.943  18.056  66.587  1.00  0.00    -0.285 A  
HETATM   19  C   UNL     1      -8.412  16.930  67.228  1.00  0.00    -0.213 A  
HETATM   20  C   UNL     1      -9.038  15.708  67.045  1.00  0.00    -0.239 A  
HETATM   21  C   UNL     1      -8.701  14.390  67.546  1.00  0.00    -0.203 A  
BRANCH   9  22
HETATM   22  C   UNL     1     -12.085  13.960  66.566  1.00  0.00    -0.449 C  
HETATM   23  H1  UNL     1     -13.261  13.722  68.218  1.00  0.00     0.000 HD 
HETATM   24  N   UNL     1     -12.296  13.845  67.912  1.00  0.00    -0.453 N  
HETATM   25  O   UNL     1     -13.046  13.904  65.802  1.00  0.00    -0.526 OA 
HETATM   26  H2  UNL     1     -11.525  13.881  68.579  1.00  0.00     0.000 HD 
ENDBRANCH   9  22
ENDBRANCH   8   9
ENDBRANCH   7   8
ENDBRANCH   6   7
ENDBRANCH   4   6
ENDBRANCH   2   4
TORSDOF 6
ENDMDL
MODEL      152
REMARK 921   NORMALIZED FREE ENERGY PREDICTED BY IDOCK:   -3.87 KCAL/MOL
REMARK 922        TOTAL FREE ENERGY PREDICTED BY IDOCK:   -6.23 KCAL/MOL
REMARK 923 INTER-LIGAND FREE ENERGY PREDICTED BY IDOCK:   -4.68 KCAL/MOL
REMARK 924 INTRA-LIGAND FREE ENERGY PREDICTED BY IDOCK:   -1.55 KCAL/MOL
REMARK 927      BINDING AFFINITY PREDICTED BY RF-SCORE:    0.00 PKD
ROOT
HETATM    1  C   UNL     1      -9.969   5.486  70.421  1.00  0.00    -0.279 C  
HETATM    2  C   UNL     1     -11.381   6.071  70.356  1.00  0.00    -0.252 C  
HETATM    3  C   UNL     1     -11.670   6.875  71.624  1.00  0.00    -0.343 C  
ENDROOT
BRANCH   2   4
HETATM    4  N   UNL     1     -11.454   6.890  69.143  1.00  0.00    -0.560 NA 
HETATM    5  H   UNL     1     -11.259   7.867  69.358  1.00  0.00     0.000 HD 
BRANCH   4   6
HETATM    6  C   UNL     1     -10.596   6.422  68.059  1.00  0.00    -0.254 C  
BRANCH   6   7
HETATM    7  C   UNL     1     -10.288   7.564  67.089  1.00  0.00    -0.384 C  
BRANCH   7   8
HETATM    8  C   UNL     1     -10.743   8.949  67.592  1.00  0.00    -0.221 C  
BRANCH   8   9
HETATM    9  C   UNL     1      -9.591   9.920  67.961  1.00  0.00    -0.155 C  
HETATM   10  C   UNL     1      -8.487   9.876  66.892  1.00  0.00    -0.125 A  
HETATM   11  C   UNL     1      -8.833   9.425  69.199  1.00  0.00    -0.143 A  
HETATM   12  C   UNL     1      -9.312   9.266  70.493  1.00  0.00    -0.316 A  
HETATM   13  C   UNL     1      -8.578  10.218  65.550  1.00  0.00    -0.173 A  
HETATM   14  C   UNL     1      -8.459   8.705  71.442  1.00  0.00    -0.240 A  
HETATM   15  C   UNL     1      -7.158   8.309  71.091  1.00  0.00    -0.059 A  
HETATM   16  C   UNL     1      -6.677   8.485  69.788  1.00  0.00    -0.039 A  
HETATM   17  C   UNL     1      -7.461  10.007  64.743  1.00  0.00    -0.143 A  
HETATM   18  C   UNL     1      -6.283   9.461  65.279  1.00  0.00    -0.066 A  
HETATM   19  C   UNL     1      -6.197   9.123  66.635  1.00  0.00    -0.065 A  
HETATM   20  C   UNL     1      -7.304   9.334  67.441  1.00  0.00    -0.087 A  
HETATM   21  C   UNL     1      -7.516   9.054  68.847  1.00  0.00    -0.075 A  
BRANCH   9  22
HETATM   22  C   UNL     1     -10.130  11.353  68.155  1.00  0.00    -0.189 C  
HETATM   23  H1  UNL     1     -11.837  12.472  68.167  1.00  0.00     0.000 HD 
HETATM   24  N   UNL     1     -11.481  11.525  68.038  1.00  0.00    -0.299 N  
HETATM   25  O   UNL     1      -9.420  12.327  68.399  1.00  0.00    -0.211 OA 
HETATM   26  H2  UNL     1     -12.104  10.744  67.832  1.00  0.00     0.000 HD 
ENDBRANCH   9  22
ENDBRANCH   8   9
ENDBRANCH   7   8
ENDBRANCH   6   7
ENDBRANCH   4   6
ENDBRANCH   2   4
TORSDOF 6
ENDMDL
MODEL      153
REMARK 921   NORMALIZED FREE ENERGY PREDICTED BY IDOCK:   -3.86 KCAL/MOL
REMARK 922        TOTAL FREE ENERGY PREDICTED BY IDOCK:   -6.23 KCAL/MOL
REMARK 923 INTER-LIGAND FREE ENERGY PREDICTED BY IDOCK:   -5.43 KCAL/MOL
REMARK 924 INTRA-LIGAND FREE ENERGY PREDICTED BY IDOCK:   -0.79 KCAL/MOL
REMARK 927      BINDING AFFINITY PREDICTED BY RF-SCORE:    0.00 PKD
ROOT
HETATM    1  C   UNL     1     -10.602   5.816  66.584  1.00  0.00    -0.347 C  
HETATM    2  C   UNL     1      -9.837   6.812  67.457  1.00  0.00    -0.132 C  
HETATM    3  C   UNL     1     -10.460   8.202  67.329  1.00  0.00    -0.379 C  
ENDROOT
BRANCH   2   4
HETATM    4  N   UNL     1      -9.878   6.302  68.830  1.00  0.00    -0.132 NA 
HETATM    5  H   UNL     1     -10.815   5.971  69.062  1.00  0.00     0.000 HD 
BRANCH   4   6
HETATM    6  C   UNL     1      -8.885   5.270  69.110  1.00  0.00    -0.099 C  
BRANCH   6   7
HETATM    7  C   UNL     1      -8.083   5.625  70.363  1.00  0.00    -0.105 C  
BRANCH   7   8
HETATM    8  C   UNL     1      -8.087   7.130  70.701  1.00  0.00    -0.113 C  
BRANCH   8   9
HETATM    9  C   UNL     1      -8.798   7.498  72.029  1.00  0.00    -0.142 C  
HETATM   10  C   UNL     1      -9.380   6.241  72.695  1.00  0.00    -0.145 A  
HETATM   11  C   UNL     1     -10.069   8.314  71.762  1.00  0.00    -0.290 A  
HETATM   12  C   UNL     1     -10.177   9.572  71.183  1.00  0.00    -0.300 A  
HETATM   13  C   UNL     1      -8.699   5.126  73.167  1.00  0.00    -0.116 A  
HETATM   14  C   UNL     1     -11.454  10.079  70.952  1.00  0.00    -0.452 A  
HETATM   15  C   UNL     1     -12.594   9.331  71.290  1.00  0.00    -0.377 A  
HETATM   16  C   UNL     1     -12.478   8.070  71.886  1.00  0.00    -0.364 A  
HETATM   17  C   UNL     1      -9.451   4.057  73.652  1.00  0.00    -0.121 A  
HETATM   18  C   UNL     1     -10.854   4.111  73.657  1.00  0.00    -0.346 A  
HETATM   19  C   UNL     1     -11.533   5.240  73.183  1.00  0.00    -0.316 A  
HETATM   20  C   UNL     1     -10.790   6.307  72.704  1.00  0.00    -0.273 A  
HETATM   21  C   UNL     1     -11.212   7.569  72.130  1.00  0.00    -0.313 A  
BRANCH   9  22
HETATM   22  C   UNL     1      -7.831   8.240  72.976  1.00  0.00    -0.132 C  
HETATM   23  H1  UNL     1      -5.999   9.136  73.070  1.00  0.00     0.000 HD 
HETATM   24  N   UNL     1      -6.638   8.645  72.445  1.00  0.00    -0.082 N  
HETATM   25  O   UNL     1      -8.072   8.475  74.158  1.00  0.00    -0.356 OA 
HETATM   26  H2  UNL     1      -6.398   8.465  71.469  1.00  0.00     0.000 HD 
ENDBRANCH   9  22
ENDBRANCH   8   9
ENDBRANCH   7   8
ENDBRANCH   6   7
ENDBRANCH   4   6
ENDBRANCH   2   4
TORSDOF 6
ENDMDL
MODEL      154
REMARK 921   NORMALIZED FREE ENERGY PREDICTED BY IDOCK:   -3.85 KCAL/MOL
REMARK 922        TOTAL FREE ENERGY PREDICTED BY IDOCK:   -6.21 KCAL/MOL
REMARK 923 INTER-LIGAND FREE ENERGY PREDICTED BY IDOCK:   -5.63 KCAL/MOL
REMARK 924 INTRA-LIGAND FREE ENERGY PREDICTED BY IDOCK:   -0.58 KCAL/MOL
REMARK 927      BINDING AFFINITY PREDICTED BY RF-SCORE:    0.00 PKD
ROOT
HETATM    1  C   UNL     1      -6.023  12.552  68.364  1.00  0.00    -0.057 C  
HETATM    2  C   UNL     1      -5.705  11.995  69.753  1.00  0.00    -0.110 C  
HETATM    3  C   UNL     1      -5.607  13.140  70.762  1.00  0.00    -0.187 C  
ENDROOT
BRANCH   2   4
HETATM    4  N   UNL     1      -6.766  11.041  70.088  1.00  0.00    -0.384 NA 
HETATM    5  H   UNL     1      -7.211  11.295  70.970  1.00  0.00     0.000 HD 
BRANCH   4   6
HETATM    6  C   UNL     1      -7.766  10.873  69.038  1.00  0.00    -0.135 C  
BRANCH   6   7
HETATM    7  C   UNL     1      -7.536   9.563  68.284  1.00  0.00    -0.078 C  
BRANCH   7   8
HETATM    8  C   UNL     1      -8.611   8.490  68.554  1.00  0.00    -0.138 C  
BRANCH   8   9
HETATM    9  C   UNL     1      -9.735   8.410  67.488  1.00  0.00    -0.209 C  
HETATM   10  C   UNL     1      -9.133   8.312  66.078  1.00  0.00    -0.228 A  
HETATM   11  C   UNL     1     -10.500   9.737  67.398  1.00  0.00    -0.319 A  
HETATM   12  C   UNL     1     -11.269  10.353  68.377  1.00  0.00    -0.318 A  
HETATM   13  C   UNL     1      -8.328   7.307  65.556  1.00  0.00    -0.137 A  
HETATM   14  C   UNL     1     -11.796  11.613  68.099  1.00  0.00    -0.315 A  
HETATM   15  C   UNL     1     -11.547  12.237  66.865  1.00  0.00    -0.427 A  
HETATM   16  C   UNL     1     -10.782  11.604  65.877  1.00  0.00    -0.328 A  
HETATM   17  C   UNL     1      -7.818   7.479  64.270  1.00  0.00    -0.133 A  
HETATM   18  C   UNL     1      -8.112   8.637  63.530  1.00  0.00    -0.167 A  
HETATM   19  C   UNL     1      -8.928   9.643  64.061  1.00  0.00    -0.261 A  
HETATM   20  C   UNL     1      -9.439   9.475  65.338  1.00  0.00    -0.336 A  
HETATM   21  C   UNL     1     -10.269  10.348  66.145  1.00  0.00    -0.288 A  
BRANCH   9  22
HETATM   22  C   UNL     1     -10.678   7.225  67.782  1.00  0.00    -0.197 C  
HETATM   23  H1  UNL     1     -12.074   5.995  66.941  1.00  0.00     0.000 HD 
HETATM   24  N   UNL     1     -11.451   6.779  66.746  1.00  0.00    -0.653 N  
HETATM   25  O   UNL     1     -10.771   6.677  68.879  1.00  0.00    -0.222 OA 
HETATM   26  H2  UNL     1     -11.406   7.210  65.822  1.00  0.00     0.000 HD 
ENDBRANCH   9  22
ENDBRANCH   8   9
ENDBRANCH   7   8
ENDBRANCH   6   7
ENDBRANCH   4   6
ENDBRANCH   2   4
TORSDOF 6
ENDMDL
MODEL      155
REMARK 921   NORMALIZED FREE ENERGY PREDICTED BY IDOCK:   -3.84 KCAL/MOL
REMARK 922        TOTAL FREE ENERGY PREDICTED BY IDOCK:   -6.20 KCAL/MOL
REMARK 923 INTER-LIGAND FREE ENERGY PREDICTED BY IDOCK:   -5.85 KCAL/MOL
REMARK 924 INTRA-LIGAND FREE ENERGY PREDICTED BY IDOCK:   -0.35 KCAL/MOL
REMARK 927      BINDING AFFINITY PREDICTED BY RF-SCORE:    0.00 PKD
ROOT
HETATM    1  C   UNL     1     -10.088   5.290  67.194  1.00  0.00    -0.239 C  
HETATM    2  C   UNL     1     -10.995   6.219  68.003  1.00  0.00    -0.327 C  
HETATM    3  C   UNL     1     -10.399   6.447  69.393  1.00  0.00    -0.252 C  
ENDROOT
BRANCH   2   4
HETATM    4  N   UNL     1     -11.130   7.462  67.240  1.00  0.00    -0.558 NA 
HETATM    5  H   UNL     1     -12.067   7.540  66.844  1.00  0.00     0.000 HD 
BRANCH   4   6
HETATM    6  C   UNL     1     -10.793   8.664  67.997  1.00  0.00     0.025 C  
BRANCH   6   7
HETATM    7  C   UNL     1     -11.014   9.913  67.144  1.00  0.00    -0.147 C  
BRANCH   7   8
HETATM    8  C   UNL     1     -10.470  11.208  67.781  1.00  0.00    -0.225 C  
BRANCH   8   9
HETATM    9  C   UNL     1      -9.471  12.000  66.896  1.00  0.00    -0.206 C  
HETATM   10  C   UNL     1      -9.982  13.429  66.654  1.00  0.00    -0.277 A  
HETATM   11  C   UNL     1      -9.443  11.442  65.468  1.00  0.00    -0.251 A  
HETATM   12  C   UNL     1      -9.046  10.180  65.046  1.00  0.00    -0.245 A  
HETATM   13  C   UNL     1     -10.214  14.428  67.590  1.00  0.00    -0.229 A  
HETATM   14  C   UNL     1      -9.199   9.862  63.697  1.00  0.00    -0.283 A  
HETATM   15  C   UNL     1      -9.745  10.794  62.799  1.00  0.00    -0.297 A  
HETATM   16  C   UNL     1     -10.131  12.070  63.229  1.00  0.00    -0.379 A  
HETATM   17  C   UNL     1     -10.772  15.626  67.145  1.00  0.00    -0.314 A  
HETATM   18  C   UNL     1     -11.090  15.808  65.789  1.00  0.00    -0.124 A  
HETATM   19  C   UNL     1     -10.849  14.797  64.850  1.00  0.00    -0.433 A  
HETATM   20  C   UNL     1     -10.292  13.607  65.288  1.00  0.00    -0.362 A  
HETATM   21  C   UNL     1      -9.968  12.393  64.564  1.00  0.00    -0.202 A  
BRANCH   9  22
HETATM   22  C   UNL     1      -8.066  12.005  67.536  1.00  0.00    -0.159 C  
HETATM   23  H1  UNL     1      -7.032  11.491  69.219  1.00  0.00     0.000 HD 
HETATM   24  N   UNL     1      -7.960  11.488  68.796  1.00  0.00    -0.248 N  
HETATM   25  O   UNL     1      -7.061  12.447  66.982  1.00  0.00    -0.116 OA 
HETATM   26  H2  UNL     1      -8.771  11.115  69.292  1.00  0.00     0.000 HD 
ENDBRANCH   9  22
ENDBRANCH   8   9
ENDBRANCH   7   8
ENDBRANCH   6   7
ENDBRANCH   4   6
ENDBRANCH   2   4
TORSDOF 6
ENDMDL
MODEL      156
REMARK 921   NORMALIZED FREE ENERGY PREDICTED BY IDOCK:   -3.81 KCAL/MOL
REMARK 922        TOTAL FREE ENERGY PREDICTED BY IDOCK:   -6.16 KCAL/MOL
REMARK 923 INTER-LIGAND FREE ENERGY PREDICTED BY IDOCK:   -5.37 KCAL/MOL
REMARK 924 INTRA-LIGAND FREE ENERGY PREDICTED BY IDOCK:   -0.78 KCAL/MOL
REMARK 927      BINDING AFFINITY PREDICTED BY RF-SCORE:    0.00 PKD
ROOT
HETATM    1  C   UNL     1      -8.432   8.650  71.241  1.00  0.00    -0.226 C  
HETATM    2  C   UNL     1      -8.971   7.972  69.980  1.00  0.00    -0.144 C  
HETATM    3  C   UNL     1      -9.825   6.764  70.365  1.00  0.00    -0.186 C  
ENDROOT
BRANCH   2   4
HETATM    4  N   UNL     1      -9.729   8.982  69.237  1.00  0.00    -0.165 NA 
HETATM    5  H   UNL     1     -10.705   8.701  69.144  1.00  0.00     0.000 HD 
BRANCH   4   6
HETATM    6  C   UNL     1      -9.634  10.326  69.797  1.00  0.00    -0.108 C  
BRANCH   6   7
HETATM    7  C   UNL     1     -10.132  11.363  68.790  1.00  0.00    -0.199 C  
BRANCH   7   8
HETATM    8  C   UNL     1      -9.014  12.239  68.190  1.00  0.00    -0.192 C  
BRANCH   8   9
HETATM    9  C   UNL     1      -9.495  13.578  67.572  1.00  0.00    -0.222 C  
HETATM   10  C   UNL     1     -10.342  14.365  68.584  1.00  0.00    -0.245 A  
HETATM   11  C   UNL     1     -10.513  13.330  66.452  1.00  0.00    -0.286 A  
HETATM   12  C   UNL     1     -10.320  12.671  65.246  1.00  0.00    -0.309 A  
HETATM   13  C   UNL     1      -9.954  14.873  69.817  1.00  0.00     0.018 A  
HETATM   14  C   UNL     1     -11.426  12.480  64.419  1.00  0.00    -0.406 A  
HETATM   15  C   UNL     1     -12.697  12.939  64.806  1.00  0.00    -0.442 A  
HETATM   16  C   UNL     1     -12.881  13.615  66.018  1.00  0.00    -0.242 A  
HETATM   17  C   UNL     1     -10.927  15.477  70.611  1.00  0.00    -0.370 A  
HETATM   18  C   UNL     1     -12.259  15.563  70.173  1.00  0.00    -0.404 A  
HETATM   19  C   UNL     1     -12.641  15.052  68.927  1.00  0.00     0.277 A  
HETATM   20  C   UNL     1     -11.676  14.454  68.132  1.00  0.00    -0.377 A  
HETATM   21  C   UNL     1     -11.783  13.818  66.834  1.00  0.00    -0.424 A  
BRANCH   9  22
HETATM   22  C   UNL     1      -8.292  14.409  67.077  1.00  0.00    -0.145 C  
HETATM   23  H1  UNL     1      -7.758  15.931  65.825  1.00  0.00     0.000 HD 
HETATM   24  N   UNL     1      -8.553  15.382  66.152  1.00  0.00    -0.402 N  
HETATM   25  O   UNL     1      -7.136  14.240  67.459  1.00  0.00    -0.177 OA 
HETATM   26  H2  UNL     1      -9.498  15.551  65.806  1.00  0.00     0.000 HD 
ENDBRANCH   9  22
ENDBRANCH   8   9
ENDBRANCH   7   8
ENDBRANCH   6   7
ENDBRANCH   4   6
ENDBRANCH   2   4
TORSDOF 6
ENDMDL
MODEL      157
REMARK 921   NORMALIZED FREE ENERGY PREDICTED BY IDOCK:   -3.75 KCAL/MOL
REMARK 922        TOTAL FREE ENERGY PREDICTED BY IDOCK:   -6.07 KCAL/MOL
REMARK 923 INTER-LIGAND FREE ENERGY PREDICTED BY IDOCK:   -5.05 KCAL/MOL
REMARK 924 INTRA-LIGAND FREE ENERGY PREDICTED BY IDOCK:   -1.02 KCAL/MOL
REMARK 927      BINDING AFFINITY PREDICTED BY RF-SCORE:    0.00 PKD
ROOT
HETATM    1  C   UNL     1     -13.480   9.861  71.672  1.00  0.00    -0.421 C  
HETATM    2  C   UNL     1     -13.504   8.487  72.343  1.00  0.00    -0.277 C  
HETATM    3  C   UNL     1     -14.298   7.502  71.484  1.00  0.00    -0.603 C  
ENDROOT
BRANCH   2   4
HETATM    4  N   UNL     1     -12.111   8.073  72.529  1.00  0.00    -0.541 NA 
HETATM    5  H   UNL     1     -11.957   7.144  72.137  1.00  0.00     0.000 HD 
BRANCH   4   6
HETATM    6  C   UNL     1     -11.135   9.020  71.999  1.00  0.00    -0.301 C  
BRANCH   6   7
HETATM    7  C   UNL     1     -10.189   8.323  71.021  1.00  0.00    -0.230 C  
BRANCH   7   8
HETATM    8  C   UNL     1      -8.852   9.063  70.811  1.00  0.00    -0.281 C  
BRANCH   8   9
HETATM    9  C   UNL     1      -8.501   9.367  69.331  1.00  0.00    -0.142 C  
HETATM   10  C   UNL     1      -9.435  10.449  68.767  1.00  0.00    -0.175 A  
HETATM   11  C   UNL     1      -8.843   8.173  68.430  1.00  0.00    -0.133 A  
HETATM   12  C   UNL     1      -8.298   6.896  68.452  1.00  0.00    -0.120 A  
HETATM   13  C   UNL     1      -9.573  11.766  69.186  1.00  0.00     0.280 A  
HETATM   14  C   UNL     1      -8.838   5.939  67.595  1.00  0.00    -0.106 A  
HETATM   15  C   UNL     1      -9.906   6.263  66.742  1.00  0.00    -0.208 A  
HETATM   16  C   UNL     1     -10.442   7.556  66.715  1.00  0.00    -0.319 A  
HETATM   17  C   UNL     1     -10.559  12.545  68.581  1.00  0.00    -0.240 A  
HETATM   18  C   UNL     1     -11.385  12.006  67.581  1.00  0.00    -0.375 A  
HETATM   19  C   UNL     1     -11.236  10.679  67.162  1.00  0.00    -0.177 A  
HETATM   20  C   UNL     1     -10.256   9.902  67.757  1.00  0.00    -0.241 A  
HETATM   21  C   UNL     1      -9.899   8.512  67.554  1.00  0.00    -0.231 A  
BRANCH   9  22
HETATM   22  C   UNL     1      -7.019   9.777  69.198  1.00  0.00    -0.055 C  
HETATM   23  H1  UNL     1      -5.370  10.325  70.269  1.00  0.00     0.000 HD 
HETATM   24  N   UNL     1      -6.349  10.055  70.357  1.00  0.00    -0.102 N  
HETATM   25  O   UNL     1      -6.425   9.868  68.126  1.00  0.00    -0.055 OA 
HETATM   26  H2  UNL     1      -6.807   9.995  71.267  1.00  0.00     0.000 HD 
ENDBRANCH   9  22
ENDBRANCH   8   9
ENDBRANCH   7   8
ENDBRANCH   6   7
ENDBRANCH   4   6
ENDBRANCH   2   4
TORSDOF 6
ENDMDL
MODEL      158
REMARK 921   NORMALIZED FREE ENERGY PREDICTED BY IDOCK:   -3.74 KCAL/MOL
REMARK 922        TOTAL FREE ENERGY PREDICTED BY IDOCK:   -6.06 KCAL/MOL
REMARK 923 INTER-LIGAND FREE ENERGY PREDICTED BY IDOCK:   -5.44 KCAL/MOL
REMARK 924 INTRA-LIGAND FREE ENERGY PREDICTED BY IDOCK:   -0.62 KCAL/MOL
REMARK 927      BINDING AFFINITY PREDICTED BY RF-SCORE:    0.00 PKD
ROOT
HETATM    1  C   UNL     1     -10.829   5.800  73.151  1.00  0.00    -0.310 C  
HETATM    2  C   UNL     1     -11.561   6.495  72.002  1.00  0.00    -0.311 C  
HETATM    3  C   UNL     1     -11.985   7.900  72.430  1.00  0.00    -0.373 C  
ENDROOT
BRANCH   2   4
HETATM    4  N   UNL     1     -10.649   6.509  70.855  1.00  0.00    -0.223 NA 
HETATM    5  H   UNL     1     -10.033   5.697  70.876  1.00  0.00     0.000 HD 
BRANCH   4   6
HETATM    6  C   UNL     1     -11.323   6.608  69.563  1.00  0.00    -0.299 C  
BRANCH   6   7
HETATM    7  C   UNL     1     -10.660   7.677  68.694  1.00  0.00    -0.161 C  
BRANCH   7   8
HETATM    8  C   UNL     1     -10.065   8.853  69.496  1.00  0.00    -0.198 C  
BRANCH   8   9
HETATM    9  C   UNL     1      -9.185   9.826  68.670  1.00  0.00    -0.137 C  
HETATM   10  C   UNL     1     -10.058  10.876  67.965  1.00  0.00    -0.197 A  
HETATM   11  C   UNL     1      -8.549   9.108  67.473  1.00  0.00    -0.116 A  
HETATM   12  C   UNL     1      -7.639   8.060  67.485  1.00  0.00    -0.101 A  
HETATM   13  C   UNL     1     -10.881  11.834  68.542  1.00  0.00    -0.261 A  
HETATM   14  C   UNL     1      -7.270   7.499  66.263  1.00  0.00    -0.074 A  
HETATM   15  C   UNL     1      -7.813   7.982  65.060  1.00  0.00    -0.123 A  
HETATM   16  C   UNL     1      -8.719   9.049  65.055  1.00  0.00    -0.217 A  
HETATM   17  C   UNL     1     -11.658  12.625  67.695  1.00  0.00    -0.414 A  
HETATM   18  C   UNL     1     -11.605  12.449  66.302  1.00  0.00    -0.449 A  
HETATM   19  C   UNL     1     -10.769  11.484  65.729  1.00  0.00    -0.325 A  
HETATM   20  C   UNL     1      -9.993  10.699  66.566  1.00  0.00    -0.265 A  
HETATM   21  C   UNL     1      -9.077   9.617  66.265  1.00  0.00    -0.197 A  
BRANCH   9  22
HETATM   22  C   UNL     1      -8.120  10.491  69.569  1.00  0.00    -0.094 C  
HETATM   23  H1  UNL     1      -6.988  12.174  69.796  1.00  0.00     0.000 HD 
HETATM   24  N   UNL     1      -7.692  11.735  69.202  1.00  0.00    -0.344 N  
HETATM   25  O   UNL     1      -7.646   9.965  70.575  1.00  0.00    -0.251 OA 
HETATM   26  H2  UNL     1      -8.057  12.203  68.372  1.00  0.00     0.000 HD 
ENDBRANCH   9  22
ENDBRANCH   8   9
ENDBRANCH   7   8
ENDBRANCH   6   7
ENDBRANCH   4   6
ENDBRANCH   2   4
TORSDOF 6
ENDMDL
MODEL      159
REMARK 921   NORMALIZED FREE ENERGY PREDICTED BY IDOCK:   -3.71 KCAL/MOL
REMARK 922        TOTAL FREE ENERGY PREDICTED BY IDOCK:   -6.02 KCAL/MOL
REMARK 923 INTER-LIGAND FREE ENERGY PREDICTED BY IDOCK:   -5.23 KCAL/MOL
REMARK 924 INTRA-LIGAND FREE ENERGY PREDICTED BY IDOCK:   -0.79 KCAL/MOL
REMARK 927      BINDING AFFINITY PREDICTED BY RF-SCORE:    0.00 PKD
ROOT
HETATM    1  C   UNL     1     -10.985   5.902  66.554  1.00  0.00    -0.142 C  
HETATM    2  C   UNL     1      -9.824   5.637  67.514  1.00  0.00    -0.139 C  
HETATM    3  C   UNL     1      -9.192   6.961  67.945  1.00  0.00    -0.124 C  
ENDROOT
BRANCH   2   4
HETATM    4  N   UNL     1     -10.364   4.878  68.645  1.00  0.00    -0.042 NA 
HETATM    5  H   UNL     1     -10.631   3.938  68.352  1.00  0.00     0.000 HD 
BRANCH   4   6
HETATM    6  C   UNL     1      -9.474   4.821  69.801  1.00  0.00    -0.162 C  
BRANCH   6   7
HETATM    7  C   UNL     1      -9.913   5.829  70.864  1.00  0.00    -0.243 C  
BRANCH   7   8
HETATM    8  C   UNL     1      -8.785   6.252  71.826  1.00  0.00    -0.133 C  
BRANCH   8   9
HETATM    9  C   UNL     1      -8.800   7.749  72.231  1.00  0.00    -0.180 C  
HETATM   10  C   UNL     1     -10.202   8.346  72.034  1.00  0.00    -0.364 A  
HETATM   11  C   UNL     1      -7.973   8.591  71.251  1.00  0.00    -0.158 A  
HETATM   12  C   UNL     1      -6.609   8.520  70.997  1.00  0.00    -0.048 A  
HETATM   13  C   UNL     1     -11.386   7.984  72.665  1.00  0.00    -0.469 A  
HETATM   14  C   UNL     1      -6.089   9.326  69.985  1.00  0.00    -0.042 A  
HETATM   15  C   UNL     1      -6.928  10.176  69.245  1.00  0.00    -0.068 A  
HETATM   16  C   UNL     1      -8.299  10.252  69.516  1.00  0.00    -0.162 A  
HETATM   17  C   UNL     1     -12.563   8.607  72.254  1.00  0.00    -0.457 A  
HETATM   18  C   UNL     1     -12.546   9.569  71.231  1.00  0.00    -0.425 A  
HETATM   19  C   UNL     1     -11.348   9.932  70.603  1.00  0.00    -0.413 A  
HETATM   20  C   UNL     1     -10.175   9.318  71.010  1.00  0.00    -0.384 A  
HETATM   21  C   UNL     1      -8.816   9.464  70.528  1.00  0.00    -0.287 A  
BRANCH   9  22
HETATM   22  C   UNL     1      -8.313   7.923  73.686  1.00  0.00    -0.227 C  
HETATM   23  H1  UNL     1      -8.206   6.990  75.498  1.00  0.00     0.000 HD 
HETATM   24  N   UNL     1      -8.528   6.876  74.537  1.00  0.00    -0.160 N  
HETATM   25  O   UNL     1      -7.759   8.936  74.108  1.00  0.00    -0.404 OA 
HETATM   26  H2  UNL     1      -8.988   6.019  74.227  1.00  0.00     0.000 HD 
ENDBRANCH   9  22
ENDBRANCH   8   9
ENDBRANCH   7   8
ENDBRANCH   6   7
ENDBRANCH   4   6
ENDBRANCH   2   4
TORSDOF 6
ENDMDL
MODEL      160
REMARK 921   NORMALIZED FREE ENERGY PREDICTED BY IDOCK:   -3.67 KCAL/MOL
REMARK 922        TOTAL FREE ENERGY PREDICTED BY IDOCK:   -5.96 KCAL/MOL
REMARK 923 INTER-LIGAND FREE ENERGY PREDICTED BY IDOCK:   -5.08 KCAL/MOL
REMARK 924 INTRA-LIGAND FREE ENERGY PREDICTED BY IDOCK:   -0.87 KCAL/MOL
REMARK 927      BINDING AFFINITY PREDICTED BY RF-SCORE:    0.00 PKD
ROOT
HETATM    1  C   UNL     1     -12.595  12.121  63.348  1.00  0.00    -0.584 C  
HETATM    2  C   UNL     1     -11.885  13.355  63.908  1.00  0.00    -0.439 C  
HETATM    3  C   UNL     1     -12.451  13.700  65.286  1.00  0.00    -0.517 C  
ENDROOT
BRANCH   2   4
HETATM    4  N   UNL     1     -10.453  13.046  63.950  1.00  0.00    -0.513 NA 
HETATM    5  H   UNL     1     -10.085  13.180  64.892  1.00  0.00     0.000 HD 
BRANCH   4   6
HETATM    6  C   UNL     1     -10.118  11.715  63.454  1.00  0.00    -0.440 C  
BRANCH   6   7
HETATM    7  C   UNL     1      -9.670  10.812  64.605  1.00  0.00    -0.344 C  
BRANCH   7   8
HETATM    8  C   UNL     1      -9.003   9.500  64.145  1.00  0.00    -0.240 C  
BRANCH   8   9
HETATM    9  C   UNL     1      -8.161   8.781  65.231  1.00  0.00    -0.129 C  
HETATM   10  C   UNL     1      -9.000   8.549  66.498  1.00  0.00    -0.194 A  
HETATM   11  C   UNL     1      -7.055   9.701  65.765  1.00  0.00    -0.099 A  
HETATM   12  C   UNL     1      -5.978  10.239  65.074  1.00  0.00    -0.133 A  
HETATM   13  C   UNL     1     -10.150   7.784  66.637  1.00  0.00    -0.294 A  
HETATM   14  C   UNL     1      -5.149  11.134  65.749  1.00  0.00    -0.087 A  
HETATM   15  C   UNL     1      -5.406  11.480  67.086  1.00  0.00    -0.090 A  
HETATM   16  C   UNL     1      -6.486  10.923  67.780  1.00  0.00    -0.063 A  
HETATM   17  C   UNL     1     -10.799   7.796  67.871  1.00  0.00    -0.080 A  
HETATM   18  C   UNL     1     -10.299   8.563  68.936  1.00  0.00    -0.226 A  
HETATM   19  C   UNL     1      -9.136   9.329  68.789  1.00  0.00    -0.136 A  
HETATM   20  C   UNL     1      -8.486   9.317  67.566  1.00  0.00    -0.115 A  
HETATM   21  C   UNL     1      -7.303  10.025  67.118  1.00  0.00    -0.091 A  
BRANCH   9  22
HETATM   22  C   UNL     1      -7.587   7.456  64.685  1.00  0.00    -0.105 C  
HETATM   23  H1  UNL     1      -6.272   5.950  65.092  1.00  0.00     0.000 HD 
HETATM   24  N   UNL     1      -6.650   6.825  65.454  1.00  0.00    -0.049 N  
HETATM   25  O   UNL     1      -7.921   6.954  63.613  1.00  0.00    -0.119 OA 
HETATM   26  H2  UNL     1      -6.343   7.211  66.347  1.00  0.00     0.000 HD 
ENDBRANCH   9  22
ENDBRANCH   8   9
ENDBRANCH   7   8
ENDBRANCH   6   7
ENDBRANCH   4   6
ENDBRANCH   2   4
TORSDOF 6
ENDMDL
MODEL      161
REMARK 921   NORMALIZED FREE ENERGY PREDICTED BY IDOCK:   -3.66 KCAL/MOL
REMARK 922        TOTAL FREE ENERGY PREDICTED BY IDOCK:   -5.96 KCAL/MOL
REMARK 923 INTER-LIGAND FREE ENERGY PREDICTED BY IDOCK:   -4.93 KCAL/MOL
REMARK 924 INTRA-LIGAND FREE ENERGY PREDICTED BY IDOCK:   -1.02 KCAL/MOL
REMARK 927      BINDING AFFINITY PREDICTED BY RF-SCORE:    0.00 PKD
ROOT
HETATM    1  C   UNL     1      -7.759   3.529  66.485  1.00  0.00    -0.081 C  
HETATM    2  C   UNL     1      -9.183   3.798  66.976  1.00  0.00    -0.181 C  
HETATM    3  C   UNL     1      -9.499   2.900  68.172  1.00  0.00    -0.220 C  
ENDROOT
BRANCH   2   4
HETATM    4  N   UNL     1      -9.264   5.223  67.307  1.00  0.00    -0.112 NA 
HETATM    5  H   UNL     1      -8.437   5.717  66.970  1.00  0.00     0.000 HD 
BRANCH   4   6
HETATM    6  C   UNL     1     -10.480   5.875  66.831  1.00  0.00    -0.286 C  
BRANCH   6   7
HETATM    7  C   UNL     1     -10.942   6.939  67.827  1.00  0.00    -0.280 C  
BRANCH   7   8
HETATM    8  C   UNL     1     -11.536   6.362  69.127  1.00  0.00    -0.265 C  
BRANCH   8   9
HETATM    9  C   UNL     1     -10.888   6.892  70.433  1.00  0.00    -0.297 C  
HETATM   10  C   UNL     1     -10.021   8.127  70.141  1.00  0.00    -0.187 A  
HETATM   11  C   UNL     1      -9.841   5.906  70.965  1.00  0.00    -0.225 A  
HETATM   12  C   UNL     1     -10.035   4.606  71.414  1.00  0.00    -0.267 A  
HETATM   13  C   UNL     1     -10.421   9.356  69.635  1.00  0.00    -0.236 A  
HETATM   14  C   UNL     1      -8.911   3.859  71.763  1.00  0.00    -0.140 A  
HETATM   15  C   UNL     1      -7.623   4.411  71.655  1.00  0.00    -0.074 A  
HETATM   16  C   UNL     1      -7.436   5.727  71.215  1.00  0.00    -0.095 A  
HETATM   17  C   UNL     1      -9.436  10.304  69.362  1.00  0.00    -0.225 A  
HETATM   18  C   UNL     1      -8.080  10.015  69.592  1.00  0.00    -0.180 A  
HETATM   19  C   UNL     1      -7.685   8.775  70.107  1.00  0.00    -0.084 A  
HETATM   20  C   UNL     1      -8.662   7.832  70.383  1.00  0.00    -0.139 A  
HETATM   21  C   UNL     1      -8.550   6.475  70.881  1.00  0.00    -0.135 A  
BRANCH   9  22
HETATM   22  C   UNL     1     -11.971   7.201  71.489  1.00  0.00    -0.326 C  
HETATM   23  H1  UNL     1     -12.250   7.754  73.434  1.00  0.00     0.000 HD 
HETATM   24  N   UNL     1     -11.535   7.550  72.736  1.00  0.00    -0.522 N  
HETATM   25  O   UNL     1     -13.180   7.146  71.270  1.00  0.00    -0.377 OA 
HETATM   26  H2  UNL     1     -10.540   7.603  72.960  1.00  0.00     0.000 HD 
ENDBRANCH   9  22
ENDBRANCH   8   9
ENDBRANCH   7   8
ENDBRANCH   6   7
ENDBRANCH   4   6
ENDBRANCH   2   4
TORSDOF 6
ENDMDL
MODEL      162
REMARK 921   NORMALIZED FREE ENERGY PREDICTED BY IDOCK:   -3.64 KCAL/MOL
REMARK 922        TOTAL FREE ENERGY PREDICTED BY IDOCK:   -5.92 KCAL/MOL
REMARK 923 INTER-LIGAND FREE ENERGY PREDICTED BY IDOCK:   -4.90 KCAL/MOL
REMARK 924 INTRA-LIGAND FREE ENERGY PREDICTED BY IDOCK:   -1.03 KCAL/MOL
REMARK 927      BINDING AFFINITY PREDICTED BY RF-SCORE:    0.00 PKD
ROOT
HETATM    1  C   UNL     1     -11.654  11.761  68.866  1.00  0.00    -0.370 C  
HETATM    2  C   UNL     1     -10.958  10.754  67.948  1.00  0.00    -0.289 C  
HETATM    3  C   UNL     1      -9.949  11.475  67.054  1.00  0.00    -0.225 C  
ENDROOT
BRANCH   2   4
HETATM    4  N   UNL     1     -10.329   9.749  68.808  1.00  0.00    -0.200 NA 
HETATM    5  H   UNL     1     -10.912   9.559  69.623  1.00  0.00     0.000 HD 
BRANCH   4   6
HETATM    6  C   UNL     1      -9.991   8.507  68.120  1.00  0.00    -0.181 C  
BRANCH   6   7
HETATM    7  C   UNL     1      -8.844   7.793  68.836  1.00  0.00    -0.135 C  
BRANCH   7   8
HETATM    8  C   UNL     1      -9.047   6.271  68.978  1.00  0.00    -0.129 C  
BRANCH   8   9
HETATM    9  C   UNL     1      -9.357   5.786  70.418  1.00  0.00    -0.186 C  
HETATM   10  C   UNL     1     -10.592   6.510  70.976  1.00  0.00    -0.275 A  
HETATM   11  C   UNL     1      -8.269   6.246  71.397  1.00  0.00    -0.122 A  
HETATM   12  C   UNL     1      -6.924   5.902  71.411  1.00  0.00    -0.072 A  
HETATM   13  C   UNL     1     -11.896   6.475  70.498  1.00  0.00    -0.393 A  
HETATM   14  C   UNL     1      -6.098   6.524  72.345  1.00  0.00    -0.042 A  
HETATM   15  C   UNL     1      -6.618   7.476  73.239  1.00  0.00    -0.066 A  
HETATM   16  C   UNL     1      -7.978   7.809  73.228  1.00  0.00    -0.184 A  
HETATM   17  C   UNL     1     -12.841   7.293  71.115  1.00  0.00    -0.334 A  
HETATM   18  C   UNL     1     -12.478   8.127  72.186  1.00  0.00    -0.364 A  
HETATM   19  C   UNL     1     -11.163   8.152  72.665  1.00  0.00    -0.447 A  
HETATM   20  C   UNL     1     -10.221   7.339  72.057  1.00  0.00    -0.212 A  
HETATM   21  C   UNL     1      -8.802   7.183  72.311  1.00  0.00    -0.142 A  
BRANCH   9  22
HETATM   22  C   UNL     1      -9.540   4.254  70.447  1.00  0.00    -0.195 C  
HETATM   23  H1  UNL     1      -9.647   2.595  69.262  1.00  0.00     0.000 HD 
HETATM   24  N   UNL     1      -9.526   3.608  69.243  1.00  0.00    -0.182 N  
HETATM   25  O   UNL     1      -9.701   3.600  71.476  1.00  0.00    -0.154 OA 
HETATM   26  H2  UNL     1      -9.400   4.114  68.366  1.00  0.00     0.000 HD 
ENDBRANCH   9  22
ENDBRANCH   8   9
ENDBRANCH   7   8
ENDBRANCH   6   7
ENDBRANCH   4   6
ENDBRANCH   2   4
TORSDOF 6
ENDMDL
MODEL      163
REMARK 921   NORMALIZED FREE ENERGY PREDICTED BY IDOCK:   -3.64 KCAL/MOL
REMARK 922        TOTAL FREE ENERGY PREDICTED BY IDOCK:   -5.92 KCAL/MOL
REMARK 923 INTER-LIGAND FREE ENERGY PREDICTED BY IDOCK:   -5.62 KCAL/MOL
REMARK 924 INTRA-LIGAND FREE ENERGY PREDICTED BY IDOCK:   -0.30 KCAL/MOL
REMARK 927      BINDING AFFINITY PREDICTED BY RF-SCORE:    0.00 PKD
ROOT
HETATM    1  C   UNL     1      -7.995   9.332  67.582  1.00  0.00    -0.103 C  
HETATM    2  C   UNL     1      -7.505   9.786  68.958  1.00  0.00    -0.080 C  
HETATM    3  C   UNL     1      -6.158  10.496  68.823  1.00  0.00    -0.040 C  
ENDROOT
BRANCH   2   4
HETATM    4  N   UNL     1      -8.544  10.653  69.521  1.00  0.00    -0.381 NA 
HETATM    5  H   UNL     1      -8.465  11.598  69.145  1.00  0.00     0.000 HD 
BRANCH   4   6
HETATM    6  C   UNL     1      -9.901  10.144  69.347  1.00  0.00    -0.229 C  
BRANCH   6   7
HETATM    7  C   UNL     1     -10.485   9.706  70.690  1.00  0.00    -0.379 C  
BRANCH   7   8
HETATM    8  C   UNL     1      -9.927   8.363  71.205  1.00  0.00    -0.245 C  
BRANCH   8   9
HETATM    9  C   UNL     1     -10.904   7.164  71.089  1.00  0.00    -0.261 C  
HETATM   10  C   UNL     1     -10.442   6.004  71.984  1.00  0.00    -0.251 A  
HETATM   11  C   UNL     1     -10.823   6.523  69.698  1.00  0.00    -0.359 A  
HETATM   12  C   UNL     1     -11.139   7.091  68.470  1.00  0.00    -0.071 A  
HETATM   13  C   UNL     1     -10.311   5.986  73.367  1.00  0.00    -0.247 A  
HETATM   14  C   UNL     1     -10.892   6.344  67.320  1.00  0.00    -0.463 A  
HETATM   15  C   UNL     1     -10.333   5.057  67.408  1.00  0.00    -0.174 A  
HETATM   16  C   UNL     1     -10.030   4.486  68.649  1.00  0.00    -0.111 A  
HETATM   17  C   UNL     1      -9.779   4.841  73.959  1.00  0.00    -0.156 A  
HETATM   18  C   UNL     1      -9.389   3.744  73.175  1.00  0.00    -0.122 A  
HETATM   19  C   UNL     1      -9.529   3.767  71.782  1.00  0.00    -0.214 A  
HETATM   20  C   UNL     1     -10.059   4.902  71.189  1.00  0.00    -0.277 A  
HETATM   21  C   UNL     1     -10.286   5.219  69.793  1.00  0.00    -0.369 A  
BRANCH   9  22
HETATM   22  C   UNL     1     -12.344   7.602  71.433  1.00  0.00    -0.333 C  
HETATM   23  H1  UNL     1     -14.305   7.303  70.952  1.00  0.00     0.000 HD 
HETATM   24  N   UNL     1     -13.354   7.013  70.725  1.00  0.00    -0.407 N  
HETATM   25  O   UNL     1     -12.621   8.440  72.290  1.00  0.00    -0.348 OA 
HETATM   26  H2  UNL     1     -13.166   6.317  70.003  1.00  0.00     0.000 HD 
ENDBRANCH   9  22
ENDBRANCH   8   9
ENDBRANCH   7   8
ENDBRANCH   6   7
ENDBRANCH   4   6
ENDBRANCH   2   4
TORSDOF 6
ENDMDL
MODEL      164
REMARK 921   NORMALIZED FREE ENERGY PREDICTED BY IDOCK:   -3.60 KCAL/MOL
REMARK 922        TOTAL FREE ENERGY PREDICTED BY IDOCK:   -5.87 KCAL/MOL
REMARK 923 INTER-LIGAND FREE ENERGY PREDICTED BY IDOCK:   -5.03 KCAL/MOL
REMARK 924 INTRA-LIGAND FREE ENERGY PREDICTED BY IDOCK:   -0.85 KCAL/MOL
REMARK 927      BINDING AFFINITY PREDICTED BY RF-SCORE:    0.00 PKD
ROOT
HETATM    1  C   UNL     1     -11.767  13.355  68.136  1.00  0.00    -0.397 C  
HETATM    2  C   UNL     1     -10.316  12.962  67.849  1.00  0.00    -0.231 C  
HETATM    3  C   UNL     1      -9.463  14.217  67.666  1.00  0.00    -0.211 C  
ENDROOT
BRANCH   2   4
HETATM    4  N   UNL     1      -9.864  12.134  68.970  1.00  0.00    -0.408 NA 
HETATM    5  H   UNL     1     -10.659  11.704  69.442  1.00  0.00     0.000 HD 
BRANCH   4   6
HETATM    6  C   UNL     1      -8.878  11.122  68.601  1.00  0.00    -0.155 C  
BRANCH   6   7
HETATM    7  C   UNL     1      -9.257   9.765  69.194  1.00  0.00    -0.177 C  
BRANCH   7   8
HETATM    8  C   UNL     1      -8.181   9.166  70.122  1.00  0.00    -0.161 C  
BRANCH   8   9
HETATM    9  C   UNL     1      -8.469   7.723  70.609  1.00  0.00    -0.126 C  
HETATM   10  C   UNL     1      -8.540   6.756  69.417  1.00  0.00    -0.132 A  
HETATM   11  C   UNL     1      -9.890   7.609  71.176  1.00  0.00    -0.184 A  
HETATM   12  C   UNL     1     -10.426   8.250  72.285  1.00  0.00    -0.392 A  
HETATM   13  C   UNL     1      -7.538   6.435  68.512  1.00  0.00    -0.097 A  
HETATM   14  C   UNL     1     -11.781   8.066  72.556  1.00  0.00    -0.446 A  
HETATM   15  C   UNL     1     -12.575   7.261  71.723  1.00  0.00    -0.376 A  
HETATM   16  C   UNL     1     -12.025   6.607  70.614  1.00  0.00    -0.404 A  
HETATM   17  C   UNL     1      -7.862   5.596  67.446  1.00  0.00    -0.101 A  
HETATM   18  C   UNL     1      -9.167   5.096  67.299  1.00  0.00    -0.119 A  
HETATM   19  C   UNL     1     -10.171   5.421  68.219  1.00  0.00    -0.224 A  
HETATM   20  C   UNL     1      -9.852   6.251  69.281  1.00  0.00    -0.167 A  
HETATM   21  C   UNL     1     -10.678   6.776  70.351  1.00  0.00    -0.281 A  
BRANCH   9  22
HETATM   22  C   UNL     1      -7.407   7.275  71.636  1.00  0.00    -0.080 C  
HETATM   23  H1  UNL     1      -5.852   7.940  72.780  1.00  0.00     0.000 HD 
HETATM   24  N   UNL     1      -6.554   8.236  72.101  1.00  0.00    -0.069 N  
HETATM   25  O   UNL     1      -7.289   6.120  72.043  1.00  0.00    -0.090 OA 
HETATM   26  H2  UNL     1      -6.616   9.204  71.785  1.00  0.00     0.000 HD 
ENDBRANCH   9  22
ENDBRANCH   8   9
ENDBRANCH   7   8
ENDBRANCH   6   7
ENDBRANCH   4   6
ENDBRANCH   2   4
TORSDOF 6
ENDMDL
MODEL      165
REMARK 921   NORMALIZED FREE ENERGY PREDICTED BY IDOCK:   -3.60 KCAL/MOL
REMARK 922        TOTAL FREE ENERGY PREDICTED BY IDOCK:   -5.87 KCAL/MOL
REMARK 923 INTER-LIGAND FREE ENERGY PREDICTED BY IDOCK:   -4.91 KCAL/MOL
REMARK 924 INTRA-LIGAND FREE ENERGY PREDICTED BY IDOCK:   -0.96 KCAL/MOL
REMARK 927      BINDING AFFINITY PREDICTED BY RF-SCORE:    0.00 PKD
ROOT
HETATM    1  C   UNL     1      -9.433   6.531  74.469  1.00  0.00    -0.281 C  
HETATM    2  C   UNL     1     -10.314   6.200  73.262  1.00  0.00    -0.227 C  
HETATM    3  C   UNL     1     -10.942   4.817  73.440  1.00  0.00    -0.396 C  
ENDROOT
BRANCH   2   4
HETATM    4  N   UNL     1     -11.318   7.263  73.156  1.00  0.00    -0.582 NA 
HETATM    5  H   UNL     1     -11.073   8.049  73.759  1.00  0.00     0.000 HD 
BRANCH   4   6
HETATM    6  C   UNL     1     -11.557   7.719  71.791  1.00  0.00    -0.272 C  
BRANCH   6   7
HETATM    7  C   UNL     1     -10.412   8.616  71.318  1.00  0.00    -0.311 C  
BRANCH   7   8
HETATM    8  C   UNL     1     -10.794   9.557  70.158  1.00  0.00    -0.300 C  
BRANCH   8   9
HETATM    9  C   UNL     1     -10.019   9.314  68.837  1.00  0.00    -0.190 C  
HETATM   10  C   UNL     1     -10.018   7.819  68.481  1.00  0.00    -0.193 A  
HETATM   11  C   UNL     1      -8.520   9.581  69.025  1.00  0.00    -0.128 A  
HETATM   12  C   UNL     1      -7.894  10.778  69.346  1.00  0.00    -0.093 A  
HETATM   13  C   UNL     1     -11.106   7.005  68.194  1.00  0.00    -0.097 A  
HETATM   14  C   UNL     1      -6.517  10.760  69.561  1.00  0.00    -0.089 A  
HETATM   15  C   UNL     1      -5.792   9.560  69.462  1.00  0.00    -0.033 A  
HETATM   16  C   UNL     1      -6.428   8.359  69.124  1.00  0.00    -0.043 A  
HETATM   17  C   UNL     1     -10.870   5.646  67.989  1.00  0.00    -0.164 A  
HETATM   18  C   UNL     1      -9.569   5.123  68.073  1.00  0.00    -0.172 A  
HETATM   19  C   UNL     1      -8.477   5.952  68.358  1.00  0.00    -0.111 A  
HETATM   20  C   UNL     1      -8.706   7.303  68.559  1.00  0.00    -0.123 A  
HETATM   21  C   UNL     1      -7.792   8.376  68.896  1.00  0.00    -0.113 A  
BRANCH   9  22
HETATM   22  C   UNL     1     -10.612  10.166  67.695  1.00  0.00    -0.265 C  
HETATM   23  H1  UNL     1     -10.448  10.573  65.701  1.00  0.00     0.000 HD 
HETATM   24  N   UNL     1     -10.056  10.010  66.456  1.00  0.00    -0.225 N  
HETATM   25  O   UNL     1     -11.536  10.963  67.841  1.00  0.00    -0.497 OA 
HETATM   26  H2  UNL     1      -9.284   9.362  66.294  1.00  0.00     0.000 HD 
ENDBRANCH   9  22
ENDBRANCH   8   9
ENDBRANCH   7   8
ENDBRANCH   6   7
ENDBRANCH   4   6
ENDBRANCH   2   4
TORSDOF 6
ENDMDL
MODEL      166
REMARK 921   NORMALIZED FREE ENERGY PREDICTED BY IDOCK:   -3.60 KCAL/MOL
REMARK 922        TOTAL FREE ENERGY PREDICTED BY IDOCK:   -5.87 KCAL/MOL
REMARK 923 INTER-LIGAND FREE ENERGY PREDICTED BY IDOCK:   -4.52 KCAL/MOL
REMARK 924 INTRA-LIGAND FREE ENERGY PREDICTED BY IDOCK:   -1.35 KCAL/MOL
REMARK 927      BINDING AFFINITY PREDICTED BY RF-SCORE:    0.00 PKD
ROOT
HETATM    1  C   UNL     1     -11.682  14.184  66.616  1.00  0.00    -0.422 C  
HETATM    2  C   UNL     1     -11.065  14.853  65.386  1.00  0.00    -0.364 C  
HETATM    3  C   UNL     1      -9.698  15.437  65.743  1.00  0.00    -0.385 C  
ENDROOT
BRANCH   2   4
HETATM    4  N   UNL     1     -10.985  13.834  64.336  1.00  0.00    -0.542 NA 
HETATM    5  H   UNL     1     -10.031  13.759  63.982  1.00  0.00     0.000 HD 
BRANCH   4   6
HETATM    6  C   UNL     1     -11.486  12.524  64.740  1.00  0.00    -0.323 C  
BRANCH   6   7
HETATM    7  C   UNL     1     -10.459  11.437  64.422  1.00  0.00    -0.388 C  
BRANCH   7   8
HETATM    8  C   UNL     1     -10.653  10.139  65.232  1.00  0.00     0.162 C  
BRANCH   8   9
HETATM    9  C   UNL     1      -9.454   9.748  66.134  1.00  0.00    -0.261 C  
HETATM   10  C   UNL     1      -8.952  10.967  66.923  1.00  0.00    -0.162 A  
HETATM   11  C   UNL     1      -8.221   9.406  65.288  1.00  0.00    -0.133 A  
HETATM   12  C   UNL     1      -8.064   8.371  64.376  1.00  0.00    -0.158 A  
HETATM   13  C   UNL     1      -9.639  11.721  67.866  1.00  0.00    -0.187 A  
HETATM   14  C   UNL     1      -6.878   8.314  63.647  1.00  0.00    -0.080 A  
HETATM   15  C   UNL     1      -5.877   9.283  63.831  1.00  0.00    -0.079 A  
HETATM   16  C   UNL     1      -6.036  10.317  64.762  1.00  0.00    -0.128 A  
HETATM   17  C   UNL     1      -9.008  12.850  68.387  1.00  0.00    -0.124 A  
HETATM   18  C   UNL     1      -7.717  13.209  67.964  1.00  0.00    -0.146 A  
HETATM   19  C   UNL     1      -7.030  12.441  67.016  1.00  0.00    -0.006 A  
HETATM   20  C   UNL     1      -7.652  11.317  66.499  1.00  0.00    -0.111 A  
HETATM   21  C   UNL     1      -7.207  10.368  65.497  1.00  0.00    -0.138 A  
BRANCH   9  22
HETATM   22  C   UNL     1      -9.840   8.587  67.076  1.00  0.00    -0.224 C  
HETATM   23  H1  UNL     1      -9.138   7.393  68.576  1.00  0.00     0.000 HD 
HETATM   24  N   UNL     1      -8.883   8.160  67.954  1.00  0.00    -0.131 N  
HETATM   25  O   UNL     1     -10.939   8.036  67.073  1.00  0.00    -0.191 OA 
HETATM   26  H2  UNL     1      -7.957   8.588  67.985  1.00  0.00     0.000 HD 
ENDBRANCH   9  22
ENDBRANCH   8   9
ENDBRANCH   7   8
ENDBRANCH   6   7
ENDBRANCH   4   6
ENDBRANCH   2   4
TORSDOF 6
ENDMDL
MODEL      167
REMARK 921   NORMALIZED FREE ENERGY PREDICTED BY IDOCK:   -3.60 KCAL/MOL
REMARK 922        TOTAL FREE ENERGY PREDICTED BY IDOCK:   -5.87 KCAL/MOL
REMARK 923 INTER-LIGAND FREE ENERGY PREDICTED BY IDOCK:   -6.00 KCAL/MOL
REMARK 924 INTRA-LIGAND FREE ENERGY PREDICTED BY IDOCK:    0.13 KCAL/MOL
REMARK 927      BINDING AFFINITY PREDICTED BY RF-SCORE:    0.00 PKD
ROOT
HETATM    1  C   UNL     1      -7.259   7.977  72.013  1.00  0.00    -0.089 C  
HETATM    2  C   UNL     1      -6.166   7.373  71.130  1.00  0.00    -0.036 C  
HETATM    3  C   UNL     1      -5.888   5.932  71.559  1.00  0.00    -0.022 C  
ENDROOT
BRANCH   2   4
HETATM    4  N   UNL     1      -6.631   7.466  69.743  1.00  0.00    -0.039 NA 
HETATM    5  H   UNL     1      -6.409   6.611  69.233  1.00  0.00     0.000 HD 
BRANCH   4   6
HETATM    6  C   UNL     1      -8.048   7.788  69.613  1.00  0.00    -0.122 C  
BRANCH   6   7
HETATM    7  C   UNL     1      -8.231   9.102  68.853  1.00  0.00    -0.112 C  
BRANCH   7   8
HETATM    8  C   UNL     1      -9.076  10.148  69.608  1.00  0.00    -0.195 C  
BRANCH   8   9
HETATM    9  C   UNL     1     -10.559  10.233  69.163  1.00  0.00    -0.254 C  
HETATM   10  C   UNL     1     -11.037  11.694  69.160  1.00  0.00    -0.302 A  
HETATM   11  C   UNL     1     -11.484   9.614  70.218  1.00  0.00    -0.288 A  
HETATM   12  C   UNL     1     -11.535   8.295  70.648  1.00  0.00    -0.236 A  
HETATM   13  C   UNL     1     -10.565  12.750  68.391  1.00  0.00    -0.262 A  
HETATM   14  C   UNL     1     -12.399   7.981  71.696  1.00  0.00    -0.344 A  
HETATM   15  C   UNL     1     -13.187   8.976  72.297  1.00  0.00    -0.519 A  
HETATM   16  C   UNL     1     -13.141  10.302  71.849  1.00  0.00    -0.568 A  
HETATM   17  C   UNL     1     -11.092  14.018  68.628  1.00  0.00    -0.286 A  
HETATM   18  C   UNL     1     -12.069  14.215  69.618  1.00  0.00    -0.400 A  
HETATM   19  C   UNL     1     -12.544  13.145  70.385  1.00  0.00    -0.186 A  
HETATM   20  C   UNL     1     -12.025  11.882  70.150  1.00  0.00    -0.413 A  
HETATM   21  C   UNL     1     -12.295  10.614  70.800  1.00  0.00    -0.472 A  
BRANCH   9  22
HETATM   22  C   UNL     1     -10.748   9.575  67.779  1.00  0.00    -0.242 C  
HETATM   23  H1  UNL     1     -11.251   7.827  66.853  1.00  0.00     0.000 HD 
HETATM   24  N   UNL     1     -11.125   8.262  67.767  1.00  0.00    -0.390 N  
HETATM   25  O   UNL     1     -10.576  10.160  66.711  1.00  0.00    -0.223 OA 
HETATM   26  H2  UNL     1     -11.274   7.740  68.631  1.00  0.00     0.000 HD 
ENDBRANCH   9  22
ENDBRANCH   8   9
ENDBRANCH   7   8
ENDBRANCH   6   7
ENDBRANCH   4   6
ENDBRANCH   2   4
TORSDOF 6
ENDMDL
MODEL      168
REMARK 921   NORMALIZED FREE ENERGY PREDICTED BY IDOCK:   -3.59 KCAL/MOL
REMARK 922        TOTAL FREE ENERGY PREDICTED BY IDOCK:   -5.86 KCAL/MOL
REMARK 923 INTER-LIGAND FREE ENERGY PREDICTED BY IDOCK:   -5.79 KCAL/MOL
REMARK 924 INTRA-LIGAND FREE ENERGY PREDICTED BY IDOCK:   -0.07 KCAL/MOL
REMARK 927      BINDING AFFINITY PREDICTED BY RF-SCORE:    0.00 PKD
ROOT
HETATM    1  C   UNL     1      -6.948   8.762  71.852  1.00  0.00    -0.064 C  
HETATM    2  C   UNL     1      -5.820   7.832  71.402  1.00  0.00    -0.035 C  
HETATM    3  C   UNL     1      -5.174   7.170  72.620  1.00  0.00    -0.037 C  
ENDROOT
BRANCH   2   4
HETATM    4  N   UNL     1      -6.406   6.858  70.478  1.00  0.00    -0.041 NA 
HETATM    5  H   UNL     1      -6.183   5.907  70.771  1.00  0.00     0.000 HD 
BRANCH   4   6
HETATM    6  C   UNL     1      -7.845   7.012  70.287  1.00  0.00    -0.105 C  
BRANCH   6   7
HETATM    7  C   UNL     1      -8.173   7.181  68.803  1.00  0.00    -0.122 C  
BRANCH   7   8
HETATM    8  C   UNL     1      -8.683   8.589  68.432  1.00  0.00    -0.143 C  
BRANCH   8   9
HETATM    9  C   UNL     1     -10.205   8.678  68.152  1.00  0.00    -0.250 C  
HETATM   10  C   UNL     1     -10.503   9.806  67.151  1.00  0.00    -0.316 A  
HETATM   11  C   UNL     1     -10.963   9.166  69.393  1.00  0.00    -0.108 A  
HETATM   12  C   UNL     1     -11.077   8.545  70.629  1.00  0.00    -0.280 A  
HETATM   13  C   UNL     1     -10.078   9.919  65.834  1.00  0.00    -0.316 A  
HETATM   14  C   UNL     1     -11.742   9.228  71.646  1.00  0.00    -0.462 A  
HETATM   15  C   UNL     1     -12.272  10.510  71.421  1.00  0.00    -0.429 A  
HETATM   16  C   UNL     1     -12.166  11.124  70.167  1.00  0.00    -0.417 A  
HETATM   17  C   UNL     1     -10.397  11.086  65.142  1.00  0.00    -0.346 A  
HETATM   18  C   UNL     1     -11.125  12.113  65.765  1.00  0.00    -0.362 A  
HETATM   19  C   UNL     1     -11.554  11.989  67.091  1.00  0.00    -0.387 A  
HETATM   20  C   UNL     1     -11.242  10.830  67.782  1.00  0.00    -0.385 A  
HETATM   21  C   UNL     1     -11.519  10.443  69.152  1.00  0.00    -0.261 A  
BRANCH   9  22
HETATM   22  C   UNL     1     -10.745   7.322  67.649  1.00  0.00    -0.224 C  
HETATM   23  H1  UNL     1     -11.801   5.669  68.215  1.00  0.00     0.000 HD 
HETATM   24  N   UNL     1     -11.444   6.565  68.547  1.00  0.00    -0.547 N  
HETATM   25  O   UNL     1     -10.576   6.895  66.508  1.00  0.00    -0.159 OA 
HETATM   26  H2  UNL     1     -11.603   6.881  69.504  1.00  0.00     0.000 HD 
ENDBRANCH   9  22
ENDBRANCH   8   9
ENDBRANCH   7   8
ENDBRANCH   6   7
ENDBRANCH   4   6
ENDBRANCH   2   4
TORSDOF 6
ENDMDL
MODEL      169
REMARK 921   NORMALIZED FREE ENERGY PREDICTED BY IDOCK:   -3.56 KCAL/MOL
REMARK 922        TOTAL FREE ENERGY PREDICTED BY IDOCK:   -5.81 KCAL/MOL
REMARK 923 INTER-LIGAND FREE ENERGY PREDICTED BY IDOCK:   -5.76 KCAL/MOL
REMARK 924 INTRA-LIGAND FREE ENERGY PREDICTED BY IDOCK:   -0.05 KCAL/MOL
REMARK 927      BINDING AFFINITY PREDICTED BY RF-SCORE:    0.00 PKD
ROOT
HETATM    1  C   UNL     1      -9.510   6.451  71.742  1.00  0.00    -0.159 C  
HETATM    2  C   UNL     1     -10.026   7.611  70.889  1.00  0.00    -0.180 C  
HETATM    3  C   UNL     1      -9.333   8.910  71.303  1.00  0.00    -0.336 C  
ENDROOT
BRANCH   2   4
HETATM    4  N   UNL     1      -9.776   7.262  69.489  1.00  0.00    -0.158 NA 
HETATM    5  H   UNL     1      -9.860   6.255  69.349  1.00  0.00     0.000 HD 
BRANCH   4   6
HETATM    6  C   UNL     1     -10.617   7.982  68.538  1.00  0.00    -0.103 C  
BRANCH   6   7
HETATM    7  C   UNL     1      -9.757   8.809  67.582  1.00  0.00    -0.210 C  
BRANCH   7   8
HETATM    8  C   UNL     1     -10.536   9.910  66.834  1.00  0.00    -0.248 C  
BRANCH   8   9
HETATM    9  C   UNL     1      -9.663  10.852  65.964  1.00  0.00    -0.268 C  
HETATM   10  C   UNL     1      -8.966  11.903  66.842  1.00  0.00    -0.196 A  
HETATM   11  C   UNL     1     -10.538  11.737  65.068  1.00  0.00    -0.338 A  
HETATM   12  C   UNL     1     -11.395  11.346  64.048  1.00  0.00    -0.291 A  
HETATM   13  C   UNL     1      -8.040  11.697  67.856  1.00  0.00    -0.138 A  
HETATM   14  C   UNL     1     -12.168  12.328  63.429  1.00  0.00    -0.630 A  
HETATM   15  C   UNL     1     -12.080  13.670  63.836  1.00  0.00    -0.462 A  
HETATM   16  C   UNL     1     -11.203  14.059  64.856  1.00  0.00    -0.362 A  
HETATM   17  C   UNL     1      -7.610  12.805  68.584  1.00  0.00    -0.085 A  
HETATM   18  C   UNL     1      -8.105  14.088  68.297  1.00  0.00    -0.148 A  
HETATM   19  C   UNL     1      -9.035  14.288  67.270  1.00  0.00    -0.221 A  
HETATM   20  C   UNL     1      -9.462  13.190  66.541  1.00  0.00    -0.246 A  
HETATM   21  C   UNL     1     -10.426  13.089  65.462  1.00  0.00    -0.297 A  
BRANCH   9  22
HETATM   22  C   UNL     1      -8.642  10.038  65.141  1.00  0.00    -0.158 C  
HETATM   23  H1  UNL     1      -7.053  10.210  63.872  1.00  0.00     0.000 HD 
HETATM   24  N   UNL     1      -7.728  10.748  64.415  1.00  0.00    -0.350 N  
HETATM   25  O   UNL     1      -8.614   8.809  65.103  1.00  0.00    -0.175 OA 
HETATM   26  H2  UNL     1      -7.720  11.769  64.417  1.00  0.00     0.000 HD 
ENDBRANCH   9  22
ENDBRANCH   8   9
ENDBRANCH   7   8
ENDBRANCH   6   7
ENDBRANCH   4   6
ENDBRANCH   2   4
TORSDOF 6
ENDMDL
MODEL      170
REMARK 921   NORMALIZED FREE ENERGY PREDICTED BY IDOCK:   -3.55 KCAL/MOL
REMARK 922        TOTAL FREE ENERGY PREDICTED BY IDOCK:   -5.80 KCAL/MOL
REMARK 923 INTER-LIGAND FREE ENERGY PREDICTED BY IDOCK:   -4.55 KCAL/MOL
REMARK 924 INTRA-LIGAND FREE ENERGY PREDICTED BY IDOCK:   -1.25 KCAL/MOL
REMARK 927      BINDING AFFINITY PREDICTED BY RF-SCORE:    0.00 PKD
ROOT
HETATM    1  C   UNL     1     -11.910  12.936  67.194  1.00  0.00    -0.424 C  
HETATM    2  C   UNL     1     -11.531  12.879  68.675  1.00  0.00    -0.308 C  
HETATM    3  C   UNL     1     -12.136  11.632  69.320  1.00  0.00    -0.323 C  
ENDROOT
BRANCH   2   4
HETATM    4  N   UNL     1     -10.068  12.895  68.747  1.00  0.00    -0.421 NA 
HETATM    5  H   UNL     1      -9.743  12.373  69.562  1.00  0.00     0.000 HD 
BRANCH   4   6
HETATM    6  C   UNL     1      -9.409  12.415  67.536  1.00  0.00    -0.181 C  
BRANCH   6   7
HETATM    7  C   UNL     1      -8.742  11.063  67.789  1.00  0.00    -0.130 C  
BRANCH   7   8
HETATM    8  C   UNL     1      -8.089  10.940  69.181  1.00  0.00    -0.104 C  
BRANCH   8   9
HETATM    9  C   UNL     1      -7.863   9.485  69.670  1.00  0.00    -0.116 C  
HETATM   10  C   UNL     1      -7.564   8.559  68.481  1.00  0.00    -0.095 A  
HETATM   11  C   UNL     1      -9.167   8.879  70.205  1.00  0.00    -0.207 A  
HETATM   12  C   UNL     1      -9.918   9.288  71.299  1.00  0.00    -0.341 A  
HETATM   13  C   UNL     1      -6.492   8.612  67.600  1.00  0.00    -0.061 A  
HETATM   14  C   UNL     1     -11.129   8.639  71.540  1.00  0.00    -0.358 A  
HETATM   15  C   UNL     1     -11.571   7.609  70.694  1.00  0.00    -0.251 A  
HETATM   16  C   UNL     1     -10.801   7.193  69.601  1.00  0.00    -0.254 A  
HETATM   17  C   UNL     1      -6.478   7.716  66.532  1.00  0.00    -0.049 A  
HETATM   18  C   UNL     1      -7.520   6.791  66.357  1.00  0.00    -0.074 A  
HETATM   19  C   UNL     1      -8.595   6.740  67.254  1.00  0.00    -0.120 A  
HETATM   20  C   UNL     1      -8.612   7.626  68.318  1.00  0.00    -0.124 A  
HETATM   21  C   UNL     1      -9.593   7.825  69.367  1.00  0.00    -0.156 A  
BRANCH   9  22
HETATM   22  C   UNL     1      -6.735   9.435  70.722  1.00  0.00    -0.105 C  
HETATM   23  H1  UNL     1      -5.705   8.181  71.959  1.00  0.00     0.000 HD 
HETATM   24  N   UNL     1      -6.450   8.213  71.264  1.00  0.00    -0.038 N  
HETATM   25  O   UNL     1      -6.097  10.419  71.092  1.00  0.00    -0.309 OA 
HETATM   26  H2  UNL     1      -6.960   7.374  70.987  1.00  0.00     0.000 HD 
ENDBRANCH   9  22
ENDBRANCH   8   9
ENDBRANCH   7   8
ENDBRANCH   6   7
ENDBRANCH   4   6
ENDBRANCH   2   4
TORSDOF 6
ENDMDL
MODEL      171
REMARK 921   NORMALIZED FREE ENERGY PREDICTED BY IDOCK:   -3.51 KCAL/MOL
REMARK 922        TOTAL FREE ENERGY PREDICTED BY IDOCK:   -5.74 KCAL/MOL
REMARK 923 INTER-LIGAND FREE ENERGY PREDICTED BY IDOCK:   -4.62 KCAL/MOL
REMARK 924 INTRA-LIGAND FREE ENERGY PREDICTED BY IDOCK:   -1.12 KCAL/MOL
REMARK 927      BINDING AFFINITY PREDICTED BY RF-SCORE:    0.00 PKD
ROOT
HETATM    1  C   UNL     1     -10.161   3.707  72.567  1.00  0.00    -0.229 C  
HETATM    2  C   UNL     1     -10.073   5.229  72.690  1.00  0.00    -0.174 C  
HETATM    3  C   UNL     1      -8.610   5.671  72.651  1.00  0.00    -0.120 C  
ENDROOT
BRANCH   2   4
HETATM    4  N   UNL     1     -10.860   5.797  71.591  1.00  0.00    -0.255 NA 
HETATM    5  H   UNL     1     -11.473   5.089  71.186  1.00  0.00     0.000 HD 
BRANCH   4   6
HETATM    6  C   UNL     1     -11.624   6.984  71.961  1.00  0.00    -0.285 C  
BRANCH   6   7
HETATM    7  C   UNL     1     -11.411   8.098  70.936  1.00  0.00    -0.286 C  
BRANCH   7   8
HETATM    8  C   UNL     1     -10.097   8.882  71.130  1.00  0.00    -0.341 C  
BRANCH   8   9
HETATM    9  C   UNL     1      -9.313   9.176  69.824  1.00  0.00    -0.190 C  
HETATM   10  C   UNL     1     -10.024  10.262  69.002  1.00  0.00    -0.223 A  
HETATM   11  C   UNL     1      -9.379   7.980  68.865  1.00  0.00    -0.150 A  
HETATM   12  C   UNL     1      -8.877   6.699  69.054  1.00  0.00    -0.128 A  
HETATM   13  C   UNL     1     -10.270  11.583  69.356  1.00  0.00     0.153 A  
HETATM   14  C   UNL     1      -9.142   5.741  68.077  1.00  0.00    -0.110 A  
HETATM   15  C   UNL     1      -9.900   6.069  66.940  1.00  0.00    -0.190 A  
HETATM   16  C   UNL     1     -10.391   7.366  66.750  1.00  0.00    -0.321 A  
HETATM   17  C   UNL     1     -11.021  12.366  68.480  1.00  0.00    -0.277 A  
HETATM   18  C   UNL     1     -11.512  11.828  67.279  1.00  0.00    -0.373 A  
HETATM   19  C   UNL     1     -11.256  10.497  66.927  1.00  0.00     0.003 A  
HETATM   20  C   UNL     1     -10.507   9.716  67.793  1.00  0.00    -0.309 A  
HETATM   21  C   UNL     1     -10.118   8.322  67.711  1.00  0.00    -0.262 A  
BRANCH   9  22
HETATM   22  C   UNL     1      -7.856   9.573  70.143  1.00  0.00    -0.160 C  
HETATM   23  H1  UNL     1      -6.138  10.299  69.314  1.00  0.00     0.000 HD 
HETATM   24  N   UNL     1      -7.101  10.036  69.103  1.00  0.00    -0.064 N  
HETATM   25  O   UNL     1      -7.351   9.491  71.261  1.00  0.00    -0.331 OA 
HETATM   26  H2  UNL     1      -7.481  10.116  68.159  1.00  0.00     0.000 HD 
ENDBRANCH   9  22
ENDBRANCH   8   9
ENDBRANCH   7   8
ENDBRANCH   6   7
ENDBRANCH   4   6
ENDBRANCH   2   4
TORSDOF 6
ENDMDL
MODEL      172
REMARK 921   NORMALIZED FREE ENERGY PREDICTED BY IDOCK:   -3.50 KCAL/MOL
REMARK 922        TOTAL FREE ENERGY PREDICTED BY IDOCK:   -5.73 KCAL/MOL
REMARK 923 INTER-LIGAND FREE ENERGY PREDICTED BY IDOCK:   -5.48 KCAL/MOL
REMARK 924 INTRA-LIGAND FREE ENERGY PREDICTED BY IDOCK:   -0.25 KCAL/MOL
REMARK 927      BINDING AFFINITY PREDICTED BY RF-SCORE:    0.00 PKD
ROOT
HETATM    1  C   UNL     1     -11.066  15.333  64.631  1.00  0.00    -0.346 C  
HETATM    2  C   UNL     1     -11.372  13.865  64.932  1.00  0.00    -0.347 C  
HETATM    3  C   UNL     1     -12.733  13.747  65.618  1.00  0.00    -0.523 C  
ENDROOT
BRANCH   2   4
HETATM    4  N   UNL     1     -11.322  13.144  63.657  1.00  0.00    -0.606 NA 
HETATM    5  H   UNL     1     -10.854  13.705  62.945  1.00  0.00     0.000 HD 
BRANCH   4   6
HETATM    6  C   UNL     1     -10.714  11.820  63.747  1.00  0.00    -0.419 C  
BRANCH   6   7
HETATM    7  C   UNL     1     -10.007  11.647  65.092  1.00  0.00    -0.297 C  
BRANCH   7   8
HETATM    8  C   UNL     1     -10.471  10.409  65.886  1.00  0.00    -0.196 C  
BRANCH   8   9
HETATM    9  C   UNL     1      -9.336   9.629  66.599  1.00  0.00    -0.200 C  
HETATM   10  C   UNL     1      -8.124   9.470  65.668  1.00  0.00    -0.112 A  
HETATM   11  C   UNL     1      -9.736   8.165  66.826  1.00  0.00    -0.303 A  
HETATM   12  C   UNL     1     -10.771   7.669  67.609  1.00  0.00    -0.246 A  
HETATM   13  C   UNL     1      -7.329  10.466  65.117  1.00  0.00    -0.088 A  
HETATM   14  C   UNL     1     -11.007   6.296  67.587  1.00  0.00    -0.438 A  
HETATM   15  C   UNL     1     -10.222   5.446  66.790  1.00  0.00    -0.282 A  
HETATM   16  C   UNL     1      -9.172   5.952  66.014  1.00  0.00    -0.143 A  
HETATM   17  C   UNL     1      -6.333  10.087  64.218  1.00  0.00    -0.132 A  
HETATM   18  C   UNL     1      -6.148   8.736  63.881  1.00  0.00    -0.072 A  
HETATM   19  C   UNL     1      -6.951   7.737  64.445  1.00  0.00    -0.060 A  
HETATM   20  C   UNL     1      -7.939   8.109  65.342  1.00  0.00    -0.126 A  
HETATM   21  C   UNL     1      -8.926   7.312  66.044  1.00  0.00    -0.149 A  
BRANCH   9  22
HETATM   22  C   UNL     1      -8.944  10.326  67.920  1.00  0.00    -0.131 C  
HETATM   23  H1  UNL     1      -7.706  10.192  69.537  1.00  0.00     0.000 HD 
HETATM   24  N   UNL     1      -7.965   9.731  68.665  1.00  0.00    -0.088 N  
HETATM   25  O   UNL     1      -9.462  11.363  68.328  1.00  0.00    -0.174 OA 
HETATM   26  H2  UNL     1      -7.513   8.867  68.363  1.00  0.00     0.000 HD 
ENDBRANCH   9  22
ENDBRANCH   8   9
ENDBRANCH   7   8
ENDBRANCH   6   7
ENDBRANCH   4   6
ENDBRANCH   2   4
TORSDOF 6
ENDMDL
MODEL      173
REMARK 921   NORMALIZED FREE ENERGY PREDICTED BY IDOCK:   -3.49 KCAL/MOL
REMARK 922        TOTAL FREE ENERGY PREDICTED BY IDOCK:   -5.72 KCAL/MOL
REMARK 923 INTER-LIGAND FREE ENERGY PREDICTED BY IDOCK:   -4.44 KCAL/MOL
REMARK 924 INTRA-LIGAND FREE ENERGY PREDICTED BY IDOCK:   -1.28 KCAL/MOL
REMARK 927      BINDING AFFINITY PREDICTED BY RF-SCORE:    0.00 PKD
ROOT
HETATM    1  C   UNL     1      -7.407   4.797  66.540  1.00  0.00    -0.082 C  
HETATM    2  C   UNL     1      -8.923   4.836  66.735  1.00  0.00    -0.111 C  
HETATM    3  C   UNL     1      -9.267   4.552  68.197  1.00  0.00    -0.170 C  
ENDROOT
BRANCH   2   4
HETATM    4  N   UNL     1      -9.381   6.157  66.297  1.00  0.00    -0.205 NA 
HETATM    5  H   UNL     1      -9.294   6.249  65.284  1.00  0.00     0.000 HD 
BRANCH   4   6
HETATM    6  C   UNL     1     -10.736   6.489  66.727  1.00  0.00    -0.273 C  
BRANCH   6   7
HETATM    7  C   UNL     1     -10.814   7.950  67.170  1.00  0.00    -0.187 C  
BRANCH   7   8
HETATM    8  C   UNL     1      -9.865   8.301  68.335  1.00  0.00    -0.187 C  
BRANCH   8   9
HETATM    9  C   UNL     1      -9.054   9.609  68.144  1.00  0.00    -0.123 C  
HETATM   10  C   UNL     1      -9.927  10.694  67.496  1.00  0.00    -0.201 A  
HETATM   11  C   UNL     1      -7.961   9.426  67.083  1.00  0.00    -0.102 A  
HETATM   12  C   UNL     1      -6.864   8.575  67.117  1.00  0.00    -0.067 A  
HETATM   13  C   UNL     1     -11.082  11.280  67.997  1.00  0.00    -0.325 A  
HETATM   14  C   UNL     1      -6.052   8.508  65.987  1.00  0.00    -0.048 A  
HETATM   15  C   UNL     1      -6.344   9.277  64.848  1.00  0.00    -0.067 A  
HETATM   16  C   UNL     1      -7.444  10.143  64.826  1.00  0.00    -0.136 A  
HETATM   17  C   UNL     1     -11.764  12.184  67.184  1.00  0.00    -0.372 A  
HETATM   18  C   UNL     1     -11.292  12.487  65.896  1.00  0.00    -0.380 A  
HETATM   19  C   UNL     1     -10.124  11.897  65.400  1.00  0.00    -0.285 A  
HETATM   20  C   UNL     1      -9.441  11.000  66.206  1.00  0.00    -0.219 A  
HETATM   21  C   UNL     1      -8.245  10.222  65.951  1.00  0.00    -0.148 A  
BRANCH   9  22
HETATM   22  C   UNL     1      -8.469  10.086  69.490  1.00  0.00    -0.176 C  
HETATM   23  H1  UNL     1      -7.425  11.599  70.378  1.00  0.00     0.000 HD 
HETATM   24  N   UNL     1      -7.811  11.284  69.488  1.00  0.00    -0.363 N  
HETATM   25  O   UNL     1      -8.558   9.453  70.541  1.00  0.00    -0.206 OA 
HETATM   26  H2  UNL     1      -7.711  11.837  68.636  1.00  0.00     0.000 HD 
ENDBRANCH   9  22
ENDBRANCH   8   9
ENDBRANCH   7   8
ENDBRANCH   6   7
ENDBRANCH   4   6
ENDBRANCH   2   4
TORSDOF 6
ENDMDL
MODEL      174
REMARK 921   NORMALIZED FREE ENERGY PREDICTED BY IDOCK:   -3.49 KCAL/MOL
REMARK 922        TOTAL FREE ENERGY PREDICTED BY IDOCK:   -5.72 KCAL/MOL
REMARK 923 INTER-LIGAND FREE ENERGY PREDICTED BY IDOCK:   -5.63 KCAL/MOL
REMARK 924 INTRA-LIGAND FREE ENERGY PREDICTED BY IDOCK:   -0.09 KCAL/MOL
REMARK 927      BINDING AFFINITY PREDICTED BY RF-SCORE:    0.00 PKD
ROOT
HETATM    1  C   UNL     1      -9.506   9.732  64.854  1.00  0.00    -0.331 C  
HETATM    2  C   UNL     1      -9.034  10.942  64.046  1.00  0.00    -0.102 C  
HETATM    3  C   UNL     1      -9.081  10.622  62.552  1.00  0.00    -0.326 C  
ENDROOT
BRANCH   2   4
HETATM    4  N   UNL     1      -9.901  12.067  64.407  1.00  0.00    -0.440 NA 
HETATM    5  H   UNL     1      -9.923  12.758  63.657  1.00  0.00     0.000 HD 
BRANCH   4   6
HETATM    6  C   UNL     1     -11.256  11.675  64.782  1.00  0.00    -0.234 C  
BRANCH   6   7
HETATM    7  C   UNL     1     -11.704  12.430  66.034  1.00  0.00    -0.469 C  
BRANCH   7   8
HETATM    8  C   UNL     1     -10.697  13.496  66.515  1.00  0.00    -0.287 C  
BRANCH   8   9
HETATM    9  C   UNL     1     -10.138  13.268  67.943  1.00  0.00    -0.235 C  
HETATM   10  C   UNL     1     -10.993  14.009  68.981  1.00  0.00    -0.287 A  
HETATM   11  C   UNL     1      -8.781  13.963  68.117  1.00  0.00    -0.182 A  
HETATM   12  C   UNL     1      -7.592  13.704  67.449  1.00  0.00    -0.144 A  
HETATM   13  C   UNL     1     -12.333  13.811  69.288  1.00  0.00    -0.185 A  
HETATM   14  C   UNL     1      -6.502  14.535  67.706  1.00  0.00    -0.181 A  
HETATM   15  C   UNL     1      -6.615  15.604  68.611  1.00  0.00    -0.110 A  
HETATM   16  C   UNL     1      -7.814  15.850  69.291  1.00  0.00    -0.226 A  
HETATM   17  C   UNL     1     -12.928  14.673  70.208  1.00  0.00    -0.166 A  
HETATM   18  C   UNL     1     -12.189  15.710  70.802  1.00  0.00    -0.463 A  
HETATM   19  C   UNL     1     -10.837  15.899  70.491  1.00  0.00    -0.283 A  
HETATM   20  C   UNL     1     -10.241  15.043  69.580  1.00  0.00    -0.198 A  
HETATM   21  C   UNL     1      -8.892  15.019  69.049  1.00  0.00    -0.205 A  
BRANCH   9  22
HETATM   22  C   UNL     1     -10.051  11.759  68.257  1.00  0.00    -0.197 C  
HETATM   23  H1  UNL     1     -10.913  10.261  69.343  1.00  0.00     0.000 HD 
HETATM   24  N   UNL     1     -10.970  11.258  69.136  1.00  0.00    -0.227 N  
HETATM   25  O   UNL     1      -9.212  11.003  67.771  1.00  0.00    -0.150 OA 
HETATM   26  H2  UNL     1     -11.680  11.853  69.564  1.00  0.00     0.000 HD 
ENDBRANCH   9  22
ENDBRANCH   8   9
ENDBRANCH   7   8
ENDBRANCH   6   7
ENDBRANCH   4   6
ENDBRANCH   2   4
TORSDOF 6
ENDMDL
MODEL      175
REMARK 921   NORMALIZED FREE ENERGY PREDICTED BY IDOCK:   -3.49 KCAL/MOL
REMARK 922        TOTAL FREE ENERGY PREDICTED BY IDOCK:   -5.72 KCAL/MOL
REMARK 923 INTER-LIGAND FREE ENERGY PREDICTED BY IDOCK:   -5.39 KCAL/MOL
REMARK 924 INTRA-LIGAND FREE ENERGY PREDICTED BY IDOCK:   -0.33 KCAL/MOL
REMARK 927      BINDING AFFINITY PREDICTED BY RF-SCORE:    0.00 PKD
ROOT
HETATM    1  C   UNL     1     -10.431  13.605  64.872  1.00  0.00    -0.426 C  
HETATM    2  C   UNL     1     -11.669  12.771  64.537  1.00  0.00    -0.366 C  
HETATM    3  C   UNL     1     -11.283  11.613  63.616  1.00  0.00    -0.497 C  
ENDROOT
BRANCH   2   4
HETATM    4  N   UNL     1     -12.238  12.312  65.807  1.00  0.00    -0.603 NA 
HETATM    5  H   UNL     1     -12.544  11.342  65.734  1.00  0.00     0.000 HD 
BRANCH   4   6
HETATM    6  C   UNL     1     -11.348  12.484  66.952  1.00  0.00    -0.326 C  
BRANCH   6   7
HETATM    7  C   UNL     1     -10.977  11.126  67.548  1.00  0.00    -0.331 C  
BRANCH   7   8
HETATM    8  C   UNL     1      -9.665  11.139  68.360  1.00  0.00    -0.191 C  
BRANCH   8   9
HETATM    9  C   UNL     1      -8.691   9.974  68.043  1.00  0.00    -0.125 C  
HETATM   10  C   UNL     1      -9.441   8.633  68.028  1.00  0.00    -0.154 A  
HETATM   11  C   UNL     1      -7.704   9.756  69.197  1.00  0.00    -0.092 A  
HETATM   12  C   UNL     1      -6.738  10.631  69.678  1.00  0.00    -0.116 A  
HETATM   13  C   UNL     1     -10.468   8.233  67.184  1.00  0.00    -0.386 A  
HETATM   14  C   UNL     1      -6.016  10.251  70.808  1.00  0.00    -0.086 A  
HETATM   15  C   UNL     1      -6.268   9.021  71.439  1.00  0.00    -0.071 A  
HETATM   16  C   UNL     1      -7.234   8.139  70.940  1.00  0.00    -0.055 A  
HETATM   17  C   UNL     1     -11.065   6.996  67.419  1.00  0.00    -0.265 A  
HETATM   18  C   UNL     1     -10.637   6.184  68.483  1.00  0.00    -0.327 A  
HETATM   19  C   UNL     1      -9.597   6.592  69.327  1.00  0.00    -0.145 A  
HETATM   20  C   UNL     1      -8.999   7.820  69.094  1.00  0.00    -0.145 A  
HETATM   21  C   UNL     1      -7.943   8.507  69.811  1.00  0.00    -0.103 A  
BRANCH   9  22
HETATM   22  C   UNL     1      -7.961  10.226  66.706  1.00  0.00    -0.114 C  
HETATM   23  H1  UNL     1      -7.327  11.695  65.439  1.00  0.00     0.000 HD 
HETATM   24  N   UNL     1      -7.809  11.529  66.322  1.00  0.00    -0.370 N  
HETATM   25  O   UNL     1      -7.524   9.333  65.983  1.00  0.00    -0.093 OA 
HETATM   26  H2  UNL     1      -8.162  12.299  66.891  1.00  0.00     0.000 HD 
ENDBRANCH   9  22
ENDBRANCH   8   9
ENDBRANCH   7   8
ENDBRANCH   6   7
ENDBRANCH   4   6
ENDBRANCH   2   4
TORSDOF 6
ENDMDL
MODEL      176
REMARK 921   NORMALIZED FREE ENERGY PREDICTED BY IDOCK:   -3.47 KCAL/MOL
REMARK 922        TOTAL FREE ENERGY PREDICTED BY IDOCK:   -5.69 KCAL/MOL
REMARK 923 INTER-LIGAND FREE ENERGY PREDICTED BY IDOCK:   -5.47 KCAL/MOL
REMARK 924 INTRA-LIGAND FREE ENERGY PREDICTED BY IDOCK:   -0.23 KCAL/MOL
REMARK 927      BINDING AFFINITY PREDICTED BY RF-SCORE:    0.00 PKD
ROOT
HETATM    1  C   UNL     1      -7.418   3.201  66.104  1.00  0.00    -0.076 C  
HETATM    2  C   UNL     1      -8.916   3.432  66.311  1.00  0.00    -0.147 C  
HETATM    3  C   UNL     1      -9.377   2.733  67.591  1.00  0.00    -0.222 C  
ENDROOT
BRANCH   2   4
HETATM    4  N   UNL     1      -9.127   4.881  66.356  1.00  0.00    -0.123 NA 
HETATM    5  H   UNL     1      -8.516   5.353  65.689  1.00  0.00     0.000 HD 
BRANCH   4   6
HETATM    6  C   UNL     1     -10.515   5.285  66.154  1.00  0.00    -0.206 C  
BRANCH   6   7
HETATM    7  C   UNL     1     -10.937   6.298  67.219  1.00  0.00    -0.455 C  
BRANCH   7   8
HETATM    8  C   UNL     1     -10.457   5.946  68.641  1.00  0.00    -0.302 C  
BRANCH   8   9
HETATM    9  C   UNL     1      -9.693   7.082  69.372  1.00  0.00    -0.159 C  
HETATM   10  C   UNL     1      -9.954   7.019  70.885  1.00  0.00    -0.200 A  
HETATM   11  C   UNL     1     -10.283   8.453  69.019  1.00  0.00    -0.217 A  
HETATM   12  C   UNL     1     -10.326   9.077  67.780  1.00  0.00    -0.304 A  
HETATM   13  C   UNL     1      -9.632   5.998  71.769  1.00  0.00    -0.168 A  
HETATM   14  C   UNL     1     -11.004  10.291  67.681  1.00  0.00    -0.356 A  
HETATM   15  C   UNL     1     -11.629  10.856  68.805  1.00  0.00    -0.378 A  
HETATM   16  C   UNL     1     -11.570  10.228  70.055  1.00  0.00    -0.349 A  
HETATM   17  C   UNL     1     -10.054   6.122  73.093  1.00  0.00    -0.199 A  
HETATM   18  C   UNL     1     -10.784   7.247  73.510  1.00  0.00    -0.367 A  
HETATM   19  C   UNL     1     -11.100   8.274  72.613  1.00  0.00    -0.400 A  
HETATM   20  C   UNL     1     -10.680   8.157  71.298  1.00  0.00    -0.270 A  
HETATM   21  C   UNL     1     -10.886   9.030  70.159  1.00  0.00    -0.261 A  
BRANCH   9  22
HETATM   22  C   UNL     1      -8.184   7.011  69.056  1.00  0.00    -0.125 C  
HETATM   23  H1  UNL     1      -6.328   7.165  69.891  1.00  0.00     0.000 HD 
HETATM   24  N   UNL     1      -7.325   7.213  70.100  1.00  0.00    -0.078 N  
HETATM   25  O   UNL     1      -7.726   6.791  67.936  1.00  0.00    -0.107 OA 
HETATM   26  H2  UNL     1      -7.665   7.402  71.043  1.00  0.00     0.000 HD 
ENDBRANCH   9  22
ENDBRANCH   8   9
ENDBRANCH   7   8
ENDBRANCH   6   7
ENDBRANCH   4   6
ENDBRANCH   2   4
TORSDOF 6
ENDMDL
MODEL      177
REMARK 921   NORMALIZED FREE ENERGY PREDICTED BY IDOCK:   -3.46 KCAL/MOL
REMARK 922        TOTAL FREE ENERGY PREDICTED BY IDOCK:   -5.68 KCAL/MOL
REMARK 923 INTER-LIGAND FREE ENERGY PREDICTED BY IDOCK:   -5.42 KCAL/MOL
REMARK 924 INTRA-LIGAND FREE ENERGY PREDICTED BY IDOCK:   -0.27 KCAL/MOL
REMARK 927      BINDING AFFINITY PREDICTED BY RF-SCORE:    0.00 PKD
ROOT
HETATM    1  C   UNL     1     -10.327  16.931  68.260  1.00  0.00    -0.335 C  
HETATM    2  C   UNL     1      -9.433  16.638  67.054  1.00  0.00    -0.230 C  
HETATM    3  C   UNL     1      -8.614  17.879  66.699  1.00  0.00    -0.283 C  
ENDROOT
BRANCH   2   4
HETATM    4  N   UNL     1      -8.591  15.492  67.407  1.00  0.00    -0.169 NA 
HETATM    5  H   UNL     1      -7.698  15.806  67.786  1.00  0.00     0.000 HD 
BRANCH   4   6
HETATM    6  C   UNL     1      -9.229  14.547  68.319  1.00  0.00    -0.201 C  
BRANCH   6   7
HETATM    7  C   UNL     1      -8.866  13.110  67.940  1.00  0.00    -0.196 C  
BRANCH   7   8
HETATM    8  C   UNL     1      -8.887  12.841  66.422  1.00  0.00     0.035 C  
BRANCH   8   9
HETATM    9  C   UNL     1     -10.066  11.960  65.931  1.00  0.00    -0.265 C  
HETATM   10  C   UNL     1     -10.265  10.758  66.867  1.00  0.00    -0.274 A  
HETATM   11  C   UNL     1      -9.716  11.262  64.611  1.00  0.00    -0.294 A  
HETATM   12  C   UNL     1      -9.441  11.841  63.379  1.00  0.00    -0.179 A  
HETATM   13  C   UNL     1     -10.604  10.765  68.214  1.00  0.00    -0.233 A  
HETATM   14  C   UNL     1      -9.051  11.005  62.335  1.00  0.00    -0.328 A  
HETATM   15  C   UNL     1      -8.934   9.618  62.533  1.00  0.00    -0.280 A  
HETATM   16  C   UNL     1      -9.226   9.040  63.774  1.00  0.00     0.460 A  
HETATM   17  C   UNL     1     -10.638   9.545  68.886  1.00  0.00    -0.239 A  
HETATM   18  C   UNL     1     -10.336   8.348  68.216  1.00  0.00    -0.244 A  
HETATM   19  C   UNL     1     -10.000   8.348  66.857  1.00  0.00    -0.341 A  
HETATM   20  C   UNL     1      -9.968   9.559  66.184  1.00  0.00    -0.342 A  
HETATM   21  C   UNL     1      -9.627   9.866  64.808  1.00  0.00    -0.339 A  
BRANCH   9  22
HETATM   22  C   UNL     1     -11.356  12.800  65.809  1.00  0.00    -0.320 C  
HETATM   23  H1  UNL     1     -12.071  14.632  65.262  1.00  0.00     0.000 HD 
HETATM   24  N   UNL     1     -11.219  14.077  65.343  1.00  0.00    -0.311 N  
HETATM   25  O   UNL     1     -12.475  12.387  66.109  1.00  0.00    -0.507 OA 
HETATM   26  H2  UNL     1     -10.307  14.459  65.088  1.00  0.00     0.000 HD 
ENDBRANCH   9  22
ENDBRANCH   8   9
ENDBRANCH   7   8
ENDBRANCH   6   7
ENDBRANCH   4   6
ENDBRANCH   2   4
TORSDOF 6
ENDMDL
MODEL      178
REMARK 921   NORMALIZED FREE ENERGY PREDICTED BY IDOCK:   -3.46 KCAL/MOL
REMARK 922        TOTAL FREE ENERGY PREDICTED BY IDOCK:   -5.68 KCAL/MOL
REMARK 923 INTER-LIGAND FREE ENERGY PREDICTED BY IDOCK:   -4.54 KCAL/MOL
REMARK 924 INTRA-LIGAND FREE ENERGY PREDICTED BY IDOCK:   -1.14 KCAL/MOL
REMARK 927      BINDING AFFINITY PREDICTED BY RF-SCORE:    0.00 PKD
ROOT
HETATM    1  C   UNL     1     -13.299   9.051  71.641  1.00  0.00    -0.433 C  
HETATM    2  C   UNL     1     -12.942   7.591  71.928  1.00  0.00    -0.264 C  
HETATM    3  C   UNL     1     -12.658   6.857  70.617  1.00  0.00    -0.099 C  
ENDROOT
BRANCH   2   4
HETATM    4  N   UNL     1     -11.786   7.599  72.829  1.00  0.00    -0.593 NA 
HETATM    5  H   UNL     1     -11.473   6.647  73.019  1.00  0.00     0.000 HD 
BRANCH   4   6
HETATM    6  C   UNL     1     -10.674   8.420  72.360  1.00  0.00    -0.335 C  
BRANCH   6   7
HETATM    7  C   UNL     1      -9.434   7.557  72.125  1.00  0.00    -0.185 C  
BRANCH   7   8
HETATM    8  C   UNL     1      -8.456   8.140  71.085  1.00  0.00    -0.146 C  
BRANCH   8   9
HETATM    9  C   UNL     1      -7.967   7.133  70.012  1.00  0.00    -0.118 C  
HETATM   10  C   UNL     1      -8.927   7.116  68.813  1.00  0.00    -0.128 A  
HETATM   11  C   UNL     1      -8.091   5.690  70.519  1.00  0.00    -0.105 A  
HETATM   12  C   UNL     1      -7.435   5.096  71.589  1.00  0.00    -0.096 A  
HETATM   13  C   UNL     1      -9.235   8.156  67.945  1.00  0.00    -0.138 A  
HETATM   14  C   UNL     1      -7.781   3.788  71.926  1.00  0.00    -0.058 A  
HETATM   15  C   UNL     1      -8.770   3.101  71.202  1.00  0.00    -0.123 A  
HETATM   16  C   UNL     1      -9.418   3.701  70.116  1.00  0.00    -0.258 A  
HETATM   17  C   UNL     1     -10.214   7.933  66.978  1.00  0.00    -0.382 A  
HETATM   18  C   UNL     1     -10.866   6.692  66.890  1.00  0.00    -0.415 A  
HETATM   19  C   UNL     1     -10.547   5.647  67.766  1.00  0.00    -0.274 A  
HETATM   20  C   UNL     1      -9.572   5.863  68.727  1.00  0.00    -0.152 A  
HETATM   21  C   UNL     1      -9.067   4.994  69.771  1.00  0.00    -0.155 A  
BRANCH   9  22
HETATM   22  C   UNL     1      -6.524   7.463  69.575  1.00  0.00    -0.036 C  
HETATM   23  H1  UNL     1      -5.098   7.034  68.179  1.00  0.00     0.000 HD 
HETATM   24  N   UNL     1      -6.051   6.816  68.468  1.00  0.00    -0.025 N  
HETATM   25  O   UNL     1      -5.793   8.258  70.163  1.00  0.00    -0.025 OA 
HETATM   26  H2  UNL     1      -6.625   6.145  67.955  1.00  0.00     0.000 HD 
ENDBRANCH   9  22
ENDBRANCH   8   9
ENDBRANCH   7   8
ENDBRANCH   6   7
ENDBRANCH   4   6
ENDBRANCH   2   4
TORSDOF 6
ENDMDL
MODEL      179
REMARK 921   NORMALIZED FREE ENERGY PREDICTED BY IDOCK:   -3.46 KCAL/MOL
REMARK 922        TOTAL FREE ENERGY PREDICTED BY IDOCK:   -5.68 KCAL/MOL
REMARK 923 INTER-LIGAND FREE ENERGY PREDICTED BY IDOCK:   -4.61 KCAL/MOL
REMARK 924 INTRA-LIGAND FREE ENERGY PREDICTED BY IDOCK:   -1.07 KCAL/MOL
REMARK 927      BINDING AFFINITY PREDICTED BY RF-SCORE:    0.00 PKD
ROOT
HETATM    1  C   UNL     1     -10.027  14.315  66.023  1.00  0.00    -0.337 C  
HETATM    2  C   UNL     1     -11.286  13.715  66.652  1.00  0.00    -0.313 C  
HETATM    3  C   UNL     1     -12.097  12.974  65.588  1.00  0.00    -0.507 C  
ENDROOT
BRANCH   2   4
HETATM    4  N   UNL     1     -10.848  12.835  67.738  1.00  0.00    -0.220 NA 
HETATM    5  H   UNL     1     -10.833  13.339  68.625  1.00  0.00     0.000 HD 
BRANCH   4   6
HETATM    6  C   UNL     1     -11.630  11.608  67.860  1.00  0.00    -0.298 C  
BRANCH   6   7
HETATM    7  C   UNL     1     -10.832  10.536  68.603  1.00  0.00    -0.276 C  
BRANCH   7   8
HETATM    8  C   UNL     1     -11.020   9.114  68.038  1.00  0.00    -0.032 C  
BRANCH   8   9
HETATM    9  C   UNL     1      -9.704   8.331  67.792  1.00  0.00    -0.194 C  
HETATM   10  C   UNL     1      -8.982   8.060  69.121  1.00  0.00    -0.145 A  
HETATM   11  C   UNL     1      -8.675   9.203  67.061  1.00  0.00    -0.131 A  
HETATM   12  C   UNL     1      -8.763   9.750  65.788  1.00  0.00    -0.160 A  
HETATM   13  C   UNL     1      -9.427   7.312  70.203  1.00  0.00    -0.165 A  
HETATM   14  C   UNL     1      -7.739  10.597  65.367  1.00  0.00    -0.051 A  
HETATM   15  C   UNL     1      -6.657  10.889  66.215  1.00  0.00    -0.126 A  
HETATM   16  C   UNL     1      -6.569  10.323  67.492  1.00  0.00    -0.067 A  
HETATM   17  C   UNL     1      -8.634   7.282  71.349  1.00  0.00    -0.115 A  
HETATM   18  C   UNL     1      -7.423   7.992  71.401  1.00  0.00    -0.071 A  
HETATM   19  C   UNL     1      -6.978   8.739  70.304  1.00  0.00    -0.043 A  
HETATM   20  C   UNL     1      -7.762   8.769  69.162  1.00  0.00    -0.093 A  
HETATM   21  C   UNL     1      -7.576   9.471  67.907  1.00  0.00    -0.087 A  
BRANCH   9  22
HETATM   22  C   UNL     1      -9.988   7.020  67.027  1.00  0.00    -0.210 C  
HETATM   23  H1  UNL     1     -11.482   5.766  66.426  1.00  0.00     0.000 HD 
HETATM   24  N   UNL     1     -11.295   6.632  66.931  1.00  0.00    -0.824 N  
HETATM   25  O   UNL     1      -9.115   6.320  66.516  1.00  0.00    -0.143 OA 
HETATM   26  H2  UNL     1     -12.048   7.182  67.345  1.00  0.00     0.000 HD 
ENDBRANCH   9  22
ENDBRANCH   8   9
ENDBRANCH   7   8
ENDBRANCH   6   7
ENDBRANCH   4   6
ENDBRANCH   2   4
TORSDOF 6
ENDMDL
MODEL      180
REMARK 921   NORMALIZED FREE ENERGY PREDICTED BY IDOCK:   -3.43 KCAL/MOL
REMARK 922        TOTAL FREE ENERGY PREDICTED BY IDOCK:   -5.64 KCAL/MOL
REMARK 923 INTER-LIGAND FREE ENERGY PREDICTED BY IDOCK:   -5.25 KCAL/MOL
REMARK 924 INTRA-LIGAND FREE ENERGY PREDICTED BY IDOCK:   -0.39 KCAL/MOL
REMARK 927      BINDING AFFINITY PREDICTED BY RF-SCORE:    0.00 PKD
ROOT
HETATM    1  C   UNL     1     -11.592   8.305  72.364  1.00  0.00    -0.464 C  
HETATM    2  C   UNL     1     -12.713   9.011  71.600  1.00  0.00    -0.358 C  
HETATM    3  C   UNL     1     -13.966   9.093  72.473  1.00  0.00    -0.453 C  
ENDROOT
BRANCH   2   4
HETATM    4  N   UNL     1     -12.209  10.332  71.215  1.00  0.00    -0.376 NA 
HETATM    5  H   UNL     1     -11.258  10.467  71.559  1.00  0.00     0.000 HD 
BRANCH   4   6
HETATM    6  C   UNL     1     -12.279  10.599  69.782  1.00  0.00    -0.247 C  
BRANCH   6   7
HETATM    7  C   UNL     1     -10.883  10.875  69.221  1.00  0.00    -0.286 C  
BRANCH   7   8
HETATM    8  C   UNL     1     -10.779  10.700  67.692  1.00  0.00    -0.315 C  
BRANCH   8   9
HETATM    9  C   UNL     1      -9.372  10.974  67.099  1.00  0.00    -0.177 C  
HETATM   10  C   UNL     1      -8.284  10.718  68.153  1.00  0.00    -0.119 A  
HETATM   11  C   UNL     1      -9.177  12.470  66.819  1.00  0.00    -0.217 A  
HETATM   12  C   UNL     1      -9.873  13.275  65.928  1.00  0.00    -0.241 A  
HETATM   13  C   UNL     1      -7.972   9.526  68.793  1.00  0.00    -0.088 A  
HETATM   14  C   UNL     1      -9.584  14.638  65.914  1.00  0.00    -0.303 A  
HETATM   15  C   UNL     1      -8.620  15.175  66.784  1.00  0.00    -0.297 A  
HETATM   16  C   UNL     1      -7.913  14.355  67.671  1.00  0.00    -0.191 A  
HETATM   17  C   UNL     1      -6.999   9.553  69.790  1.00  0.00    -0.071 A  
HETATM   18  C   UNL     1      -6.358  10.755  70.134  1.00  0.00    -0.147 A  
HETATM   19  C   UNL     1      -6.675  11.952  69.481  1.00  0.00    -0.054 A  
HETATM   20  C   UNL     1      -7.639  11.929  68.487  1.00  0.00    -0.127 A  
HETATM   21  C   UNL     1      -8.187  13.000  67.677  1.00  0.00    -0.171 A  
BRANCH   9  22
HETATM   22  C   UNL     1      -9.143  10.121  65.833  1.00  0.00    -0.156 C  
HETATM   23  H1  UNL     1      -7.714   9.131  64.763  1.00  0.00     0.000 HD 
HETATM   24  N   UNL     1      -7.865   9.694  65.600  1.00  0.00    -0.104 N  
HETATM   25  O   UNL     1     -10.031   9.818  65.039  1.00  0.00    -0.286 OA 
HETATM   26  H2  UNL     1      -7.099   9.928  66.232  1.00  0.00     0.000 HD 
ENDBRANCH   9  22
ENDBRANCH   8   9
ENDBRANCH   7   8
ENDBRANCH   6   7
ENDBRANCH   4   6
ENDBRANCH   2   4
TORSDOF 6
ENDMDL
MODEL      181
REMARK 921   NORMALIZED FREE ENERGY PREDICTED BY IDOCK:   -3.40 KCAL/MOL
REMARK 922        TOTAL FREE ENERGY PREDICTED BY IDOCK:   -5.61 KCAL/MOL
REMARK 923 INTER-LIGAND FREE ENERGY PREDICTED BY IDOCK:   -4.90 KCAL/MOL
REMARK 924 INTRA-LIGAND FREE ENERGY PREDICTED BY IDOCK:   -0.70 KCAL/MOL
REMARK 927      BINDING AFFINITY PREDICTED BY RF-SCORE:    0.00 PKD
ROOT
HETATM    1  C   UNL     1      -5.207  17.337  67.924  1.00  0.00    -0.120 C  
HETATM    2  C   UNL     1      -6.433  16.554  67.451  1.00  0.00    -0.166 C  
HETATM    3  C   UNL     1      -6.015  15.152  67.006  1.00  0.00     0.806 C  
ENDROOT
BRANCH   2   4
HETATM    4  N   UNL     1      -7.386  16.530  68.564  1.00  0.00    -0.176 NA 
HETATM    5  H   UNL     1      -8.343  16.607  68.219  1.00  0.00     0.000 HD 
BRANCH   4   6
HETATM    6  C   UNL     1      -7.249  15.368  69.437  1.00  0.00    -0.203 C  
BRANCH   6   7
HETATM    7  C   UNL     1      -8.540  14.548  69.444  1.00  0.00     0.199 C  
BRANCH   7   8
HETATM    8  C   UNL     1      -9.665  15.163  70.300  1.00  0.00     0.313 C  
BRANCH   8   9
HETATM    9  C   UNL     1     -10.996  15.415  69.546  1.00  0.00    -0.276 C  
HETATM   10  C   UNL     1     -11.343  14.216  68.650  1.00  0.00    -0.306 A  
HETATM   11  C   UNL     1     -10.834  16.532  68.507  1.00  0.00    -0.349 A  
HETATM   12  C   UNL     1     -10.532  17.870  68.724  1.00  0.00    -0.217 A  
HETATM   13  C   UNL     1     -11.606  12.907  69.032  1.00  0.00    -0.372 A  
HETATM   14  C   UNL     1     -10.338  18.686  67.611  1.00  0.00    -0.455 A  
HETATM   15  C   UNL     1     -10.441  18.162  66.311  1.00  0.00    -0.374 A  
HETATM   16  C   UNL     1     -10.760  16.815  66.100  1.00  0.00    -0.116 A  
HETATM   17  C   UNL     1     -11.806  11.960  68.028  1.00  0.00    -0.323 A  
HETATM   18  C   UNL     1     -11.739  12.325  66.674  1.00  0.00    -0.417 A  
HETATM   19  C   UNL     1     -11.478  13.648  66.297  1.00  0.00    -0.352 A  
HETATM   20  C   UNL     1     -11.282  14.593  67.291  1.00  0.00    -0.344 A  
HETATM   21  C   UNL     1     -10.966  16.006  67.202  1.00  0.00    -0.183 A  
BRANCH   9  22
HETATM   22  C   UNL     1     -12.135  15.722  70.542  1.00  0.00    -0.374 C  
HETATM   23  H1  UNL     1     -14.136  15.481  70.866  1.00  0.00     0.000 HD 
HETATM   24  N   UNL     1     -13.384  15.279  70.207  1.00  0.00    -0.632 N  
HETATM   25  O   UNL     1     -11.979  16.336  71.596  1.00  0.00    -0.468 OA 
HETATM   26  H2  UNL     1     -13.556  14.769  69.340  1.00  0.00     0.000 HD 
ENDBRANCH   9  22
ENDBRANCH   8   9
ENDBRANCH   7   8
ENDBRANCH   6   7
ENDBRANCH   4   6
ENDBRANCH   2   4
TORSDOF 6
ENDMDL
MODEL      182
REMARK 921   NORMALIZED FREE ENERGY PREDICTED BY IDOCK:   -3.40 KCAL/MOL
REMARK 922        TOTAL FREE ENERGY PREDICTED BY IDOCK:   -5.60 KCAL/MOL
REMARK 923 INTER-LIGAND FREE ENERGY PREDICTED BY IDOCK:   -4.69 KCAL/MOL
REMARK 924 INTRA-LIGAND FREE ENERGY PREDICTED BY IDOCK:   -0.90 KCAL/MOL
REMARK 927      BINDING AFFINITY PREDICTED BY RF-SCORE:    0.00 PKD
ROOT
HETATM    1  C   UNL     1      -8.678   7.523  73.036  1.00  0.00    -0.195 C  
HETATM    2  C   UNL     1      -9.680   7.235  71.916  1.00  0.00    -0.155 C  
HETATM    3  C   UNL     1     -10.210   5.807  72.046  1.00  0.00    -0.245 C  
ENDROOT
BRANCH   2   4
HETATM    4  N   UNL     1     -10.742   8.239  72.017  1.00  0.00    -0.273 NA 
HETATM    5  H   UNL     1     -10.475   8.979  72.667  1.00  0.00     0.000 HD 
BRANCH   4   6
HETATM    6  C   UNL     1     -11.146   8.807  70.734  1.00  0.00    -0.260 C  
BRANCH   6   7
HETATM    7  C   UNL     1     -10.169   9.901  70.302  1.00  0.00    -0.322 C  
BRANCH   7   8
HETATM    8  C   UNL     1     -10.756  10.892  69.276  1.00  0.00    -0.271 C  
BRANCH   8   9
HETATM    9  C   UNL     1      -9.997  10.957  67.925  1.00  0.00    -0.195 C  
HETATM   10  C   UNL     1      -9.684   9.542  67.414  1.00  0.00    -0.201 A  
HETATM   11  C   UNL     1      -8.586  11.529  68.115  1.00  0.00    -0.156 A  
HETATM   12  C   UNL     1      -8.225  12.797  68.550  1.00  0.00    -0.068 A  
HETATM   13  C   UNL     1     -10.578   8.540  67.061  1.00  0.00    -0.305 A  
HETATM   14  C   UNL     1      -6.870  13.062  68.741  1.00  0.00    -0.102 A  
HETATM   15  C   UNL     1      -5.905  12.068  68.504  1.00  0.00    -0.052 A  
HETATM   16  C   UNL     1      -6.276  10.796  68.053  1.00  0.00    -0.057 A  
HETATM   17  C   UNL     1     -10.060   7.294  66.711  1.00  0.00    -0.291 A  
HETATM   18  C   UNL     1      -8.674   7.066  66.719  1.00  0.00    -0.124 A  
HETATM   19  C   UNL     1      -7.779   8.083  67.071  1.00  0.00    -0.100 A  
HETATM   20  C   UNL     1      -8.289   9.324  67.417  1.00  0.00    -0.122 A  
HETATM   21  C   UNL     1      -7.619  10.534  67.850  1.00  0.00    -0.092 A  
BRANCH   9  22
HETATM   22  C   UNL     1     -10.806  11.765  66.887  1.00  0.00    -0.271 C  
HETATM   23  H1  UNL     1     -10.689  12.657  65.055  1.00  0.00     0.000 HD 
HETATM   24  N   UNL     1     -10.154  12.123  65.740  1.00  0.00    -0.242 N  
HETATM   25  O   UNL     1     -11.979  12.100  67.040  1.00  0.00    -0.593 OA 
HETATM   26  H2  UNL     1      -9.180  11.869  65.577  1.00  0.00     0.000 HD 
ENDBRANCH   9  22
ENDBRANCH   8   9
ENDBRANCH   7   8
ENDBRANCH   6   7
ENDBRANCH   4   6
ENDBRANCH   2   4
TORSDOF 6
ENDMDL
MODEL      183
REMARK 921   NORMALIZED FREE ENERGY PREDICTED BY IDOCK:   -3.40 KCAL/MOL
REMARK 922        TOTAL FREE ENERGY PREDICTED BY IDOCK:   -5.59 KCAL/MOL
REMARK 923 INTER-LIGAND FREE ENERGY PREDICTED BY IDOCK:   -4.71 KCAL/MOL
REMARK 924 INTRA-LIGAND FREE ENERGY PREDICTED BY IDOCK:   -0.88 KCAL/MOL
REMARK 927      BINDING AFFINITY PREDICTED BY RF-SCORE:    0.00 PKD
ROOT
HETATM    1  C   UNL     1      -5.861  12.869  68.245  1.00  0.00    -0.079 C  
HETATM    2  C   UNL     1      -5.719  12.440  69.707  1.00  0.00    -0.113 C  
HETATM    3  C   UNL     1      -5.583  13.674  70.600  1.00  0.00    -0.165 C  
ENDROOT
BRANCH   2   4
HETATM    4  N   UNL     1      -6.898  11.635  70.037  1.00  0.00    -0.422 NA 
HETATM    5  H   UNL     1      -7.616  11.741  69.321  1.00  0.00     0.000 HD 
BRANCH   4   6
HETATM    6  C   UNL     1      -6.607  10.223  70.267  1.00  0.00    -0.142 C  
BRANCH   6   7
HETATM    7  C   UNL     1      -7.893   9.455  70.572  1.00  0.00    -0.185 C  
BRANCH   7   8
HETATM    8  C   UNL     1      -8.987   9.617  69.497  1.00  0.00    -0.203 C  
BRANCH   8   9
HETATM    9  C   UNL     1      -9.642   8.291  69.028  1.00  0.00    -0.156 C  
HETATM   10  C   UNL     1     -10.508   7.693  70.147  1.00  0.00    -0.227 A  
HETATM   11  C   UNL     1      -8.586   7.194  68.843  1.00  0.00    -0.129 A  
HETATM   12  C   UNL     1      -7.528   7.162  67.945  1.00  0.00    -0.099 A  
HETATM   13  C   UNL     1     -11.636   8.240  70.744  1.00  0.00    -0.250 A  
HETATM   14  C   UNL     1      -6.632   6.097  68.025  1.00  0.00    -0.062 A  
HETATM   15  C   UNL     1      -6.799   5.093  68.993  1.00  0.00    -0.054 A  
HETATM   16  C   UNL     1      -7.876   5.124  69.887  1.00  0.00    -0.075 A  
HETATM   17  C   UNL     1     -12.209   7.553  71.814  1.00  0.00    -0.345 A  
HETATM   18  C   UNL     1     -11.655   6.344  72.268  1.00  0.00    -0.341 A  
HETATM   19  C   UNL     1     -10.521   5.797  71.657  1.00  0.00    -0.286 A  
HETATM   20  C   UNL     1      -9.950   6.475  70.592  1.00  0.00    -0.206 A  
HETATM   21  C   UNL     1      -8.774   6.172  69.801  1.00  0.00    -0.135 A  
BRANCH   9  22
HETATM   22  C   UNL     1     -10.462   8.518  67.740  1.00  0.00    -0.223 C  
HETATM   23  H1  UNL     1     -11.634   7.577  66.359  1.00  0.00     0.000 HD 
HETATM   24  N   UNL     1     -11.092   7.427  67.210  1.00  0.00    -0.558 N  
HETATM   25  O   UNL     1     -10.570   9.605  67.176  1.00  0.00    -0.256 OA 
HETATM   26  H2  UNL     1     -11.024   6.506  67.645  1.00  0.00     0.000 HD 
ENDBRANCH   9  22
ENDBRANCH   8   9
ENDBRANCH   7   8
ENDBRANCH   6   7
ENDBRANCH   4   6
ENDBRANCH   2   4
TORSDOF 6
ENDMDL
MODEL      184
REMARK 921   NORMALIZED FREE ENERGY PREDICTED BY IDOCK:   -3.38 KCAL/MOL
REMARK 922        TOTAL FREE ENERGY PREDICTED BY IDOCK:   -5.57 KCAL/MOL
REMARK 923 INTER-LIGAND FREE ENERGY PREDICTED BY IDOCK:   -4.56 KCAL/MOL
REMARK 924 INTRA-LIGAND FREE ENERGY PREDICTED BY IDOCK:   -1.01 KCAL/MOL
REMARK 927      BINDING AFFINITY PREDICTED BY RF-SCORE:    0.00 PKD
ROOT
HETATM    1  C   UNL     1      -8.595   4.387  66.594  1.00  0.00    -0.111 C  
HETATM    2  C   UNL     1      -9.609   4.879  67.628  1.00  0.00    -0.151 C  
HETATM    3  C   UNL     1      -8.887   5.287  68.912  1.00  0.00    -0.102 C  
ENDROOT
BRANCH   2   4
HETATM    4  N   UNL     1     -10.342   5.992  67.018  1.00  0.00    -0.209 NA 
HETATM    5  H   UNL     1     -11.310   5.727  66.835  1.00  0.00     0.000 HD 
BRANCH   4   6
HETATM    6  C   UNL     1     -10.287   7.231  67.789  1.00  0.00    -0.209 C  
BRANCH   6   7
HETATM    7  C   UNL     1     -10.660   8.425  66.909  1.00  0.00    -0.285 C  
BRANCH   7   8
HETATM    8  C   UNL     1     -10.732   9.763  67.671  1.00  0.00    -0.334 C  
BRANCH   8   9
HETATM    9  C   UNL     1      -9.761  10.859  67.160  1.00  0.00    -0.199 C  
HETATM   10  C   UNL     1      -9.924  11.059  65.645  1.00  0.00    -0.299 A  
HETATM   11  C   UNL     1      -8.305  10.384  67.247  1.00  0.00    -0.122 A  
HETATM   12  C   UNL     1      -7.575  10.057  68.382  1.00  0.00    -0.083 A  
HETATM   13  C   UNL     1     -11.049  11.488  64.952  1.00  0.00    -0.282 A  
HETATM   14  C   UNL     1      -6.286   9.554  68.209  1.00  0.00    -0.053 A  
HETATM   15  C   UNL     1      -5.753   9.379  66.921  1.00  0.00    -0.051 A  
HETATM   16  C   UNL     1      -6.490   9.724  65.782  1.00  0.00    -0.083 A  
HETATM   17  C   UNL     1     -10.992  11.504  63.559  1.00  0.00    -0.453 A  
HETATM   18  C   UNL     1      -9.831  11.095  62.883  1.00  0.00    -0.323 A  
HETATM   19  C   UNL     1      -8.700  10.668  63.589  1.00  0.00    -0.146 A  
HETATM   20  C   UNL     1      -8.750  10.653  64.974  1.00  0.00    -0.186 A  
HETATM   21  C   UNL     1      -7.763  10.237  65.951  1.00  0.00    -0.137 A  
BRANCH   9  22
HETATM   22  C   UNL     1      -9.979  12.179  67.929  1.00  0.00    -0.200 C  
HETATM   23  H1  UNL     1     -10.952  13.004  69.522  1.00  0.00     0.000 HD 
HETATM   24  N   UNL     1     -10.808  12.132  69.014  1.00  0.00    -0.347 N  
HETATM   25  O   UNL     1      -9.459  13.249  67.618  1.00  0.00    -0.197 OA 
HETATM   26  H2  UNL     1     -11.263  11.265  69.302  1.00  0.00     0.000 HD 
ENDBRANCH   9  22
ENDBRANCH   8   9
ENDBRANCH   7   8
ENDBRANCH   6   7
ENDBRANCH   4   6
ENDBRANCH   2   4
TORSDOF 6
ENDMDL
MODEL      185
REMARK 921   NORMALIZED FREE ENERGY PREDICTED BY IDOCK:   -3.38 KCAL/MOL
REMARK 922        TOTAL FREE ENERGY PREDICTED BY IDOCK:   -5.57 KCAL/MOL
REMARK 923 INTER-LIGAND FREE ENERGY PREDICTED BY IDOCK:   -5.15 KCAL/MOL
REMARK 924 INTRA-LIGAND FREE ENERGY PREDICTED BY IDOCK:   -0.42 KCAL/MOL
REMARK 927      BINDING AFFINITY PREDICTED BY RF-SCORE:    0.00 PKD
ROOT
HETATM    1  C   UNL     1     -10.628   5.689  66.500  1.00  0.00    -0.320 C  
HETATM    2  C   UNL     1      -9.842   6.813  67.178  1.00  0.00    -0.161 C  
HETATM    3  C   UNL     1     -10.522   8.157  66.913  1.00  0.00    -0.379 C  
ENDROOT
BRANCH   2   4
HETATM    4  N   UNL     1      -9.772   6.491  68.606  1.00  0.00    -0.127 NA 
HETATM    5  H   UNL     1     -10.664   6.121  68.934  1.00  0.00     0.000 HD 
BRANCH   4   6
HETATM    6  C   UNL     1      -8.682   5.587  68.957  1.00  0.00    -0.102 C  
BRANCH   6   7
HETATM    7  C   UNL     1      -7.829   6.186  70.076  1.00  0.00    -0.106 C  
BRANCH   7   8
HETATM    8  C   UNL     1      -7.345   7.622  69.791  1.00  0.00    -0.081 C  
BRANCH   8   9
HETATM    9  C   UNL     1      -7.815   8.685  70.818  1.00  0.00    -0.113 C  
HETATM   10  C   UNL     1      -8.643   8.027  71.933  1.00  0.00    -0.180 A  
HETATM   11  C   UNL     1      -8.847   9.632  70.193  1.00  0.00    -0.266 A  
HETATM   12  C   UNL     1      -8.674  10.515  69.136  1.00  0.00    -0.155 A  
HETATM   13  C   UNL     1      -8.237   7.067  72.851  1.00  0.00    -0.119 A  
HETATM   14  C   UNL     1      -9.790  11.210  68.673  1.00  0.00    -0.207 A  
HETATM   15  C   UNL     1     -11.051  11.012  69.261  1.00  0.00    -0.312 A  
HETATM   16  C   UNL     1     -11.216  10.131  70.336  1.00  0.00    -0.402 A  
HETATM   17  C   UNL     1      -9.195   6.544  73.718  1.00  0.00    -0.160 A  
HETATM   18  C   UNL     1     -10.530   6.978  73.657  1.00  0.00    -0.414 A  
HETATM   19  C   UNL     1     -10.930   7.949  72.732  1.00  0.00    -0.456 A  
HETATM   20  C   UNL     1      -9.980   8.474  71.871  1.00  0.00    -0.365 A  
HETATM   21  C   UNL     1     -10.108   9.450  70.806  1.00  0.00    -0.366 A  
BRANCH   9  22
HETATM   22  C   UNL     1      -6.607   9.455  71.393  1.00  0.00     0.026 C  
HETATM   23  H1  UNL     1      -5.080  10.715  70.893  1.00  0.00     0.000 HD 
HETATM   24  N   UNL     1      -5.878  10.206  70.513  1.00  0.00    -0.080 N  
HETATM   25  O   UNL     1      -6.272   9.424  72.575  1.00  0.00    -0.302 OA 
HETATM   26  H2  UNL     1      -6.121  10.255  69.523  1.00  0.00     0.000 HD 
ENDBRANCH   9  22
ENDBRANCH   8   9
ENDBRANCH   7   8
ENDBRANCH   6   7
ENDBRANCH   4   6
ENDBRANCH   2   4
TORSDOF 6
ENDMDL
MODEL      186
REMARK 921   NORMALIZED FREE ENERGY PREDICTED BY IDOCK:   -3.37 KCAL/MOL
REMARK 922        TOTAL FREE ENERGY PREDICTED BY IDOCK:   -5.56 KCAL/MOL
REMARK 923 INTER-LIGAND FREE ENERGY PREDICTED BY IDOCK:   -4.63 KCAL/MOL
REMARK 924 INTRA-LIGAND FREE ENERGY PREDICTED BY IDOCK:   -0.94 KCAL/MOL
REMARK 927      BINDING AFFINITY PREDICTED BY RF-SCORE:    0.00 PKD
ROOT
HETATM    1  C   UNL     1      -8.346   5.217  66.216  1.00  0.00    -0.114 C  
HETATM    2  C   UNL     1      -9.611   5.639  66.965  1.00  0.00    -0.136 C  
HETATM    3  C   UNL     1      -9.344   5.651  68.470  1.00  0.00    -0.139 C  
ENDROOT
BRANCH   2   4
HETATM    4  N   UNL     1      -9.997   6.957  66.452  1.00  0.00    -0.414 NA 
HETATM    5  H   UNL     1     -10.500   6.865  65.570  1.00  0.00     0.000 HD 
BRANCH   4   6
HETATM    6  C   UNL     1     -10.765   7.759  67.399  1.00  0.00    -0.230 C  
BRANCH   6   7
HETATM    7  C   UNL     1     -10.185   9.171  67.498  1.00  0.00    -0.304 C  
BRANCH   7   8
HETATM    8  C   UNL     1     -10.865  10.193  66.566  1.00  0.00    -0.043 C  
BRANCH   8   9
HETATM    9  C   UNL     1      -9.891  11.090  65.759  1.00  0.00    -0.282 C  
HETATM   10  C   UNL     1      -8.709  10.263  65.232  1.00  0.00    -0.186 A  
HETATM   11  C   UNL     1      -9.176  12.088  66.679  1.00  0.00    -0.211 A  
HETATM   12  C   UNL     1      -9.733  13.114  67.431  1.00  0.00    -0.220 A  
HETATM   13  C   UNL     1      -8.736   9.195  64.344  1.00  0.00    -0.184 A  
HETATM   14  C   UNL     1      -8.892  13.837  68.275  1.00  0.00    -0.185 A  
HETATM   15  C   UNL     1      -7.524  13.528  68.360  1.00  0.00    -0.124 A  
HETATM   16  C   UNL     1      -6.967  12.501  67.588  1.00  0.00    -0.139 A  
HETATM   17  C   UNL     1      -7.538   8.532  64.080  1.00  0.00    -0.123 A  
HETATM   18  C   UNL     1      -6.344   8.936  64.700  1.00  0.00    -0.066 A  
HETATM   19  C   UNL     1      -6.324  10.016  65.591  1.00  0.00    -0.094 A  
HETATM   20  C   UNL     1      -7.511  10.680  65.853  1.00  0.00    -0.131 A  
HETATM   21  C   UNL     1      -7.796  11.790  66.740  1.00  0.00    -0.103 A  
BRANCH   9  22
HETATM   22  C   UNL     1     -10.636  11.804  64.610  1.00  0.00    -0.308 C  
HETATM   23  H1  UNL     1     -10.360  12.807  62.854  1.00  0.00     0.000 HD 
HETATM   24  N   UNL     1      -9.868  12.336  63.613  1.00  0.00    -0.586 N  
HETATM   25  O   UNL     1     -11.859  11.919  64.552  1.00  0.00    -0.303 OA 
HETATM   26  H2  UNL     1      -8.850  12.265  63.627  1.00  0.00     0.000 HD 
ENDBRANCH   9  22
ENDBRANCH   8   9
ENDBRANCH   7   8
ENDBRANCH   6   7
ENDBRANCH   4   6
ENDBRANCH   2   4
TORSDOF 6
ENDMDL
MODEL      187
REMARK 921   NORMALIZED FREE ENERGY PREDICTED BY IDOCK:   -3.36 KCAL/MOL
REMARK 922        TOTAL FREE ENERGY PREDICTED BY IDOCK:   -5.54 KCAL/MOL
REMARK 923 INTER-LIGAND FREE ENERGY PREDICTED BY IDOCK:   -4.58 KCAL/MOL
REMARK 924 INTRA-LIGAND FREE ENERGY PREDICTED BY IDOCK:   -0.97 KCAL/MOL
REMARK 927      BINDING AFFINITY PREDICTED BY RF-SCORE:    0.00 PKD
ROOT
HETATM    1  C   UNL     1      -9.806  12.995  66.782  1.00  0.00    -0.243 C  
HETATM    2  C   UNL     1     -10.446  13.184  68.158  1.00  0.00    -0.248 C  
HETATM    3  C   UNL     1     -11.966  13.275  68.017  1.00  0.00    -0.351 C  
ENDROOT
BRANCH   2   4
HETATM    4  N   UNL     1     -10.026  12.052  68.989  1.00  0.00    -0.415 NA 
HETATM    5  H   UNL     1     -10.138  12.273  69.979  1.00  0.00     0.000 HD 
BRANCH   4   6
HETATM    6  C   UNL     1     -10.697  10.797  68.665  1.00  0.00    -0.208 C  
BRANCH   6   7
HETATM    7  C   UNL     1      -9.675   9.732  68.266  1.00  0.00    -0.160 C  
BRANCH   7   8
HETATM    8  C   UNL     1     -10.306   8.390  67.840  1.00  0.00    -0.279 C  
BRANCH   8   9
HETATM    9  C   UNL     1      -9.791   7.151  68.617  1.00  0.00    -0.154 C  
HETATM   10  C   UNL     1     -10.179   7.246  70.100  1.00  0.00    -0.209 A  
HETATM   11  C   UNL     1      -8.259   7.157  68.704  1.00  0.00    -0.125 A  
HETATM   12  C   UNL     1      -7.339   7.074  67.668  1.00  0.00    -0.096 A  
HETATM   13  C   UNL     1     -11.453   7.279  70.653  1.00  0.00    -0.322 A  
HETATM   14  C   UNL     1      -5.986   7.198  67.981  1.00  0.00    -0.030 A  
HETATM   15  C   UNL     1      -5.575   7.405  69.308  1.00  0.00    -0.015 A  
HETATM   16  C   UNL     1      -6.508   7.474  70.350  1.00  0.00    -0.038 A  
HETATM   17  C   UNL     1     -11.563   7.464  72.031  1.00  0.00    -0.321 A  
HETATM   18  C   UNL     1     -10.417   7.613  72.829  1.00  0.00    -0.368 A  
HETATM   19  C   UNL     1      -9.136   7.574  72.264  1.00  0.00    -0.173 A  
HETATM   20  C   UNL     1      -9.022   7.387  70.896  1.00  0.00    -0.149 A  
HETATM   21  C   UNL     1      -7.849   7.338  70.044  1.00  0.00    -0.111 A  
BRANCH   9  22
HETATM   22  C   UNL     1     -10.321   5.850  67.977  1.00  0.00    -0.208 C  
HETATM   23  H1  UNL     1     -10.176   3.815  68.043  1.00  0.00     0.000 HD 
HETATM   24  N   UNL     1      -9.825   4.675  68.466  1.00  0.00    -0.140 N  
HETATM   25  O   UNL     1     -11.147   5.820  67.066  1.00  0.00    -0.210 OA 
HETATM   26  H2  UNL     1      -9.136   4.657  69.218  1.00  0.00     0.000 HD 
ENDBRANCH   9  22
ENDBRANCH   8   9
ENDBRANCH   7   8
ENDBRANCH   6   7
ENDBRANCH   4   6
ENDBRANCH   2   4
TORSDOF 6
ENDMDL
MODEL      188
REMARK 921   NORMALIZED FREE ENERGY PREDICTED BY IDOCK:   -3.33 KCAL/MOL
REMARK 922        TOTAL FREE ENERGY PREDICTED BY IDOCK:   -5.51 KCAL/MOL
REMARK 923 INTER-LIGAND FREE ENERGY PREDICTED BY IDOCK:   -4.46 KCAL/MOL
REMARK 924 INTRA-LIGAND FREE ENERGY PREDICTED BY IDOCK:   -1.05 KCAL/MOL
REMARK 927      BINDING AFFINITY PREDICTED BY RF-SCORE:    0.00 PKD
ROOT
HETATM    1  C   UNL     1     -11.670  12.864  68.577  1.00  0.00    -0.374 C  
HETATM    2  C   UNL     1     -10.895  11.595  68.219  1.00  0.00    -0.219 C  
HETATM    3  C   UNL     1      -9.842  11.911  67.156  1.00  0.00    -0.206 C  
ENDROOT
BRANCH   2   4
HETATM    4  N   UNL     1     -10.304  11.086  69.460  1.00  0.00    -0.430 NA 
HETATM    5  H   UNL     1      -9.854  11.840  69.979  1.00  0.00     0.000 HD 
BRANCH   4   6
HETATM    6  C   UNL     1     -11.245  10.367  70.313  1.00  0.00    -0.320 C  
BRANCH   6   7
HETATM    7  C   UNL     1     -10.724   8.963  70.620  1.00  0.00    -0.282 C  
BRANCH   7   8
HETATM    8  C   UNL     1      -9.265   8.933  71.120  1.00  0.00    -0.324 C  
BRANCH   8   9
HETATM    9  C   UNL     1      -8.410   7.764  70.566  1.00  0.00    -0.125 C  
HETATM   10  C   UNL     1      -8.798   7.455  69.112  1.00  0.00    -0.136 A  
HETATM   11  C   UNL     1      -8.768   6.445  71.262  1.00  0.00    -0.135 A  
HETATM   12  C   UNL     1      -8.621   6.114  72.602  1.00  0.00    -0.124 A  
HETATM   13  C   UNL     1      -8.698   8.283  68.001  1.00  0.00    -0.135 A  
HETATM   14  C   UNL     1      -9.109   4.880  73.029  1.00  0.00    -0.122 A  
HETATM   15  C   UNL     1      -9.736   4.006  72.125  1.00  0.00    -0.221 A  
HETATM   16  C   UNL     1      -9.868   4.341  70.772  1.00  0.00    -0.265 A  
HETATM   17  C   UNL     1      -9.204   7.816  66.789  1.00  0.00    -0.202 A  
HETATM   18  C   UNL     1      -9.797   6.546  66.701  1.00  0.00    -0.203 A  
HETATM   19  C   UNL     1      -9.890   5.715  67.824  1.00  0.00    -0.153 A  
HETATM   20  C   UNL     1      -9.386   6.173  69.030  1.00  0.00    -0.133 A  
HETATM   21  C   UNL     1      -9.373   5.559  70.343  1.00  0.00    -0.198 A  
BRANCH   9  22
HETATM   22  C   UNL     1      -6.905   8.086  70.691  1.00  0.00    -0.037 C  
HETATM   23  H1  UNL     1      -5.583   9.547  71.223  1.00  0.00     0.000 HD 
HETATM   24  N   UNL     1      -6.577   9.335  71.140  1.00  0.00    -0.092 N  
HETATM   25  O   UNL     1      -6.008   7.295  70.407  1.00  0.00    -0.027 OA 
HETATM   26  H2  UNL     1      -7.292  10.022  71.381  1.00  0.00     0.000 HD 
ENDBRANCH   9  22
ENDBRANCH   8   9
ENDBRANCH   7   8
ENDBRANCH   6   7
ENDBRANCH   4   6
ENDBRANCH   2   4
TORSDOF 6
ENDMDL
MODEL      189
REMARK 921   NORMALIZED FREE ENERGY PREDICTED BY IDOCK:   -3.32 KCAL/MOL
REMARK 922        TOTAL FREE ENERGY PREDICTED BY IDOCK:   -5.50 KCAL/MOL
REMARK 923 INTER-LIGAND FREE ENERGY PREDICTED BY IDOCK:   -5.26 KCAL/MOL
REMARK 924 INTRA-LIGAND FREE ENERGY PREDICTED BY IDOCK:   -0.24 KCAL/MOL
REMARK 927      BINDING AFFINITY PREDICTED BY RF-SCORE:    0.00 PKD
ROOT
HETATM    1  C   UNL     1     -13.347   8.917  71.261  1.00  0.00    -0.227 C  
HETATM    2  C   UNL     1     -12.137   8.066  71.653  1.00  0.00    -0.303 C  
HETATM    3  C   UNL     1     -12.081   6.810  70.783  1.00  0.00    -0.402 C  
ENDROOT
BRANCH   2   4
HETATM    4  N   UNL     1     -10.949   8.909  71.499  1.00  0.00    -0.300 NA 
HETATM    5  H   UNL     1     -10.143   8.347  71.227  1.00  0.00     0.000 HD 
BRANCH   4   6
HETATM    6  C   UNL     1     -11.129  10.026  70.577  1.00  0.00    -0.331 C  
BRANCH   6   7
HETATM    7  C   UNL     1      -9.933  10.137  69.631  1.00  0.00    -0.262 C  
BRANCH   7   8
HETATM    8  C   UNL     1     -10.317  10.476  68.176  1.00  0.00    -0.201 C  
BRANCH   8   9
HETATM    9  C   UNL     1      -9.118  10.734  67.227  1.00  0.00    -0.151 C  
HETATM   10  C   UNL     1      -9.606  11.287  65.880  1.00  0.00    -0.249 A  
HETATM   11  C   UNL     1      -8.468   9.413  66.795  1.00  0.00    -0.129 A  
HETATM   12  C   UNL     1      -7.829   8.469  67.588  1.00  0.00    -0.103 A  
HETATM   13  C   UNL     1     -10.279  12.477  65.634  1.00  0.00    -0.287 A  
HETATM   14  C   UNL     1      -7.398   7.290  66.984  1.00  0.00    -0.093 A  
HETATM   15  C   UNL     1      -7.612   7.068  65.613  1.00  0.00    -0.093 A  
HETATM   16  C   UNL     1      -8.244   8.030  64.816  1.00  0.00    -0.124 A  
HETATM   17  C   UNL     1     -10.708  12.728  64.331  1.00  0.00    -0.398 A  
HETATM   18  C   UNL     1     -10.466  11.801  63.305  1.00  0.00    -0.439 A  
HETATM   19  C   UNL     1      -9.783  10.606  63.560  1.00  0.00    -0.389 A  
HETATM   20  C   UNL     1      -9.351  10.353  64.852  1.00  0.00    -0.294 A  
HETATM   21  C   UNL     1      -8.662   9.207  65.410  1.00  0.00    -0.217 A  
BRANCH   9  22
HETATM   22  C   UNL     1      -8.096  11.683  67.890  1.00  0.00    -0.138 C  
HETATM   23  H1  UNL     1      -6.138  12.259  67.860  1.00  0.00     0.000 HD 
HETATM   24  N   UNL     1      -6.813  11.632  67.423  1.00  0.00    -0.103 N  
HETATM   25  O   UNL     1      -8.373  12.462  68.800  1.00  0.00    -0.028 OA 
HETATM   26  H2  UNL     1      -6.542  10.996  66.672  1.00  0.00     0.000 HD 
ENDBRANCH   9  22
ENDBRANCH   8   9
ENDBRANCH   7   8
ENDBRANCH   6   7
ENDBRANCH   4   6
ENDBRANCH   2   4
TORSDOF 6
ENDMDL
MODEL      190
REMARK 921   NORMALIZED FREE ENERGY PREDICTED BY IDOCK:   -3.30 KCAL/MOL
REMARK 922        TOTAL FREE ENERGY PREDICTED BY IDOCK:   -5.47 KCAL/MOL
REMARK 923 INTER-LIGAND FREE ENERGY PREDICTED BY IDOCK:   -4.57 KCAL/MOL
REMARK 924 INTRA-LIGAND FREE ENERGY PREDICTED BY IDOCK:   -0.90 KCAL/MOL
REMARK 927      BINDING AFFINITY PREDICTED BY RF-SCORE:    0.00 PKD
ROOT
HETATM    1  C   UNL     1     -10.284   4.184  65.083  1.00  0.00    -0.218 C  
HETATM    2  C   UNL     1      -8.917   4.268  65.764  1.00  0.00    -0.129 C  
HETATM    3  C   UNL     1      -8.136   5.464  65.218  1.00  0.00    -0.123 C  
ENDROOT
BRANCH   2   4
HETATM    4  N   UNL     1      -9.158   4.365  67.206  1.00  0.00    -0.124 NA 
HETATM    5  H   UNL     1      -8.986   3.468  67.659  1.00  0.00     0.000 HD 
BRANCH   4   6
HETATM    6  C   UNL     1      -8.400   5.425  67.864  1.00  0.00    -0.099 C  
BRANCH   6   7
HETATM    7  C   UNL     1      -9.346   6.423  68.533  1.00  0.00    -0.122 C  
BRANCH   7   8
HETATM    8  C   UNL     1      -8.764   7.080  69.801  1.00  0.00    -0.142 C  
BRANCH   8   9
HETATM    9  C   UNL     1      -8.691   8.629  69.758  1.00  0.00    -0.132 C  
HETATM   10  C   UNL     1     -10.018   9.244  70.228  1.00  0.00    -0.262 A  
HETATM   11  C   UNL     1      -8.619   9.134  68.312  1.00  0.00    -0.129 A  
HETATM   12  C   UNL     1      -7.620   8.912  67.373  1.00  0.00    -0.089 A  
HETATM   13  C   UNL     1     -10.621   9.134  71.475  1.00  0.00    -0.428 A  
HETATM   14  C   UNL     1      -7.818   9.394  66.080  1.00  0.00    -0.100 A  
HETATM   15  C   UNL     1      -8.998  10.078  65.743  1.00  0.00    -0.187 A  
HETATM   16  C   UNL     1      -9.995  10.309  66.698  1.00  0.00    -0.270 A  
HETATM   17  C   UNL     1     -11.882   9.706  71.644  1.00  0.00    -0.457 A  
HETATM   18  C   UNL     1     -12.518  10.368  70.581  1.00  0.00    -0.437 A  
HETATM   19  C   UNL     1     -11.901  10.479  69.329  1.00  0.00    -0.242 A  
HETATM   20  C   UNL     1     -10.647   9.915  69.157  1.00  0.00    -0.240 A  
HETATM   21  C   UNL     1      -9.796   9.844  67.985  1.00  0.00    -0.170 A  
BRANCH   9  22
HETATM   22  C   UNL     1      -7.503   9.139  70.602  1.00  0.00    -0.124 C  
HETATM   23  H1  UNL     1      -5.986   8.535  71.826  1.00  0.00     0.000 HD 
HETATM   24  N   UNL     1      -6.771   8.198  71.269  1.00  0.00    -0.043 N  
HETATM   25  O   UNL     1      -7.193  10.325  70.705  1.00  0.00    -0.306 OA 
HETATM   26  H2  UNL     1      -6.998   7.205  71.213  1.00  0.00     0.000 HD 
ENDBRANCH   9  22
ENDBRANCH   8   9
ENDBRANCH   7   8
ENDBRANCH   6   7
ENDBRANCH   4   6
ENDBRANCH   2   4
TORSDOF 6
ENDMDL
MODEL      191
REMARK 921   NORMALIZED FREE ENERGY PREDICTED BY IDOCK:   -3.30 KCAL/MOL
REMARK 922        TOTAL FREE ENERGY PREDICTED BY IDOCK:   -5.46 KCAL/MOL
REMARK 923 INTER-LIGAND FREE ENERGY PREDICTED BY IDOCK:   -4.43 KCAL/MOL
REMARK 924 INTRA-LIGAND FREE ENERGY PREDICTED BY IDOCK:   -1.03 KCAL/MOL
REMARK 927      BINDING AFFINITY PREDICTED BY RF-SCORE:    0.00 PKD
ROOT
HETATM    1  C   UNL     1      -9.510   6.455  71.745  1.00  0.00    -0.159 C  
HETATM    2  C   UNL     1     -10.021   7.652  70.942  1.00  0.00    -0.180 C  
HETATM    3  C   UNL     1      -9.330   8.930  71.416  1.00  0.00    -0.338 C  
ENDROOT
BRANCH   2   4
HETATM    4  N   UNL     1      -9.763   7.365  69.528  1.00  0.00    -0.159 NA 
HETATM    5  H   UNL     1      -9.846   6.365  69.344  1.00  0.00     0.000 HD 
BRANCH   4   6
HETATM    6  C   UNL     1     -10.600   8.126  68.605  1.00  0.00    -0.109 C  
BRANCH   6   7
HETATM    7  C   UNL     1      -9.737   9.021  67.715  1.00  0.00    -0.190 C  
BRANCH   7   8
HETATM    8  C   UNL     1     -10.275  10.459  67.567  1.00  0.00    -0.251 C  
BRANCH   8   9
HETATM    9  C   UNL     1      -9.338  11.430  66.803  1.00  0.00    -0.192 C  
HETATM   10  C   UNL     1      -9.051  10.902  65.389  1.00  0.00    -0.218 A  
HETATM   11  C   UNL     1      -7.932  11.431  67.417  1.00  0.00    -0.139 A  
HETATM   12  C   UNL     1      -7.551  11.829  68.692  1.00  0.00    -0.125 A  
HETATM   13  C   UNL     1      -9.952  10.684  64.355  1.00  0.00    -0.415 A  
HETATM   14  C   UNL     1      -6.220  11.648  69.064  1.00  0.00    -0.066 A  
HETATM   15  C   UNL     1      -5.299  11.074  68.172  1.00  0.00    -0.039 A  
HETATM   16  C   UNL     1      -5.687  10.687  66.883  1.00  0.00    -0.057 A  
HETATM   17  C   UNL     1      -9.473  10.106  63.180  1.00  0.00    -0.296 A  
HETATM   18  C   UNL     1      -8.118   9.756  63.054  1.00  0.00    -0.146 A  
HETATM   19  C   UNL     1      -7.215   9.984  64.099  1.00  0.00    -0.132 A  
HETATM   20  C   UNL     1      -7.686  10.561  65.267  1.00  0.00    -0.085 A  
HETATM   21  C   UNL     1      -7.004  10.878  66.506  1.00  0.00    -0.139 A  
BRANCH   9  22
HETATM   22  C   UNL     1      -9.944  12.849  66.763  1.00  0.00    -0.243 C  
HETATM   23  H1  UNL     1      -9.678  14.722  65.996  1.00  0.00     0.000 HD 
HETATM   24  N   UNL     1      -9.277  13.785  66.023  1.00  0.00    -0.497 N  
HETATM   25  O   UNL     1     -10.972  13.174  67.354  1.00  0.00    -0.255 OA 
HETATM   26  H2  UNL     1      -8.418  13.556  65.520  1.00  0.00     0.000 HD 
ENDBRANCH   9  22
ENDBRANCH   8   9
ENDBRANCH   7   8
ENDBRANCH   6   7
ENDBRANCH   4   6
ENDBRANCH   2   4
TORSDOF 6
ENDMDL
MODEL      192
REMARK 921   NORMALIZED FREE ENERGY PREDICTED BY IDOCK:   -3.24 KCAL/MOL
REMARK 922        TOTAL FREE ENERGY PREDICTED BY IDOCK:   -5.39 KCAL/MOL
REMARK 923 INTER-LIGAND FREE ENERGY PREDICTED BY IDOCK:   -4.26 KCAL/MOL
REMARK 924 INTRA-LIGAND FREE ENERGY PREDICTED BY IDOCK:   -1.13 KCAL/MOL
REMARK 927      BINDING AFFINITY PREDICTED BY RF-SCORE:    0.00 PKD
ROOT
HETATM    1  C   UNL     1     -12.666   9.723  72.131  1.00  0.00    -0.410 C  
HETATM    2  C   UNL     1     -12.766   8.258  72.561  1.00  0.00    -0.177 C  
HETATM    3  C   UNL     1     -13.351   7.421  71.423  1.00  0.00    -0.398 C  
ENDROOT
BRANCH   2   4
HETATM    4  N   UNL     1     -11.418   7.826  72.940  1.00  0.00    -0.572 NA 
HETATM    5  H   UNL     1     -11.242   6.875  72.617  1.00  0.00     0.000 HD 
BRANCH   4   6
HETATM    6  C   UNL     1     -10.359   8.724  72.491  1.00  0.00    -0.038 C  
BRANCH   6   7
HETATM    7  C   UNL     1      -9.410   7.997  71.537  1.00  0.00    -0.196 C  
BRANCH   7   8
HETATM    8  C   UNL     1      -9.862   8.027  70.063  1.00  0.00    -0.185 C  
BRANCH   8   9
HETATM    9  C   UNL     1      -9.511   6.756  69.247  1.00  0.00    -0.142 C  
HETATM   10  C   UNL     1      -9.475   5.522  70.162  1.00  0.00    -0.210 A  
HETATM   11  C   UNL     1      -8.061   6.806  68.750  1.00  0.00    -0.120 A  
HETATM   12  C   UNL     1      -7.487   7.711  67.868  1.00  0.00    -0.108 A  
HETATM   13  C   UNL     1     -10.514   4.971  70.902  1.00  0.00    -0.212 A  
HETATM   14  C   UNL     1      -6.115   7.619  67.635  1.00  0.00    -0.048 A  
HETATM   15  C   UNL     1      -5.343   6.640  68.284  1.00  0.00    -0.012 A  
HETATM   16  C   UNL     1      -5.932   5.722  69.162  1.00  0.00    -0.020 A  
HETATM   17  C   UNL     1     -10.221   3.896  71.741  1.00  0.00    -0.116 A  
HETATM   18  C   UNL     1      -8.913   3.392  71.831  1.00  0.00    -0.147 A  
HETATM   19  C   UNL     1      -7.873   3.950  71.078  1.00  0.00    -0.059 A  
HETATM   20  C   UNL     1      -8.159   5.016  70.241  1.00  0.00    -0.085 A  
HETATM   21  C   UNL     1      -7.295   5.803  69.384  1.00  0.00    -0.071 A  
BRANCH   9  22
HETATM   22  C   UNL     1     -10.508   6.566  68.084  1.00  0.00    -0.217 C  
HETATM   23  H1  UNL     1     -11.815   7.557  66.869  1.00  0.00     0.000 HD 
HETATM   24  N   UNL     1     -11.157   7.683  67.638  1.00  0.00    -0.499 N  
HETATM   25  O   UNL     1     -10.746   5.482  67.554  1.00  0.00    -0.219 OA 
HETATM   26  H2  UNL     1     -10.990   8.600  68.055  1.00  0.00     0.000 HD 
ENDBRANCH   9  22
ENDBRANCH   8   9
ENDBRANCH   7   8
ENDBRANCH   6   7
ENDBRANCH   4   6
ENDBRANCH   2   4
TORSDOF 6
ENDMDL
MODEL      193
REMARK 921   NORMALIZED FREE ENERGY PREDICTED BY IDOCK:   -3.22 KCAL/MOL
REMARK 922        TOTAL FREE ENERGY PREDICTED BY IDOCK:   -5.36 KCAL/MOL
REMARK 923 INTER-LIGAND FREE ENERGY PREDICTED BY IDOCK:   -4.52 KCAL/MOL
REMARK 924 INTRA-LIGAND FREE ENERGY PREDICTED BY IDOCK:   -0.83 KCAL/MOL
REMARK 927      BINDING AFFINITY PREDICTED BY RF-SCORE:    0.00 PKD
ROOT
HETATM    1  C   UNL     1     -12.556   8.538  71.787  1.00  0.00    -0.387 C  
HETATM    2  C   UNL     1     -12.360   7.023  71.708  1.00  0.00    -0.354 C  
HETATM    3  C   UNL     1     -11.910   6.630  70.301  1.00  0.00    -0.378 C  
ENDROOT
BRANCH   2   4
HETATM    4  N   UNL     1     -11.378   6.660  72.733  1.00  0.00    -0.425 NA 
HETATM    5  H   UNL     1     -10.839   5.845  72.442  1.00  0.00     0.000 HD 
BRANCH   4   6
HETATM    6  C   UNL     1     -10.489   7.753  73.115  1.00  0.00    -0.349 C  
BRANCH   6   7
HETATM    7  C   UNL     1      -9.148   7.629  72.391  1.00  0.00    -0.191 C  
BRANCH   7   8
HETATM    8  C   UNL     1      -8.666   8.941  71.741  1.00  0.00    -0.137 C  
BRANCH   8   9
HETATM    9  C   UNL     1      -7.998   8.774  70.351  1.00  0.00    -0.113 C  
HETATM   10  C   UNL     1      -8.950   9.237  69.237  1.00  0.00    -0.147 A  
HETATM   11  C   UNL     1      -7.823   7.291  70.002  1.00  0.00    -0.111 A  
HETATM   12  C   UNL     1      -7.048   6.341  70.654  1.00  0.00    -0.069 A  
HETATM   13  C   UNL     1      -9.472  10.507  69.026  1.00  0.00    -0.211 A  
HETATM   14  C   UNL     1      -7.120   5.021  70.211  1.00  0.00    -0.053 A  
HETATM   15  C   UNL     1      -7.959   4.670  69.141  1.00  0.00    -0.070 A  
HETATM   16  C   UNL     1      -8.728   5.635  68.480  1.00  0.00    -0.110 A  
HETATM   17  C   UNL     1     -10.398  10.671  67.997  1.00  0.00    -0.208 A  
HETATM   18  C   UNL     1     -10.789   9.581  67.203  1.00  0.00    -0.156 A  
HETATM   19  C   UNL     1     -10.255   8.305  67.419  1.00  0.00    -0.326 A  
HETATM   20  C   UNL     1      -9.332   8.137  68.438  1.00  0.00    -0.135 A  
HETATM   21  C   UNL     1      -8.648   6.948  68.908  1.00  0.00    -0.131 A  
BRANCH   9  22
HETATM   22  C   UNL     1      -6.657   9.536  70.298  1.00  0.00    -0.077 C  
HETATM   23  H1  UNL     1      -4.771   9.479  69.519  1.00  0.00     0.000 HD 
HETATM   24  N   UNL     1      -5.657   8.975  69.554  1.00  0.00    -0.034 N  
HETATM   25  O   UNL     1      -6.445  10.597  70.884  1.00  0.00    -0.350 OA 
HETATM   26  H2  UNL     1      -5.791   8.094  69.056  1.00  0.00     0.000 HD 
ENDBRANCH   9  22
ENDBRANCH   8   9
ENDBRANCH   7   8
ENDBRANCH   6   7
ENDBRANCH   4   6
ENDBRANCH   2   4
TORSDOF 6
ENDMDL
MODEL      194
REMARK 921   NORMALIZED FREE ENERGY PREDICTED BY IDOCK:   -3.21 KCAL/MOL
REMARK 922        TOTAL FREE ENERGY PREDICTED BY IDOCK:   -5.34 KCAL/MOL
REMARK 923 INTER-LIGAND FREE ENERGY PREDICTED BY IDOCK:   -5.02 KCAL/MOL
REMARK 924 INTRA-LIGAND FREE ENERGY PREDICTED BY IDOCK:   -0.33 KCAL/MOL
REMARK 927      BINDING AFFINITY PREDICTED BY RF-SCORE:    0.00 PKD
ROOT
HETATM    1  C   UNL     1      -6.573   4.555  67.199  1.00  0.00    -0.046 C  
HETATM    2  C   UNL     1      -7.593   3.423  67.061  1.00  0.00    -0.079 C  
HETATM    3  C   UNL     1      -7.801   2.741  68.413  1.00  0.00    -0.057 C  
ENDROOT
BRANCH   2   4
HETATM    4  N   UNL     1      -8.826   4.015  66.534  1.00  0.00    -0.117 NA 
HETATM    5  H   UNL     1      -9.201   3.447  65.775  1.00  0.00     0.000 HD 
BRANCH   4   6
HETATM    6  C   UNL     1      -9.849   4.254  67.548  1.00  0.00    -0.109 C  
BRANCH   6   7
HETATM    7  C   UNL     1      -9.950   5.747  67.864  1.00  0.00    -0.164 C  
BRANCH   7   8
HETATM    8  C   UNL     1     -11.054   6.095  68.884  1.00  0.00    -0.417 C  
BRANCH   8   9
HETATM    9  C   UNL     1     -10.565   6.875  70.132  1.00  0.00    -0.249 C  
HETATM   10  C   UNL     1     -11.746   7.567  70.831  1.00  0.00    -0.307 A  
HETATM   11  C   UNL     1      -9.706   8.079  69.725  1.00  0.00    -0.176 A  
HETATM   12  C   UNL     1      -8.485   8.079  69.064  1.00  0.00    -0.130 A  
HETATM   13  C   UNL     1     -12.860   6.981  71.418  1.00  0.00    -0.407 A  
HETATM   14  C   UNL     1      -7.932   9.308  68.711  1.00  0.00    -0.099 A  
HETATM   15  C   UNL     1      -8.599  10.507  69.013  1.00  0.00    -0.160 A  
HETATM   16  C   UNL     1      -9.823  10.500  69.692  1.00  0.00    -0.117 A  
HETATM   17  C   UNL     1     -13.857   7.820  71.913  1.00  0.00    -0.380 A  
HETATM   18  C   UNL     1     -13.733   9.216  71.814  1.00  0.00    -0.465 A  
HETATM   19  C   UNL     1     -12.605   9.800  71.225  1.00  0.00    -0.460 A  
HETATM   20  C   UNL     1     -11.610   8.969  70.735  1.00  0.00    -0.313 A  
HETATM   21  C   UNL     1     -10.368   9.283  70.056  1.00  0.00    -0.245 A  
BRANCH   9  22
HETATM   22  C   UNL     1      -9.812   5.935  71.098  1.00  0.00    -0.181 C  
HETATM   23  H1  UNL     1      -9.630   3.986  71.677  1.00  0.00     0.000 HD 
HETATM   24  N   UNL     1     -10.128   4.607  71.039  1.00  0.00    -0.198 N  
HETATM   25  O   UNL     1      -8.964   6.315  71.903  1.00  0.00    -0.140 OA 
HETATM   26  H2  UNL     1     -10.829   4.253  70.388  1.00  0.00     0.000 HD 
ENDBRANCH   9  22
ENDBRANCH   8   9
ENDBRANCH   7   8
ENDBRANCH   6   7
ENDBRANCH   4   6
ENDBRANCH   2   4
TORSDOF 6
ENDMDL
MODEL      195
REMARK 921   NORMALIZED FREE ENERGY PREDICTED BY IDOCK:   -3.20 KCAL/MOL
REMARK 922        TOTAL FREE ENERGY PREDICTED BY IDOCK:   -5.33 KCAL/MOL
REMARK 923 INTER-LIGAND FREE ENERGY PREDICTED BY IDOCK:   -4.18 KCAL/MOL
REMARK 924 INTRA-LIGAND FREE ENERGY PREDICTED BY IDOCK:   -1.15 KCAL/MOL
REMARK 927      BINDING AFFINITY PREDICTED BY RF-SCORE:    0.00 PKD
ROOT
HETATM    1  C   UNL     1      -8.211   4.710  71.861  1.00  0.00    -0.105 C  
HETATM    2  C   UNL     1      -6.693   4.764  72.047  1.00  0.00    -0.047 C  
HETATM    3  C   UNL     1      -6.017   3.769  71.104  1.00  0.00    -0.014 C  
ENDROOT
BRANCH   2   4
HETATM    4  N   UNL     1      -6.276   6.147  71.796  1.00  0.00    -0.040 NA 
HETATM    5  H   UNL     1      -5.260   6.227  71.830  1.00  0.00     0.000 HD 
BRANCH   4   6
HETATM    6  C   UNL     1      -6.794   6.706  70.551  1.00  0.00    -0.062 C  
BRANCH   6   7
HETATM    7  C   UNL     1      -7.423   8.077  70.801  1.00  0.00    -0.072 C  
BRANCH   7   8
HETATM    8  C   UNL     1      -7.828   8.822  69.513  1.00  0.00    -0.091 C  
BRANCH   8   9
HETATM    9  C   UNL     1      -9.265   8.524  69.011  1.00  0.00    -0.146 C  
HETATM   10  C   UNL     1     -10.205   8.260  70.197  1.00  0.00    -0.199 A  
HETATM   11  C   UNL     1      -9.320   7.179  68.276  1.00  0.00    -0.130 A  
HETATM   12  C   UNL     1      -8.675   6.815  67.101  1.00  0.00    -0.119 A  
HETATM   13  C   UNL     1     -10.557   9.128  71.223  1.00  0.00    -0.399 A  
HETATM   14  C   UNL     1      -8.799   5.496  66.669  1.00  0.00    -0.117 A  
HETATM   15  C   UNL     1      -9.550   4.567  67.408  1.00  0.00    -0.209 A  
HETATM   16  C   UNL     1     -10.210   4.945  68.584  1.00  0.00    -0.112 A  
HETATM   17  C   UNL     1     -11.360   8.634  72.251  1.00  0.00    -0.411 A  
HETATM   18  C   UNL     1     -11.794   7.298  72.243  1.00  0.00    -0.287 A  
HETATM   19  C   UNL     1     -11.439   6.431  71.203  1.00  0.00    -0.381 A  
HETATM   20  C   UNL     1     -10.644   6.918  70.178  1.00  0.00    -0.249 A  
HETATM   21  C   UNL     1     -10.100   6.256  69.008  1.00  0.00    -0.206 A  
BRANCH   9  22
HETATM   22  C   UNL     1      -9.782   9.680  68.128  1.00  0.00    -0.146 C  
HETATM   23  H1  UNL     1     -11.450  10.425  67.219  1.00  0.00     0.000 HD 
HETATM   24  N   UNL     1     -11.109   9.662  67.802  1.00  0.00    -0.494 N  
HETATM   25  O   UNL     1      -9.073  10.594  67.709  1.00  0.00    -0.141 OA 
HETATM   26  H2  UNL     1     -11.729   8.919  68.126  1.00  0.00     0.000 HD 
ENDBRANCH   9  22
ENDBRANCH   8   9
ENDBRANCH   7   8
ENDBRANCH   6   7
ENDBRANCH   4   6
ENDBRANCH   2   4
TORSDOF 6
ENDMDL
MODEL      196
REMARK 921   NORMALIZED FREE ENERGY PREDICTED BY IDOCK:   -3.12 KCAL/MOL
REMARK 922        TOTAL FREE ENERGY PREDICTED BY IDOCK:   -5.23 KCAL/MOL
REMARK 923 INTER-LIGAND FREE ENERGY PREDICTED BY IDOCK:   -4.92 KCAL/MOL
REMARK 924 INTRA-LIGAND FREE ENERGY PREDICTED BY IDOCK:   -0.31 KCAL/MOL
REMARK 927      BINDING AFFINITY PREDICTED BY RF-SCORE:    0.00 PKD
ROOT
HETATM    1  C   UNL     1     -11.835  12.420  65.275  1.00  0.00    -0.451 C  
HETATM    2  C   UNL     1     -10.506  13.065  64.877  1.00  0.00    -0.339 C  
HETATM    3  C   UNL     1     -10.313  14.375  65.642  1.00  0.00    -0.360 C  
ENDROOT
BRANCH   2   4
HETATM    4  N   UNL     1      -9.451  12.088  65.161  1.00  0.00    -0.436 NA 
HETATM    5  H   UNL     1      -8.925  12.360  65.991  1.00  0.00     0.000 HD 
BRANCH   4   6
HETATM    6  C   UNL     1      -9.931  10.715  65.284  1.00  0.00    -0.294 C  
BRANCH   6   7
HETATM    7  C   UNL     1      -9.316  10.042  66.512  1.00  0.00    -0.201 C  
BRANCH   7   8
HETATM    8  C   UNL     1      -9.869   8.630  66.792  1.00  0.00    -0.322 C  
BRANCH   8   9
HETATM    9  C   UNL     1      -8.943   7.724  67.645  1.00  0.00    -0.128 C  
HETATM   10  C   UNL     1      -9.686   7.216  68.890  1.00  0.00    -0.146 A  
HETATM   11  C   UNL     1      -7.811   8.541  68.280  1.00  0.00    -0.106 A  
HETATM   12  C   UNL     1      -6.792   9.237  67.643  1.00  0.00    -0.076 A  
HETATM   13  C   UNL     1     -10.815   6.410  68.947  1.00  0.00    -0.382 A  
HETATM   14  C   UNL     1      -5.925   9.994  68.429  1.00  0.00    -0.042 A  
HETATM   15  C   UNL     1      -6.088  10.051  69.824  1.00  0.00    -0.047 A  
HETATM   16  C   UNL     1      -7.110   9.336  70.460  1.00  0.00    -0.100 A  
HETATM   17  C   UNL     1     -11.373   6.152  70.199  1.00  0.00    -0.433 A  
HETATM   18  C   UNL     1     -10.806   6.697  71.363  1.00  0.00    -0.282 A  
HETATM   19  C   UNL     1      -9.664   7.504  71.297  1.00  0.00    -0.173 A  
HETATM   20  C   UNL     1      -9.104   7.760  70.056  1.00  0.00    -0.150 A  
HETATM   21  C   UNL     1      -7.963   8.574  69.684  1.00  0.00    -0.101 A  
BRANCH   9  22
HETATM   22  C   UNL     1      -8.398   6.555  66.798  1.00  0.00    -0.111 C  
HETATM   23  H1  UNL     1      -7.242   4.874  66.878  1.00  0.00     0.000 HD 
HETATM   24  N   UNL     1      -7.602   5.647  67.438  1.00  0.00    -0.088 N  
HETATM   25  O   UNL     1      -8.635   6.405  65.600  1.00  0.00    -0.150 OA 
HETATM   26  H2  UNL     1      -7.378   5.738  68.430  1.00  0.00     0.000 HD 
ENDBRANCH   9  22
ENDBRANCH   8   9
ENDBRANCH   7   8
ENDBRANCH   6   7
ENDBRANCH   4   6
ENDBRANCH   2   4
TORSDOF 6
ENDMDL
MODEL      197
REMARK 921   NORMALIZED FREE ENERGY PREDICTED BY IDOCK:   -3.12 KCAL/MOL
REMARK 922        TOTAL FREE ENERGY PREDICTED BY IDOCK:   -5.23 KCAL/MOL
REMARK 923 INTER-LIGAND FREE ENERGY PREDICTED BY IDOCK:   -4.91 KCAL/MOL
REMARK 924 INTRA-LIGAND FREE ENERGY PREDICTED BY IDOCK:   -0.31 KCAL/MOL
REMARK 927      BINDING AFFINITY PREDICTED BY RF-SCORE:    0.00 PKD
ROOT
HETATM    1  C   UNL     1      -8.485   5.268  67.181  1.00  0.00    -0.106 C  
HETATM    2  C   UNL     1      -8.817   6.461  66.284  1.00  0.00    -0.145 C  
HETATM    3  C   UNL     1      -8.159   6.283  64.915  1.00  0.00    -0.130 C  
ENDROOT
BRANCH   2   4
HETATM    4  N   UNL     1     -10.278   6.544  66.197  1.00  0.00    -0.404 NA 
HETATM    5  H   UNL     1     -10.694   5.615  66.269  1.00  0.00     0.000 HD 
BRANCH   4   6
HETATM    6  C   UNL     1     -10.879   7.451  67.170  1.00  0.00    -0.270 C  
BRANCH   6   7
HETATM    7  C   UNL     1     -10.140   8.790  67.181  1.00  0.00    -0.320 C  
BRANCH   7   8
HETATM    8  C   UNL     1     -11.012   9.981  67.629  1.00  0.00    -0.297 C  
BRANCH   8   9
HETATM    9  C   UNL     1     -10.547  10.674  68.936  1.00  0.00    -0.241 C  
HETATM   10  C   UNL     1      -9.248  11.459  68.697  1.00  0.00    -0.149 A  
HETATM   11  C   UNL     1     -10.090   9.640  69.972  1.00  0.00    -0.293 A  
HETATM   12  C   UNL     1     -10.844   8.650  70.589  1.00  0.00    -0.265 A  
HETATM   13  C   UNL     1      -9.041  12.537  67.846  1.00  0.00    -0.199 A  
HETATM   14  C   UNL     1     -10.186   7.756  71.432  1.00  0.00    -0.211 A  
HETATM   15  C   UNL     1      -8.800   7.856  71.642  1.00  0.00    -0.163 A  
HETATM   16  C   UNL     1      -8.049   8.865  71.027  1.00  0.00    -0.205 A  
HETATM   17  C   UNL     1      -7.744  13.033  67.723  1.00  0.00    -0.151 A  
HETATM   18  C   UNL     1      -6.683  12.453  68.438  1.00  0.00    -0.069 A  
HETATM   19  C   UNL     1      -6.901  11.369  69.297  1.00  0.00    -0.119 A  
HETATM   20  C   UNL     1      -8.189  10.875  69.426  1.00  0.00     0.025 A  
HETATM   21  C   UNL     1      -8.701   9.762  70.200  1.00  0.00    -0.215 A  
BRANCH   9  22
HETATM   22  C   UNL     1     -11.662  11.586  69.492  1.00  0.00    -0.346 C  
HETATM   23  H1  UNL     1     -12.108  13.518  69.975  1.00  0.00     0.000 HD 
HETATM   24  N   UNL     1     -11.372  12.916  69.607  1.00  0.00    -0.474 N  
HETATM   25  O   UNL     1     -12.773  11.182  69.834  1.00  0.00    -0.168 OA 
HETATM   26  H2  UNL     1     -10.461  13.290  69.339  1.00  0.00     0.000 HD 
ENDBRANCH   9  22
ENDBRANCH   8   9
ENDBRANCH   7   8
ENDBRANCH   6   7
ENDBRANCH   4   6
ENDBRANCH   2   4
TORSDOF 6
ENDMDL
MODEL      198
REMARK 921   NORMALIZED FREE ENERGY PREDICTED BY IDOCK:   -3.12 KCAL/MOL
REMARK 922        TOTAL FREE ENERGY PREDICTED BY IDOCK:   -5.22 KCAL/MOL
REMARK 923 INTER-LIGAND FREE ENERGY PREDICTED BY IDOCK:   -4.77 KCAL/MOL
REMARK 924 INTRA-LIGAND FREE ENERGY PREDICTED BY IDOCK:   -0.44 KCAL/MOL
REMARK 927      BINDING AFFINITY PREDICTED BY RF-SCORE:    0.00 PKD
ROOT
HETATM    1  C   UNL     1      -8.555  10.358  65.448  1.00  0.00    -0.183 C  
HETATM    2  C   UNL     1      -7.222   9.972  66.091  1.00  0.00    -0.109 C  
HETATM    3  C   UNL     1      -6.776  11.066  67.063  1.00  0.00    -0.108 C  
ENDROOT
BRANCH   2   4
HETATM    4  N   UNL     1      -7.420   8.680  66.754  1.00  0.00    -0.086 NA 
HETATM    5  H   UNL     1      -6.543   8.341  67.149  1.00  0.00     0.000 HD 
BRANCH   4   6
HETATM    6  C   UNL     1      -8.470   8.688  67.768  1.00  0.00    -0.125 C  
BRANCH   6   7
HETATM    7  C   UNL     1      -7.932   8.160  69.099  1.00  0.00    -0.113 C  
BRANCH   7   8
HETATM    8  C   UNL     1      -8.455   8.926  70.331  1.00  0.00    -0.181 C  
BRANCH   8   9
HETATM    9  C   UNL     1      -9.015   8.031  71.466  1.00  0.00    -0.180 C  
HETATM   10  C   UNL     1      -8.904   6.546  71.086  1.00  0.00    -0.138 A  
HETATM   11  C   UNL     1     -10.535   8.197  71.596  1.00  0.00    -0.288 A  
HETATM   12  C   UNL     1     -11.248   9.337  71.942  1.00  0.00    -0.331 A  
HETATM   13  C   UNL     1      -7.755   5.808  70.835  1.00  0.00    -0.097 A  
HETATM   14  C   UNL     1     -12.640   9.276  71.901  1.00  0.00    -0.468 A  
HETATM   15  C   UNL     1     -13.294   8.095  71.515  1.00  0.00    -0.313 A  
HETATM   16  C   UNL     1     -12.569   6.945  71.181  1.00  0.00    -0.366 A  
HETATM   17  C   UNL     1      -7.904   4.488  70.412  1.00  0.00    -0.053 A  
HETATM   18  C   UNL     1      -9.182   3.929  70.244  1.00  0.00    -0.215 A  
HETATM   19  C   UNL     1     -10.335   4.678  70.503  1.00  0.00    -0.109 A  
HETATM   20  C   UNL     1     -10.192   5.989  70.927  1.00  0.00    -0.259 A  
HETATM   21  C   UNL     1     -11.188   6.998  71.233  1.00  0.00    -0.296 A  
BRANCH   9  22
HETATM   22  C   UNL     1      -8.292   8.327  72.798  1.00  0.00    -0.171 C  
HETATM   23  H1  UNL     1      -8.346   7.965  74.806  1.00  0.00     0.000 HD 
HETATM   24  N   UNL     1      -8.824   7.769  73.926  1.00  0.00    -0.263 N  
HETATM   25  O   UNL     1      -7.287   9.029  72.892  1.00  0.00    -0.324 OA 
HETATM   26  H2  UNL     1      -9.660   7.184  73.891  1.00  0.00     0.000 HD 
ENDBRANCH   9  22
ENDBRANCH   8   9
ENDBRANCH   7   8
ENDBRANCH   6   7
ENDBRANCH   4   6
ENDBRANCH   2   4
TORSDOF 6
ENDMDL
MODEL      199
REMARK 921   NORMALIZED FREE ENERGY PREDICTED BY IDOCK:   -3.10 KCAL/MOL
REMARK 922        TOTAL FREE ENERGY PREDICTED BY IDOCK:   -5.20 KCAL/MOL
REMARK 923 INTER-LIGAND FREE ENERGY PREDICTED BY IDOCK:   -4.26 KCAL/MOL
REMARK 924 INTRA-LIGAND FREE ENERGY PREDICTED BY IDOCK:   -0.94 KCAL/MOL
REMARK 927      BINDING AFFINITY PREDICTED BY RF-SCORE:    0.00 PKD
ROOT
HETATM    1  C   UNL     1     -12.146  12.744  66.329  1.00  0.00    -0.400 C  
HETATM    2  C   UNL     1     -11.903  13.411  67.684  1.00  0.00    -0.354 C  
HETATM    3  C   UNL     1     -11.999  12.371  68.800  1.00  0.00    -0.276 C  
ENDROOT
BRANCH   2   4
HETATM    4  N   UNL     1     -10.584  14.047  67.621  1.00  0.00    -0.248 NA 
HETATM    5  H   UNL     1     -10.035  13.816  68.449  1.00  0.00     0.000 HD 
BRANCH   4   6
HETATM    6  C   UNL     1      -9.834  13.740  66.407  1.00  0.00    -0.298 C  
BRANCH   6   7
HETATM    7  C   UNL     1      -8.923  12.532  66.632  1.00  0.00    -0.174 C  
BRANCH   7   8
HETATM    8  C   UNL     1      -8.325  12.457  68.052  1.00  0.00    -0.170 C  
BRANCH   8   9
HETATM    9  C   UNL     1      -7.556  11.148  68.368  1.00  0.00    -0.110 C  
HETATM   10  C   UNL     1      -6.828  10.636  67.115  1.00  0.00    -0.083 A  
HETATM   11  C   UNL     1      -8.529   9.995  68.645  1.00  0.00    -0.118 A  
HETATM   12  C   UNL     1      -9.450   9.878  69.677  1.00  0.00    -0.252 A  
HETATM   13  C   UNL     1      -5.818  11.260  66.394  1.00  0.00    -0.136 A  
HETATM   14  C   UNL     1     -10.302   8.774  69.672  1.00  0.00    -0.213 A  
HETATM   15  C   UNL     1     -10.228   7.817  68.647  1.00  0.00    -0.217 A  
HETATM   16  C   UNL     1      -9.287   7.935  67.617  1.00  0.00    -0.161 A  
HETATM   17  C   UNL     1      -5.370  10.642  65.228  1.00  0.00    -0.145 A  
HETATM   18  C   UNL     1      -5.929   9.427  64.799  1.00  0.00    -0.071 A  
HETATM   19  C   UNL     1      -6.944   8.802  65.534  1.00  0.00    -0.076 A  
HETATM   20  C   UNL     1      -7.390   9.410  66.696  1.00  0.00    -0.090 A  
HETATM   21  C   UNL     1      -8.432   9.021  67.626  1.00  0.00    -0.117 A  
BRANCH   9  22
HETATM   22  C   UNL     1      -6.576  11.364  69.541  1.00  0.00    -0.129 C  
HETATM   23  H1  UNL     1      -5.884  12.760  70.860  1.00  0.00     0.000 HD 
HETATM   24  N   UNL     1      -6.531  12.617  70.085  1.00  0.00    -0.368 N  
HETATM   25  O   UNL     1      -5.846  10.486  69.996  1.00  0.00    -0.053 OA 
HETATM   26  H2  UNL     1      -7.118  13.374  69.733  1.00  0.00     0.000 HD 
ENDBRANCH   9  22
ENDBRANCH   8   9
ENDBRANCH   7   8
ENDBRANCH   6   7
ENDBRANCH   4   6
ENDBRANCH   2   4
TORSDOF 6
ENDMDL
MODEL      200
REMARK 921   NORMALIZED FREE ENERGY PREDICTED BY IDOCK:   -3.07 KCAL/MOL
REMARK 922        TOTAL FREE ENERGY PREDICTED BY IDOCK:   -5.16 KCAL/MOL
REMARK 923 INTER-LIGAND FREE ENERGY PREDICTED BY IDOCK:   -4.65 KCAL/MOL
REMARK 924 INTRA-LIGAND FREE ENERGY PREDICTED BY IDOCK:   -0.51 KCAL/MOL
REMARK 927      BINDING AFFINITY PREDICTED BY RF-SCORE:    0.00 PKD
ROOT
HETATM    1  C   UNL     1     -11.762  13.681  67.976  1.00  0.00    -0.387 C  
HETATM    2  C   UNL     1     -10.483  13.946  67.179  1.00  0.00    -0.269 C  
HETATM    3  C   UNL     1      -9.492  14.737  68.034  1.00  0.00    -0.204 C  
ENDROOT
BRANCH   2   4
HETATM    4  N   UNL     1      -9.954  12.643  66.767  1.00  0.00    -0.229 NA 
HETATM    5  H   UNL     1      -9.299  12.286  67.462  1.00  0.00     0.000 HD 
BRANCH   4   6
HETATM    6  C   UNL     1     -10.983  11.650  66.476  1.00  0.00    -0.299 C  
BRANCH   6   7
HETATM    7  C   UNL     1     -10.380  10.245  66.452  1.00  0.00    -0.262 C  
BRANCH   7   8
HETATM    8  C   UNL     1     -10.783   9.372  67.658  1.00  0.00    -0.295 C  
BRANCH   8   9
HETATM    9  C   UNL     1      -9.601   8.683  68.389  1.00  0.00    -0.157 C  
HETATM   10  C   UNL     1      -8.904   7.679  67.458  1.00  0.00    -0.124 A  
HETATM   11  C   UNL     1     -10.109   7.760  69.504  1.00  0.00    -0.194 A  
HETATM   12  C   UNL     1     -10.811   8.105  70.651  1.00  0.00    -0.246 A  
HETATM   13  C   UNL     1      -8.244   7.932  66.262  1.00  0.00    -0.117 A  
HETATM   14  C   UNL     1     -11.257   7.077  71.480  1.00  0.00    -0.279 A  
HETATM   15  C   UNL     1     -11.003   5.734  71.154  1.00  0.00    -0.295 A  
HETATM   16  C   UNL     1     -10.283   5.394  70.002  1.00  0.00    -0.349 A  
HETATM   17  C   UNL     1      -7.766   6.842  65.536  1.00  0.00    -0.101 A  
HETATM   18  C   UNL     1      -7.952   5.531  66.003  1.00  0.00    -0.106 A  
HETATM   19  C   UNL     1      -8.614   5.285  67.212  1.00  0.00    -0.105 A  
HETATM   20  C   UNL     1      -9.088   6.365  67.939  1.00  0.00    -0.112 A  
HETATM   21  C   UNL     1      -9.828   6.413  69.185  1.00  0.00    -0.158 A  
BRANCH   9  22
HETATM   22  C   UNL     1      -8.608   9.736  68.926  1.00  0.00    -0.134 C  
HETATM   23  H1  UNL     1      -6.711   9.984  69.638  1.00  0.00     0.000 HD 
HETATM   24  N   UNL     1      -7.367   9.288  69.282  1.00  0.00    -0.068 N  
HETATM   25  O   UNL     1      -8.874  10.930  69.052  1.00  0.00    -0.158 OA 
HETATM   26  H2  UNL     1      -7.108   8.305  69.197  1.00  0.00     0.000 HD 
ENDBRANCH   9  22
ENDBRANCH   8   9
ENDBRANCH   7   8
ENDBRANCH   6   7
ENDBRANCH   4   6
ENDBRANCH   2   4
TORSDOF 6
ENDMDL
MODEL      201
REMARK 921   NORMALIZED FREE ENERGY PREDICTED BY IDOCK:   -3.05 KCAL/MOL
REMARK 922        TOTAL FREE ENERGY PREDICTED BY IDOCK:   -5.13 KCAL/MOL
REMARK 923 INTER-LIGAND FREE ENERGY PREDICTED BY IDOCK:   -4.56 KCAL/MOL
REMARK 924 INTRA-LIGAND FREE ENERGY PREDICTED BY IDOCK:   -0.57 KCAL/MOL
REMARK 927      BINDING AFFINITY PREDICTED BY RF-SCORE:    0.00 PKD
ROOT
HETATM    1  C   UNL     1     -11.659  11.737  67.565  1.00  0.00    -0.361 C  
HETATM    2  C   UNL     1     -11.274  12.114  68.996  1.00  0.00    -0.260 C  
HETATM    3  C   UNL     1     -12.114  11.311  69.990  1.00  0.00    -0.425 C  
ENDROOT
BRANCH   2   4
HETATM    4  N   UNL     1      -9.838  11.857  69.139  1.00  0.00    -0.396 NA 
HETATM    5  H   UNL     1      -9.677  11.050  69.742  1.00  0.00     0.000 HD 
BRANCH   4   6
HETATM    6  C   UNL     1      -9.135  11.697  67.870  1.00  0.00    -0.171 C  
BRANCH   6   7
HETATM    7  C   UNL     1      -8.164  10.518  67.942  1.00  0.00    -0.107 C  
BRANCH   7   8
HETATM    8  C   UNL     1      -8.821   9.150  67.669  1.00  0.00    -0.123 C  
BRANCH   8   9
HETATM    9  C   UNL     1      -8.372   8.009  68.619  1.00  0.00    -0.127 C  
HETATM   10  C   UNL     1      -8.705   6.638  68.010  1.00  0.00    -0.117 A  
HETATM   11  C   UNL     1      -9.226   7.990  69.894  1.00  0.00    -0.152 A  
HETATM   12  C   UNL     1      -9.328   8.968  70.874  1.00  0.00    -0.326 A  
HETATM   13  C   UNL     1      -8.222   6.082  66.833  1.00  0.00    -0.105 A  
HETATM   14  C   UNL     1     -10.249   8.772  71.901  1.00  0.00    -0.415 A  
HETATM   15  C   UNL     1     -11.051   7.618  71.933  1.00  0.00    -0.290 A  
HETATM   16  C   UNL     1     -10.933   6.630  70.949  1.00  0.00    -0.315 A  
HETATM   17  C   UNL     1      -8.742   4.853  66.430  1.00  0.00    -0.113 A  
HETATM   18  C   UNL     1      -9.726   4.204  67.194  1.00  0.00    -0.224 A  
HETATM   19  C   UNL     1     -10.204   4.769  68.382  1.00  0.00    -0.052 A  
HETATM   20  C   UNL     1      -9.688   5.989  68.789  1.00  0.00    -0.156 A  
HETATM   21  C   UNL     1     -10.010   6.816  69.936  1.00  0.00    -0.184 A  
BRANCH   9  22
HETATM   22  C   UNL     1      -6.867   8.132  68.941  1.00  0.00    -0.061 C  
HETATM   23  H1  UNL     1      -5.506   8.047  70.460  1.00  0.00     0.000 HD 
HETATM   24  N   UNL     1      -6.500   7.966  70.247  1.00  0.00    -0.037 N  
HETATM   25  O   UNL     1      -6.002   8.372  68.101  1.00  0.00    -0.044 OA 
HETATM   26  H2  UNL     1      -7.188   7.771  70.976  1.00  0.00     0.000 HD 
ENDBRANCH   9  22
ENDBRANCH   8   9
ENDBRANCH   7   8
ENDBRANCH   6   7
ENDBRANCH   4   6
ENDBRANCH   2   4
TORSDOF 6
ENDMDL
MODEL      202
REMARK 921   NORMALIZED FREE ENERGY PREDICTED BY IDOCK:   -3.05 KCAL/MOL
REMARK 922        TOTAL FREE ENERGY PREDICTED BY IDOCK:   -5.13 KCAL/MOL
REMARK 923 INTER-LIGAND FREE ENERGY PREDICTED BY IDOCK:   -4.42 KCAL/MOL
REMARK 924 INTRA-LIGAND FREE ENERGY PREDICTED BY IDOCK:   -0.71 KCAL/MOL
REMARK 927      BINDING AFFINITY PREDICTED BY RF-SCORE:    0.00 PKD
ROOT
HETATM    1  C   UNL     1      -8.014   9.989  63.175  1.00  0.00    -0.148 C  
HETATM    2  C   UNL     1      -7.700   9.185  64.438  1.00  0.00    -0.119 C  
HETATM    3  C   UNL     1      -7.841   7.690  64.153  1.00  0.00    -0.133 C  
ENDROOT
BRANCH   2   4
HETATM    4  N   UNL     1      -6.344   9.552  64.857  1.00  0.00    -0.077 NA 
HETATM    5  H   UNL     1      -5.693   9.469  64.076  1.00  0.00     0.000 HD 
BRANCH   4   6
HETATM    6  C   UNL     1      -6.248  10.875  65.466  1.00  0.00     0.022 C  
BRANCH   6   7
HETATM    7  C   UNL     1      -7.446  11.131  66.381  1.00  0.00    -0.103 C  
BRANCH   7   8
HETATM    8  C   UNL     1      -7.456  12.535  67.018  1.00  0.00    -0.009 C  
BRANCH   8   9
HETATM    9  C   UNL     1      -8.787  12.927  67.713  1.00  0.00    -0.188 C  
HETATM   10  C   UNL     1      -9.436  11.696  68.365  1.00  0.00    -0.193 A  
HETATM   11  C   UNL     1      -9.850  13.318  66.679  1.00  0.00    -0.276 A  
HETATM   12  C   UNL     1      -9.830  14.382  65.787  1.00  0.00    -0.330 A  
HETATM   13  C   UNL     1      -8.935  10.901  69.387  1.00  0.00     0.104 A  
HETATM   14  C   UNL     1     -10.873  14.485  64.867  1.00  0.00    -0.436 A  
HETATM   15  C   UNL     1     -11.905  13.533  64.846  1.00  0.00    -0.402 A  
HETATM   16  C   UNL     1     -11.926  12.471  65.758  1.00  0.00    -0.482 A  
HETATM   17  C   UNL     1      -9.665   9.772  69.756  1.00  0.00    -0.256 A  
HETATM   18  C   UNL     1     -10.869   9.453  69.107  1.00  0.00    -0.176 A  
HETATM   19  C   UNL     1     -11.370  10.262  68.080  1.00  0.00    -0.233 A  
HETATM   20  C   UNL     1     -10.650  11.387  67.713  1.00  0.00    -0.231 A  
HETATM   21  C   UNL     1     -10.900  12.373  66.680  1.00  0.00    -0.281 A  
BRANCH   9  22
HETATM   22  C   UNL     1      -8.550  14.051  68.743  1.00  0.00    -0.032 C  
HETATM   23  H1  UNL     1      -7.128  14.913  69.928  1.00  0.00     0.000 HD 
HETATM   24  N   UNL     1      -7.285  14.170  69.247  1.00  0.00    -0.249 N  
HETATM   25  O   UNL     1      -9.424  14.825  69.129  1.00  0.00    -0.188 OA 
HETATM   26  H2  UNL     1      -6.532  13.545  68.956  1.00  0.00     0.000 HD 
ENDBRANCH   9  22
ENDBRANCH   8   9
ENDBRANCH   7   8
ENDBRANCH   6   7
ENDBRANCH   4   6
ENDBRANCH   2   4
TORSDOF 6
ENDMDL
MODEL      203
REMARK 921   NORMALIZED FREE ENERGY PREDICTED BY IDOCK:   -3.04 KCAL/MOL
REMARK 922        TOTAL FREE ENERGY PREDICTED BY IDOCK:   -5.11 KCAL/MOL
REMARK 923 INTER-LIGAND FREE ENERGY PREDICTED BY IDOCK:   -4.08 KCAL/MOL
REMARK 924 INTRA-LIGAND FREE ENERGY PREDICTED BY IDOCK:   -1.02 KCAL/MOL
REMARK 927      BINDING AFFINITY PREDICTED BY RF-SCORE:    0.00 PKD
ROOT
HETATM    1  C   UNL     1      -9.221   9.618  64.946  1.00  0.00    -0.306 C  
HETATM    2  C   UNL     1      -9.147   8.922  66.306  1.00  0.00    -0.190 C  
HETATM    3  C   UNL     1      -8.978   7.415  66.111  1.00  0.00    -0.182 C  
ENDROOT
BRANCH   2   4
HETATM    4  N   UNL     1      -8.027   9.522  67.037  1.00  0.00    -0.108 NA 
HETATM    5  H   UNL     1      -7.456  10.092  66.414  1.00  0.00     0.000 HD 
BRANCH   4   6
HETATM    6  C   UNL     1      -8.430  10.293  68.210  1.00  0.00    -0.121 C  
BRANCH   6   7
HETATM    7  C   UNL     1      -8.592   9.375  69.423  1.00  0.00    -0.148 C  
BRANCH   7   8
HETATM    8  C   UNL     1      -7.546   8.245  69.495  1.00  0.00    -0.095 C  
BRANCH   8   9
HETATM    9  C   UNL     1      -7.920   7.068  70.434  1.00  0.00    -0.113 C  
HETATM   10  C   UNL     1      -9.441   6.851  70.444  1.00  0.00    -0.169 A  
HETATM   11  C   UNL     1      -7.657   7.432  71.901  1.00  0.00    -0.084 A  
HETATM   12  C   UNL     1      -6.444   7.726  72.508  1.00  0.00    -0.063 A  
HETATM   13  C   UNL     1     -10.264   6.494  69.383  1.00  0.00    -0.214 A  
HETATM   14  C   UNL     1      -6.460   8.127  73.843  1.00  0.00    -0.132 A  
HETATM   15  C   UNL     1      -7.673   8.234  74.544  1.00  0.00    -0.298 A  
HETATM   16  C   UNL     1      -8.892   7.923  73.929  1.00  0.00    -0.315 A  
HETATM   17  C   UNL     1     -11.639   6.445  69.610  1.00  0.00    -0.351 A  
HETATM   18  C   UNL     1     -12.169   6.751  70.874  1.00  0.00    -0.386 A  
HETATM   19  C   UNL     1     -11.332   7.105  71.940  1.00  0.00    -0.294 A  
HETATM   20  C   UNL     1      -9.965   7.151  71.720  1.00  0.00    -0.186 A  
HETATM   21  C   UNL     1      -8.877   7.512  72.608  1.00  0.00    -0.180 A  
BRANCH   9  22
HETATM   22  C   UNL     1      -7.170   5.784  70.020  1.00  0.00    -0.069 C  
HETATM   23  H1  UNL     1      -5.616   5.087  68.895  1.00  0.00     0.000 HD 
HETATM   24  N   UNL     1      -6.112   5.935  69.169  1.00  0.00    -0.030 N  
HETATM   25  O   UNL     1      -7.473   4.657  70.406  1.00  0.00    -0.049 OA 
HETATM   26  H2  UNL     1      -5.831   6.853  68.822  1.00  0.00     0.000 HD 
ENDBRANCH   9  22
ENDBRANCH   8   9
ENDBRANCH   7   8
ENDBRANCH   6   7
ENDBRANCH   4   6
ENDBRANCH   2   4
TORSDOF 6
ENDMDL
MODEL      204
REMARK 921   NORMALIZED FREE ENERGY PREDICTED BY IDOCK:   -3.00 KCAL/MOL
REMARK 922        TOTAL FREE ENERGY PREDICTED BY IDOCK:   -5.06 KCAL/MOL
REMARK 923 INTER-LIGAND FREE ENERGY PREDICTED BY IDOCK:   -4.45 KCAL/MOL
REMARK 924 INTRA-LIGAND FREE ENERGY PREDICTED BY IDOCK:   -0.62 KCAL/MOL
REMARK 927      BINDING AFFINITY PREDICTED BY RF-SCORE:    0.00 PKD
ROOT
HETATM    1  C   UNL     1      -9.088   2.027  72.810  1.00  0.00    -0.097 C  
HETATM    2  C   UNL     1      -9.949   2.851  71.852  1.00  0.00    -0.143 C  
HETATM    3  C   UNL     1     -10.713   3.923  72.631  1.00  0.00    -0.115 C  
ENDROOT
BRANCH   2   4
HETATM    4  N   UNL     1      -9.050   3.422  70.846  1.00  0.00    -0.102 NA 
HETATM    5  H   UNL     1      -8.629   2.684  70.281  1.00  0.00     0.000 HD 
BRANCH   4   6
HETATM    6  C   UNL     1      -9.676   4.427  69.992  1.00  0.00    -0.216 C  
BRANCH   6   7
HETATM    7  C   UNL     1      -8.659   5.493  69.585  1.00  0.00    -0.108 C  
BRANCH   7   8
HETATM    8  C   UNL     1      -9.294   6.832  69.158  1.00  0.00    -0.135 C  
BRANCH   8   9
HETATM    9  C   UNL     1      -8.998   8.025  70.103  1.00  0.00    -0.150 C  
HETATM   10  C   UNL     1      -8.888   7.545  71.558  1.00  0.00    -0.133 A  
HETATM   11  C   UNL     1     -10.203   8.970  70.187  1.00  0.00    -0.224 A  
HETATM   12  C   UNL     1     -10.775   9.724  69.171  1.00  0.00    -0.242 A  
HETATM   13  C   UNL     1      -7.966   6.660  72.103  1.00  0.00    -0.097 A  
HETATM   14  C   UNL     1     -11.934  10.442  69.462  1.00  0.00    -0.175 A  
HETATM   15  C   UNL     1     -12.504  10.393  70.745  1.00  0.00    -0.461 A  
HETATM   16  C   UNL     1     -11.914   9.641  71.768  1.00  0.00    -0.421 A  
HETATM   17  C   UNL     1      -8.119   6.297  73.440  1.00  0.00    -0.111 A  
HETATM   18  C   UNL     1      -9.177   6.811  74.207  1.00  0.00    -0.246 A  
HETATM   19  C   UNL     1     -10.100   7.706  73.652  1.00  0.00    -0.269 A  
HETATM   20  C   UNL     1      -9.950   8.073  72.324  1.00  0.00    -0.304 A  
HETATM   21  C   UNL     1     -10.756   8.939  71.486  1.00  0.00    -0.398 A  
BRANCH   9  22
HETATM   22  C   UNL     1      -7.720   8.767  69.656  1.00  0.00    -0.088 C  
HETATM   23  H1  UNL     1      -6.430  10.262  70.173  1.00  0.00     0.000 HD 
HETATM   24  N   UNL     1      -7.274   9.772  70.468  1.00  0.00    -0.141 N  
HETATM   25  O   UNL     1      -7.099   8.507  68.627  1.00  0.00    -0.069 OA 
HETATM   26  H2  UNL     1      -7.763  10.021  71.328  1.00  0.00     0.000 HD 
ENDBRANCH   9  22
ENDBRANCH   8   9
ENDBRANCH   7   8
ENDBRANCH   6   7
ENDBRANCH   4   6
ENDBRANCH   2   4
TORSDOF 6
ENDMDL
MODEL      205
REMARK 921   NORMALIZED FREE ENERGY PREDICTED BY IDOCK:   -3.00 KCAL/MOL
REMARK 922        TOTAL FREE ENERGY PREDICTED BY IDOCK:   -5.06 KCAL/MOL
REMARK 923 INTER-LIGAND FREE ENERGY PREDICTED BY IDOCK:   -4.23 KCAL/MOL
REMARK 924 INTRA-LIGAND FREE ENERGY PREDICTED BY IDOCK:   -0.82 KCAL/MOL
REMARK 927      BINDING AFFINITY PREDICTED BY RF-SCORE:    0.00 PKD
ROOT
HETATM    1  C   UNL     1     -12.107  14.228  66.364  1.00  0.00    -0.442 C  
HETATM    2  C   UNL     1     -12.036  12.948  65.529  1.00  0.00    -0.436 C  
HETATM    3  C   UNL     1     -11.455  13.259  64.149  1.00  0.00    -0.438 C  
ENDROOT
BRANCH   2   4
HETATM    4  N   UNL     1     -11.219  11.989  66.278  1.00  0.00    -0.328 NA 
HETATM    5  H   UNL     1     -11.697  11.702  67.132  1.00  0.00     0.000 HD 
BRANCH   4   6
HETATM    6  C   UNL     1     -10.815  10.821  65.501  1.00  0.00     0.009 C  
BRANCH   6   7
HETATM    7  C   UNL     1      -9.776  10.002  66.268  1.00  0.00    -0.272 C  
BRANCH   7   8
HETATM    8  C   UNL     1     -10.138   8.510  66.410  1.00  0.00    -0.271 C  
BRANCH   8   9
HETATM    9  C   UNL     1      -9.061   7.640  67.109  1.00  0.00    -0.146 C  
HETATM   10  C   UNL     1      -8.627   8.283  68.436  1.00  0.00    -0.133 A  
HETATM   11  C   UNL     1      -7.745   7.659  66.320  1.00  0.00    -0.089 A  
HETATM   12  C   UNL     1      -7.507   7.187  65.036  1.00  0.00    -0.093 A  
HETATM   13  C   UNL     1      -9.402   8.534  69.561  1.00  0.00    -0.161 A  
HETATM   14  C   UNL     1      -6.245   7.401  64.483  1.00  0.00    -0.037 A  
HETATM   15  C   UNL     1      -5.252   8.081  65.208  1.00  0.00    -0.028 A  
HETATM   16  C   UNL     1      -5.495   8.542  66.507  1.00  0.00    -0.035 A  
HETATM   17  C   UNL     1      -8.810   9.217  70.623  1.00  0.00    -0.287 A  
HETATM   18  C   UNL     1      -7.472   9.637  70.549  1.00  0.00    -0.147 A  
HETATM   19  C   UNL     1      -6.697   9.376  69.413  1.00  0.00    -0.048 A  
HETATM   20  C   UNL     1      -7.279   8.694  68.356  1.00  0.00    -0.085 A  
HETATM   21  C   UNL     1      -6.742   8.319  67.063  1.00  0.00    -0.062 A  
BRANCH   9  22
HETATM   22  C   UNL     1      -9.579   6.202  67.322  1.00  0.00    -0.115 C  
HETATM   23  H1  UNL     1     -11.276   5.075  67.450  1.00  0.00     0.000 HD 
HETATM   24  N   UNL     1     -10.934   6.026  67.309  1.00  0.00    -0.482 N  
HETATM   25  O   UNL     1      -8.849   5.229  67.503  1.00  0.00    -0.107 OA 
HETATM   26  H2  UNL     1     -11.574   6.808  67.166  1.00  0.00     0.000 HD 
ENDBRANCH   9  22
ENDBRANCH   8   9
ENDBRANCH   7   8
ENDBRANCH   6   7
ENDBRANCH   4   6
ENDBRANCH   2   4
TORSDOF 6
ENDMDL
MODEL      206
REMARK 921   NORMALIZED FREE ENERGY PREDICTED BY IDOCK:   -2.99 KCAL/MOL
REMARK 922        TOTAL FREE ENERGY PREDICTED BY IDOCK:   -5.04 KCAL/MOL
REMARK 923 INTER-LIGAND FREE ENERGY PREDICTED BY IDOCK:   -4.29 KCAL/MOL
REMARK 924 INTRA-LIGAND FREE ENERGY PREDICTED BY IDOCK:   -0.75 KCAL/MOL
REMARK 927      BINDING AFFINITY PREDICTED BY RF-SCORE:    0.00 PKD
ROOT
HETATM    1  C   UNL     1      -5.905  13.111  68.528  1.00  0.00    -0.081 C  
HETATM    2  C   UNL     1      -5.609  12.519  69.907  1.00  0.00    -0.112 C  
HETATM    3  C   UNL     1      -5.480  13.641  70.938  1.00  0.00    -0.178 C  
ENDROOT
BRANCH   2   4
HETATM    4  N   UNL     1      -6.699  11.591  70.221  1.00  0.00    -0.483 NA 
HETATM    5  H   UNL     1      -7.516  12.098  70.561  1.00  0.00     0.000 HD 
BRANCH   4   6
HETATM    6  C   UNL     1      -7.066  10.711  69.115  1.00  0.00    -0.095 C  
BRANCH   6   7
HETATM    7  C   UNL     1      -6.816   9.250  69.488  1.00  0.00    -0.048 C  
BRANCH   7   8
HETATM    8  C   UNL     1      -7.875   8.658  70.440  1.00  0.00    -0.091 C  
BRANCH   8   9
HETATM    9  C   UNL     1      -9.137   8.090  69.739  1.00  0.00    -0.149 C  
HETATM   10  C   UNL     1      -8.744   7.288  68.489  1.00  0.00    -0.123 A  
HETATM   11  C   UNL     1      -9.977   9.217  69.124  1.00  0.00    -0.181 A  
HETATM   12  C   UNL     1     -10.625  10.259  69.775  1.00  0.00    -0.312 A  
HETATM   13  C   UNL     1      -7.973   6.136  68.416  1.00  0.00    -0.108 A  
HETATM   14  C   UNL     1     -11.252  11.229  68.995  1.00  0.00    -0.321 A  
HETATM   15  C   UNL     1     -11.220  11.151  67.592  1.00  0.00    -0.364 A  
HETATM   16  C   UNL     1     -10.577  10.090  66.944  1.00  0.00    -0.261 A  
HETATM   17  C   UNL     1      -7.667   5.632  67.153  1.00  0.00    -0.101 A  
HETATM   18  C   UNL     1      -8.127   6.277  65.993  1.00  0.00    -0.119 A  
HETATM   19  C   UNL     1      -8.908   7.436  66.075  1.00  0.00    -0.173 A  
HETATM   20  C   UNL     1      -9.217   7.939  67.329  1.00  0.00    -0.167 A  
HETATM   21  C   UNL     1      -9.965   9.119  67.715  1.00  0.00    -0.236 A  
BRANCH   9  22
HETATM   22  C   UNL     1      -9.964   7.233  70.722  1.00  0.00    -0.186 C  
HETATM   23  H1  UNL     1     -10.125   6.688  72.683  1.00  0.00     0.000 HD 
HETATM   24  N   UNL     1      -9.579   7.254  72.033  1.00  0.00    -0.150 N  
HETATM   25  O   UNL     1     -10.926   6.544  70.390  1.00  0.00    -0.252 OA 
HETATM   26  H2  UNL     1      -8.783   7.810  72.348  1.00  0.00     0.000 HD 
ENDBRANCH   9  22
ENDBRANCH   8   9
ENDBRANCH   7   8
ENDBRANCH   6   7
ENDBRANCH   4   6
ENDBRANCH   2   4
TORSDOF 6
ENDMDL
MODEL      207
REMARK 921   NORMALIZED FREE ENERGY PREDICTED BY IDOCK:   -2.98 KCAL/MOL
REMARK 922        TOTAL FREE ENERGY PREDICTED BY IDOCK:   -5.03 KCAL/MOL
REMARK 923 INTER-LIGAND FREE ENERGY PREDICTED BY IDOCK:   -4.47 KCAL/MOL
REMARK 924 INTRA-LIGAND FREE ENERGY PREDICTED BY IDOCK:   -0.55 KCAL/MOL
REMARK 927      BINDING AFFINITY PREDICTED BY RF-SCORE:    0.00 PKD
ROOT
HETATM    1  C   UNL     1     -10.093   4.587  65.915  1.00  0.00    -0.279 C  
HETATM    2  C   UNL     1      -8.830   4.928  66.709  1.00  0.00    -0.110 C  
HETATM    3  C   UNL     1      -8.779   6.431  66.985  1.00  0.00    -0.115 C  
ENDROOT
BRANCH   2   4
HETATM    4  N   UNL     1      -8.866   4.132  67.939  1.00  0.00    -0.107 NA 
HETATM    5  H   UNL     1      -8.012   4.268  68.479  1.00  0.00     0.000 HD 
BRANCH   4   6
HETATM    6  C   UNL     1     -10.041   4.377  68.770  1.00  0.00     0.104 C  
BRANCH   6   7
HETATM    7  C   UNL     1      -9.663   4.357  70.251  1.00  0.00    -0.281 C  
BRANCH   7   8
HETATM    8  C   UNL     1     -10.747   4.939  71.181  1.00  0.00     0.002 C  
BRANCH   8   9
HETATM    9  C   UNL     1     -10.254   6.053  72.141  1.00  0.00    -0.222 C  
HETATM   10  C   UNL     1     -10.874   7.406  71.759  1.00  0.00    -0.253 A  
HETATM   11  C   UNL     1      -8.761   6.334  71.932  1.00  0.00    -0.136 A  
HETATM   12  C   UNL     1      -7.688   5.477  72.137  1.00  0.00    -0.102 A  
HETATM   13  C   UNL     1     -12.216   7.764  71.754  1.00  0.00    -0.338 A  
HETATM   14  C   UNL     1      -6.416   5.924  71.785  1.00  0.00    -0.053 A  
HETATM   15  C   UNL     1      -6.233   7.204  71.234  1.00  0.00    -0.037 A  
HETATM   16  C   UNL     1      -7.318   8.068  71.043  1.00  0.00    -0.059 A  
HETATM   17  C   UNL     1     -12.553   9.030  71.276  1.00  0.00    -0.336 A  
HETATM   18  C   UNL     1     -11.560   9.910  70.814  1.00  0.00    -0.430 A  
HETATM   19  C   UNL     1     -10.209   9.543  70.827  1.00  0.00    -0.363 A  
HETATM   20  C   UNL     1      -9.869   8.287  71.304  1.00  0.00    -0.225 A  
HETATM   21  C   UNL     1      -8.580   7.632  71.404  1.00  0.00    -0.127 A  
BRANCH   9  22
HETATM   22  C   UNL     1     -10.567   5.683  73.607  1.00  0.00    -0.280 C  
HETATM   23  H1  UNL     1     -10.510   6.389  75.521  1.00  0.00     0.000 HD 
HETATM   24  N   UNL     1     -10.303   6.633  74.553  1.00  0.00    -0.443 N  
HETATM   25  O   UNL     1     -11.026   4.598  73.958  1.00  0.00    -0.287 OA 
HETATM   26  H2  UNL     1      -9.917   7.545  74.302  1.00  0.00     0.000 HD 
ENDBRANCH   9  22
ENDBRANCH   8   9
ENDBRANCH   7   8
ENDBRANCH   6   7
ENDBRANCH   4   6
ENDBRANCH   2   4
TORSDOF 6
ENDMDL
MODEL      208
REMARK 921   NORMALIZED FREE ENERGY PREDICTED BY IDOCK:   -2.97 KCAL/MOL
REMARK 922        TOTAL FREE ENERGY PREDICTED BY IDOCK:   -5.02 KCAL/MOL
REMARK 923 INTER-LIGAND FREE ENERGY PREDICTED BY IDOCK:   -5.05 KCAL/MOL
REMARK 924 INTRA-LIGAND FREE ENERGY PREDICTED BY IDOCK:    0.03 KCAL/MOL
REMARK 927      BINDING AFFINITY PREDICTED BY RF-SCORE:    0.00 PKD
ROOT
HETATM    1  C   UNL     1      -9.087  18.185  68.477  1.00  0.00    -0.318 C  
HETATM    2  C   UNL     1     -10.482  18.459  67.912  1.00  0.00    -0.391 C  
HETATM    3  C   UNL     1     -10.369  18.995  66.485  1.00  0.00    -0.512 C  
ENDROOT
BRANCH   2   4
HETATM    4  N   UNL     1     -11.230  17.201  67.982  1.00  0.00    -0.109 NA 
HETATM    5  H   UNL     1     -12.088  17.263  67.433  1.00  0.00     0.000 HD 
BRANCH   4   6
HETATM    6  C   UNL     1     -10.456  16.027  67.591  1.00  0.00    -0.292 C  
BRANCH   6   7
HETATM    7  C   UNL     1     -11.347  14.785  67.559  1.00  0.00    -0.355 C  
BRANCH   7   8
HETATM    8  C   UNL     1     -10.898  13.670  68.526  1.00  0.00    -0.275 C  
BRANCH   8   9
HETATM    9  C   UNL     1     -10.101  12.516  67.865  1.00  0.00    -0.214 C  
HETATM   10  C   UNL     1     -10.205  11.237  68.710  1.00  0.00    -0.215 A  
HETATM   11  C   UNL     1      -8.592  12.791  67.919  1.00  0.00    -0.181 A  
HETATM   12  C   UNL     1      -7.886  13.824  67.316  1.00  0.00    -0.115 A  
HETATM   13  C   UNL     1     -11.343  10.504  69.021  1.00  0.00    -0.319 A  
HETATM   14  C   UNL     1      -6.522  13.929  67.587  1.00  0.00    -0.161 A  
HETATM   15  C   UNL     1      -5.891  13.018  68.450  1.00  0.00    -0.077 A  
HETATM   16  C   UNL     1      -6.607  11.971  69.043  1.00  0.00    -0.092 A  
HETATM   17  C   UNL     1     -11.208   9.421  69.888  1.00  0.00    -0.180 A  
HETATM   18  C   UNL     1      -9.955   9.088  70.430  1.00  0.00    -0.244 A  
HETATM   19  C   UNL     1      -8.812   9.829  70.108  1.00  0.00    -0.226 A  
HETATM   20  C   UNL     1      -8.941  10.904  69.244  1.00  0.00     0.012 A  
HETATM   21  C   UNL     1      -7.957  11.856  68.766  1.00  0.00    -0.040 A  
BRANCH   9  22
HETATM   22  C   UNL     1     -10.587  12.278  66.420  1.00  0.00    -0.242 C  
HETATM   23  H1  UNL     1     -12.258  12.029  65.275  1.00  0.00     0.000 HD 
HETATM   24  N   UNL     1     -11.937  12.186  66.230  1.00  0.00    -0.259 N  
HETATM   25  O   UNL     1      -9.836  12.164  65.452  1.00  0.00    -0.248 OA 
HETATM   26  H2  UNL     1     -12.593  12.271  67.007  1.00  0.00     0.000 HD 
ENDBRANCH   9  22
ENDBRANCH   8   9
ENDBRANCH   7   8
ENDBRANCH   6   7
ENDBRANCH   4   6
ENDBRANCH   2   4
TORSDOF 6
ENDMDL
MODEL      209
REMARK 921   NORMALIZED FREE ENERGY PREDICTED BY IDOCK:   -2.95 KCAL/MOL
REMARK 922        TOTAL FREE ENERGY PREDICTED BY IDOCK:   -4.99 KCAL/MOL
REMARK 923 INTER-LIGAND FREE ENERGY PREDICTED BY IDOCK:   -3.73 KCAL/MOL
REMARK 924 INTRA-LIGAND FREE ENERGY PREDICTED BY IDOCK:   -1.26 KCAL/MOL
REMARK 927      BINDING AFFINITY PREDICTED BY RF-SCORE:    0.00 PKD
ROOT
HETATM    1  C   UNL     1     -10.571   6.606  70.829  1.00  0.00    -0.265 C  
HETATM    2  C   UNL     1     -11.244   7.776  71.549  1.00  0.00    -0.244 C  
HETATM    3  C   UNL     1     -10.268   8.404  72.545  1.00  0.00    -0.369 C  
ENDROOT
BRANCH   2   4
HETATM    4  N   UNL     1     -11.682   8.722  70.520  1.00  0.00    -0.453 NA 
HETATM    5  H   UNL     1     -12.486   9.259  70.845  1.00  0.00     0.000 HD 
BRANCH   4   6
HETATM    6  C   UNL     1     -10.628   9.615  70.047  1.00  0.00    -0.260 C  
BRANCH   6   7
HETATM    7  C   UNL     1     -10.483   9.513  68.528  1.00  0.00    -0.247 C  
BRANCH   7   8
HETATM    8  C   UNL     1      -9.402  10.444  67.941  1.00  0.00    -0.147 C  
BRANCH   8   9
HETATM    9  C   UNL     1      -8.069   9.744  67.570  1.00  0.00    -0.114 C  
HETATM   10  C   UNL     1      -8.328   8.298  67.119  1.00  0.00    -0.123 A  
HETATM   11  C   UNL     1      -7.202   9.521  68.816  1.00  0.00    -0.073 A  
HETATM   12  C   UNL     1      -6.640  10.475  69.654  1.00  0.00    -0.098 A  
HETATM   13  C   UNL     1      -9.063   7.859  66.025  1.00  0.00    -0.181 A  
HETATM   14  C   UNL     1      -5.966  10.033  70.791  1.00  0.00    -0.095 A  
HETATM   15  C   UNL     1      -5.867   8.661  71.077  1.00  0.00    -0.036 A  
HETATM   16  C   UNL     1      -6.425   7.704  70.220  1.00  0.00    -0.038 A  
HETATM   17  C   UNL     1      -9.240   6.486  65.865  1.00  0.00    -0.022 A  
HETATM   18  C   UNL     1      -8.691   5.579  66.787  1.00  0.00    -0.114 A  
HETATM   19  C   UNL     1      -7.947   6.030  67.884  1.00  0.00    -0.106 A  
HETATM   20  C   UNL     1      -7.765   7.393  68.045  1.00  0.00    -0.116 A  
HETATM   21  C   UNL     1      -7.083   8.139  69.085  1.00  0.00    -0.061 A  
BRANCH   9  22
HETATM   22  C   UNL     1      -7.317  10.547  66.487  1.00  0.00    -0.125 C  
HETATM   23  H1  UNL     1      -7.558  11.961  65.036  1.00  0.00     0.000 HD 
HETATM   24  N   UNL     1      -8.055  11.431  65.751  1.00  0.00    -0.369 N  
HETATM   25  O   UNL     1      -6.115  10.430  66.256  1.00  0.00    -0.073 OA 
HETATM   26  H2  UNL     1      -9.055  11.554  65.909  1.00  0.00     0.000 HD 
ENDBRANCH   9  22
ENDBRANCH   8   9
ENDBRANCH   7   8
ENDBRANCH   6   7
ENDBRANCH   4   6
ENDBRANCH   2   4
TORSDOF 6
ENDMDL
MODEL      210
REMARK 921   NORMALIZED FREE ENERGY PREDICTED BY IDOCK:   -2.93 KCAL/MOL
REMARK 922        TOTAL FREE ENERGY PREDICTED BY IDOCK:   -4.97 KCAL/MOL
REMARK 923 INTER-LIGAND FREE ENERGY PREDICTED BY IDOCK:   -3.98 KCAL/MOL
REMARK 924 INTRA-LIGAND FREE ENERGY PREDICTED BY IDOCK:   -0.99 KCAL/MOL
REMARK 927      BINDING AFFINITY PREDICTED BY RF-SCORE:    0.00 PKD
ROOT
HETATM    1  C   UNL     1     -11.466   4.988  73.273  1.00  0.00    -0.339 C  
HETATM    2  C   UNL     1     -10.412   6.096  73.231  1.00  0.00    -0.243 C  
HETATM    3  C   UNL     1      -9.012   5.484  73.274  1.00  0.00    -0.123 C  
ENDROOT
BRANCH   2   4
HETATM    4  N   UNL     1     -10.649   6.871  72.010  1.00  0.00    -0.210 NA 
HETATM    5  H   UNL     1     -11.459   6.508  71.506  1.00  0.00     0.000 HD 
BRANCH   4   6
HETATM    6  C   UNL     1     -10.787   8.307  72.235  1.00  0.00    -0.338 C  
BRANCH   6   7
HETATM    7  C   UNL     1      -9.888   9.088  71.276  1.00  0.00    -0.376 C  
BRANCH   7   8
HETATM    8  C   UNL     1      -8.419   8.618  71.276  1.00  0.00    -0.226 C  
BRANCH   8   9
HETATM    9  C   UNL     1      -7.717   8.672  69.894  1.00  0.00    -0.084 C  
HETATM   10  C   UNL     1      -7.253  10.103  69.581  1.00  0.00    -0.127 A  
HETATM   11  C   UNL     1      -8.720   8.425  68.760  1.00  0.00    -0.136 A  
HETATM   12  C   UNL     1      -9.463   7.280  68.504  1.00  0.00    -0.140 A  
HETATM   13  C   UNL     1      -6.330  10.876  70.274  1.00  0.00    -0.135 A  
HETATM   14  C   UNL     1     -10.391   7.321  67.464  1.00  0.00    -0.310 A  
HETATM   15  C   UNL     1     -10.568   8.491  66.707  1.00  0.00    -0.227 A  
HETATM   16  C   UNL     1      -9.806   9.637  66.962  1.00  0.00    -0.249 A  
HETATM   17  C   UNL     1      -6.135  12.192  69.857  1.00  0.00    -0.146 A  
HETATM   18  C   UNL     1      -6.855  12.714  68.769  1.00  0.00    -0.096 A  
HETATM   19  C   UNL     1      -7.780  11.927  68.074  1.00  0.00    -0.132 A  
HETATM   20  C   UNL     1      -7.975  10.617  68.482  1.00  0.00    -0.122 A  
HETATM   21  C   UNL     1      -8.875   9.596  67.984  1.00  0.00    -0.119 A  
BRANCH   9  22
HETATM   22  C   UNL     1      -6.541   7.674  69.843  1.00  0.00    -0.041 C  
HETATM   23  H1  UNL     1      -5.463   6.355  70.968  1.00  0.00     0.000 HD 
HETATM   24  N   UNL     1      -6.240   7.015  71.002  1.00  0.00    -0.036 N  
HETATM   25  O   UNL     1      -5.872   7.451  68.835  1.00  0.00    -0.022 OA 
HETATM   26  H2  UNL     1      -6.768   7.175  71.861  1.00  0.00     0.000 HD 
ENDBRANCH   9  22
ENDBRANCH   8   9
ENDBRANCH   7   8
ENDBRANCH   6   7
ENDBRANCH   4   6
ENDBRANCH   2   4
TORSDOF 6
ENDMDL
MODEL      211
REMARK 921   NORMALIZED FREE ENERGY PREDICTED BY IDOCK:   -2.91 KCAL/MOL
REMARK 922        TOTAL FREE ENERGY PREDICTED BY IDOCK:   -4.93 KCAL/MOL
REMARK 923 INTER-LIGAND FREE ENERGY PREDICTED BY IDOCK:   -4.02 KCAL/MOL
REMARK 924 INTRA-LIGAND FREE ENERGY PREDICTED BY IDOCK:   -0.92 KCAL/MOL
REMARK 927      BINDING AFFINITY PREDICTED BY RF-SCORE:    0.00 PKD
ROOT
HETATM    1  C   UNL     1      -9.322   5.506  65.845  1.00  0.00    -0.140 C  
HETATM    2  C   UNL     1      -9.449   6.792  66.664  1.00  0.00    -0.165 C  
HETATM    3  C   UNL     1      -8.787   7.951  65.919  1.00  0.00    -0.183 C  
ENDROOT
BRANCH   2   4
HETATM    4  N   UNL     1     -10.879   7.016  66.895  1.00  0.00    -0.519 NA 
HETATM    5  H   UNL     1     -11.420   6.766  66.067  1.00  0.00     0.000 HD 
BRANCH   4   6
HETATM    6  C   UNL     1     -11.404   6.335  68.075  1.00  0.00     0.110 C  
BRANCH   6   7
HETATM    7  C   UNL     1     -10.387   6.383  69.216  1.00  0.00    -0.248 C  
BRANCH   7   8
HETATM    8  C   UNL     1     -10.988   6.067  70.601  1.00  0.00    -0.376 C  
BRANCH   8   9
HETATM    9  C   UNL     1     -10.006   5.406  71.603  1.00  0.00    -0.239 C  
HETATM   10  C   UNL     1      -8.915   6.402  72.025  1.00  0.00    -0.137 A  
HETATM   11  C   UNL     1      -9.173   4.317  70.916  1.00  0.00    -0.203 A  
HETATM   12  C   UNL     1      -9.614   3.134  70.337  1.00  0.00    -0.192 A  
HETATM   13  C   UNL     1      -9.067   7.606  72.701  1.00  0.00    -0.209 A  
HETATM   14  C   UNL     1      -8.677   2.338  69.680  1.00  0.00    -0.120 A  
HETATM   15  C   UNL     1      -7.330   2.731  69.604  1.00  0.00    -0.044 A  
HETATM   16  C   UNL     1      -6.891   3.918  70.201  1.00  0.00    -0.034 A  
HETATM   17  C   UNL     1      -7.934   8.394  72.896  1.00  0.00    -0.153 A  
HETATM   18  C   UNL     1      -6.680   7.979  72.417  1.00  0.00    -0.080 A  
HETATM   19  C   UNL     1      -6.535   6.762  71.740  1.00  0.00    -0.049 A  
HETATM   20  C   UNL     1      -7.658   5.973  71.548  1.00  0.00    -0.099 A  
HETATM   21  C   UNL     1      -7.815   4.704  70.866  1.00  0.00    -0.077 A  
BRANCH   9  22
HETATM   22  C   UNL     1     -10.770   4.854  72.826  1.00  0.00    -0.228 C  
HETATM   23  H1  UNL     1     -12.474   5.073  73.928  1.00  0.00     0.000 HD 
HETATM   24  N   UNL     1     -11.970   5.438  73.120  1.00  0.00    -0.493 N  
HETATM   25  O   UNL     1     -10.358   3.939  73.537  1.00  0.00    -0.138 OA 
HETATM   26  H2  UNL     1     -12.344   6.203  72.557  1.00  0.00     0.000 HD 
ENDBRANCH   9  22
ENDBRANCH   8   9
ENDBRANCH   7   8
ENDBRANCH   6   7
ENDBRANCH   4   6
ENDBRANCH   2   4
TORSDOF 6
ENDMDL
MODEL      212
REMARK 921   NORMALIZED FREE ENERGY PREDICTED BY IDOCK:   -2.90 KCAL/MOL
REMARK 922        TOTAL FREE ENERGY PREDICTED BY IDOCK:   -4.93 KCAL/MOL
REMARK 923 INTER-LIGAND FREE ENERGY PREDICTED BY IDOCK:   -4.61 KCAL/MOL
REMARK 924 INTRA-LIGAND FREE ENERGY PREDICTED BY IDOCK:   -0.32 KCAL/MOL
REMARK 927      BINDING AFFINITY PREDICTED BY RF-SCORE:    0.00 PKD
ROOT
HETATM    1  C   UNL     1     -10.457  10.605  65.025  1.00  0.00    -0.278 C  
HETATM    2  C   UNL     1      -9.297   9.638  65.269  1.00  0.00    -0.260 C  
HETATM    3  C   UNL     1      -8.783   9.094  63.936  1.00  0.00    -0.154 C  
ENDROOT
BRANCH   2   4
HETATM    4  N   UNL     1      -8.269  10.375  66.009  1.00  0.00    -0.138 NA 
HETATM    5  H   UNL     1      -8.437  11.379  65.953  1.00  0.00     0.000 HD 
BRANCH   4   6
HETATM    6  C   UNL     1      -8.124   9.957  67.400  1.00  0.00    -0.113 C  
BRANCH   6   7
HETATM    7  C   UNL     1      -8.406   8.460  67.541  1.00  0.00    -0.129 C  
BRANCH   7   8
HETATM    8  C   UNL     1      -9.278   8.102  68.762  1.00  0.00    -0.144 C  
BRANCH   8   9
HETATM    9  C   UNL     1      -9.758   6.628  68.810  1.00  0.00    -0.130 C  
HETATM   10  C   UNL     1     -10.581   6.371  70.082  1.00  0.00    -0.294 A  
HETATM   11  C   UNL     1      -8.575   5.673  69.017  1.00  0.00    -0.105 A  
HETATM   12  C   UNL     1      -7.494   5.449  68.174  1.00  0.00    -0.076 A  
HETATM   13  C   UNL     1     -11.782   6.956  70.460  1.00  0.00    -0.401 A  
HETATM   14  C   UNL     1      -6.482   4.600  68.619  1.00  0.00    -0.037 A  
HETATM   15  C   UNL     1      -6.558   3.997  69.886  1.00  0.00    -0.033 A  
HETATM   16  C   UNL     1      -7.658   4.216  70.724  1.00  0.00    -0.048 A  
HETATM   17  C   UNL     1     -12.302   6.633  71.713  1.00  0.00    -0.385 A  
HETATM   18  C   UNL     1     -11.623   5.745  72.563  1.00  0.00    -0.321 A  
HETATM   19  C   UNL     1     -10.415   5.155  72.173  1.00  0.00    -0.281 A  
HETATM   20  C   UNL     1      -9.897   5.470  70.927  1.00  0.00    -0.241 A  
HETATM   21  C   UNL     1      -8.670   5.048  70.280  1.00  0.00    -0.127 A  
BRANCH   9  22
HETATM   22  C   UNL     1     -10.560   6.276  67.539  1.00  0.00    -0.278 C  
HETATM   23  H1  UNL     1     -11.982   6.979  66.255  1.00  0.00     0.000 HD 
HETATM   24  N   UNL     1     -11.452   7.211  67.094  1.00  0.00    -0.392 N  
HETATM   25  O   UNL     1     -10.443   5.219  66.923  1.00  0.00    -0.245 OA 
HETATM   26  H2  UNL     1     -11.583   8.100  67.580  1.00  0.00     0.000 HD 
ENDBRANCH   9  22
ENDBRANCH   8   9
ENDBRANCH   7   8
ENDBRANCH   6   7
ENDBRANCH   4   6
ENDBRANCH   2   4
TORSDOF 6
ENDMDL
MODEL      213
REMARK 921   NORMALIZED FREE ENERGY PREDICTED BY IDOCK:   -2.90 KCAL/MOL
REMARK 922        TOTAL FREE ENERGY PREDICTED BY IDOCK:   -4.92 KCAL/MOL
REMARK 923 INTER-LIGAND FREE ENERGY PREDICTED BY IDOCK:   -3.85 KCAL/MOL
REMARK 924 INTRA-LIGAND FREE ENERGY PREDICTED BY IDOCK:   -1.06 KCAL/MOL
REMARK 927      BINDING AFFINITY PREDICTED BY RF-SCORE:    0.00 PKD
ROOT
HETATM    1  C   UNL     1      -9.160   2.456  72.146  1.00  0.00    -0.130 C  
HETATM    2  C   UNL     1      -9.701   3.553  71.227  1.00  0.00    -0.166 C  
HETATM    3  C   UNL     1     -10.392   4.634  72.058  1.00  0.00    -0.234 C  
ENDROOT
BRANCH   2   4
HETATM    4  N   UNL     1      -8.566   4.074  70.460  1.00  0.00    -0.069 NA 
HETATM    5  H   UNL     1      -8.069   3.314  69.994  1.00  0.00     0.000 HD 
BRANCH   4   6
HETATM    6  C   UNL     1      -8.924   5.116  69.503  1.00  0.00    -0.099 C  
BRANCH   6   7
HETATM    7  C   UNL     1      -7.853   6.207  69.475  1.00  0.00    -0.100 C  
BRANCH   7   8
HETATM    8  C   UNL     1      -8.290   7.492  68.743  1.00  0.00    -0.129 C  
BRANCH   8   9
HETATM    9  C   UNL     1      -8.499   8.725  69.661  1.00  0.00    -0.129 C  
HETATM   10  C   UNL     1      -7.395   8.797  70.726  1.00  0.00    -0.080 A  
HETATM   11  C   UNL     1      -9.750   8.555  70.532  1.00  0.00    -0.202 A  
HETATM   12  C   UNL     1     -11.073   8.447  70.124  1.00  0.00    -0.183 A  
HETATM   13  C   UNL     1      -6.028   8.953  70.537  1.00  0.00    -0.033 A  
HETATM   14  C   UNL     1     -12.040   8.199  71.097  1.00  0.00    -0.281 A  
HETATM   15  C   UNL     1     -11.678   8.056  72.447  1.00  0.00    -0.444 A  
HETATM   16  C   UNL     1     -10.344   8.179  72.852  1.00  0.00    -0.333 A  
HETATM   17  C   UNL     1      -5.201   8.896  71.658  1.00  0.00    -0.041 A  
HETATM   18  C   UNL     1      -5.742   8.685  72.937  1.00  0.00    -0.079 A  
HETATM   19  C   UNL     1      -7.121   8.533  73.121  1.00  0.00    -0.052 A  
HETATM   20  C   UNL     1      -7.947   8.593  72.010  1.00  0.00    -0.115 A  
HETATM   21  C   UNL     1      -9.384   8.439  71.892  1.00  0.00    -0.313 A  
BRANCH   9  22
HETATM   22  C   UNL     1      -8.559  10.021  68.823  1.00  0.00    -0.131 C  
HETATM   23  H1  UNL     1      -9.363  11.896  68.763  1.00  0.00     0.000 HD 
HETATM   24  N   UNL     1      -9.323  11.041  69.317  1.00  0.00    -0.409 N  
HETATM   25  O   UNL     1      -7.971  10.175  67.754  1.00  0.00    -0.101 OA 
HETATM   26  H2  UNL     1      -9.831  10.950  70.198  1.00  0.00     0.000 HD 
ENDBRANCH   9  22
ENDBRANCH   8   9
ENDBRANCH   7   8
ENDBRANCH   6   7
ENDBRANCH   4   6
ENDBRANCH   2   4
TORSDOF 6
ENDMDL
MODEL      214
REMARK 921   NORMALIZED FREE ENERGY PREDICTED BY IDOCK:   -2.89 KCAL/MOL
REMARK 922        TOTAL FREE ENERGY PREDICTED BY IDOCK:   -4.91 KCAL/MOL
REMARK 923 INTER-LIGAND FREE ENERGY PREDICTED BY IDOCK:   -4.09 KCAL/MOL
REMARK 924 INTRA-LIGAND FREE ENERGY PREDICTED BY IDOCK:   -0.81 KCAL/MOL
REMARK 927      BINDING AFFINITY PREDICTED BY RF-SCORE:    0.00 PKD
ROOT
HETATM    1  C   UNL     1      -8.681   3.686  68.084  1.00  0.00    -0.130 C  
HETATM    2  C   UNL     1      -8.733   4.640  66.889  1.00  0.00    -0.107 C  
HETATM    3  C   UNL     1      -7.841   4.116  65.764  1.00  0.00    -0.090 C  
ENDROOT
BRANCH   2   4
HETATM    4  N   UNL     1     -10.138   4.751  66.487  1.00  0.00    -0.236 NA 
HETATM    5  H   UNL     1     -10.696   4.022  66.929  1.00  0.00     0.000 HD 
BRANCH   4   6
HETATM    6  C   UNL     1     -10.724   6.065  66.733  1.00  0.00    -0.302 C  
BRANCH   6   7
HETATM    7  C   UNL     1      -9.629   7.092  67.028  1.00  0.00    -0.204 C  
BRANCH   7   8
HETATM    8  C   UNL     1     -10.158   8.416  67.617  1.00  0.00    -0.268 C  
BRANCH   8   9
HETATM    9  C   UNL     1      -9.266   9.040  68.722  1.00  0.00    -0.133 C  
HETATM   10  C   UNL     1      -7.997   8.199  68.929  1.00  0.00    -0.114 A  
HETATM   11  C   UNL     1      -9.935   8.922  70.097  1.00  0.00    -0.207 A  
HETATM   12  C   UNL     1     -11.125   9.495  70.526  1.00  0.00    -0.342 A  
HETATM   13  C   UNL     1      -6.983   7.937  68.017  1.00  0.00    -0.073 A  
HETATM   14  C   UNL     1     -11.589   9.167  71.799  1.00  0.00    -0.457 A  
HETATM   15  C   UNL     1     -10.871   8.277  72.615  1.00  0.00    -0.381 A  
HETATM   16  C   UNL     1      -9.665   7.713  72.181  1.00  0.00    -0.220 A  
HETATM   17  C   UNL     1      -5.967   7.063  68.401  1.00  0.00    -0.025 A  
HETATM   18  C   UNL     1      -5.977   6.467  69.673  1.00  0.00    -0.018 A  
HETATM   19  C   UNL     1      -7.000   6.741  70.589  1.00  0.00    -0.063 A  
HETATM   20  C   UNL     1      -8.010   7.611  70.212  1.00  0.00    -0.101 A  
HETATM   21  C   UNL     1      -9.195   8.048  70.924  1.00  0.00    -0.163 A  
BRANCH   9  22
HETATM   22  C   UNL     1      -8.921  10.505  68.377  1.00  0.00    -0.141 C  
HETATM   23  H1  UNL     1      -9.529  12.115  67.279  1.00  0.00     0.000 HD 
HETATM   24  N   UNL     1      -9.756  11.147  67.507  1.00  0.00    -0.175 N  
HETATM   25  O   UNL     1      -7.952  11.108  68.833  1.00  0.00    -0.141 OA 
HETATM   26  H2  UNL     1     -10.569  10.681  67.103  1.00  0.00     0.000 HD 
ENDBRANCH   9  22
ENDBRANCH   8   9
ENDBRANCH   7   8
ENDBRANCH   6   7
ENDBRANCH   4   6
ENDBRANCH   2   4
TORSDOF 6
ENDMDL
MODEL      215
REMARK 921   NORMALIZED FREE ENERGY PREDICTED BY IDOCK:   -2.89 KCAL/MOL
REMARK 922        TOTAL FREE ENERGY PREDICTED BY IDOCK:   -4.91 KCAL/MOL
REMARK 923 INTER-LIGAND FREE ENERGY PREDICTED BY IDOCK:   -3.94 KCAL/MOL
REMARK 924 INTRA-LIGAND FREE ENERGY PREDICTED BY IDOCK:   -0.97 KCAL/MOL
REMARK 927      BINDING AFFINITY PREDICTED BY RF-SCORE:    0.00 PKD
ROOT
HETATM    1  C   UNL     1      -9.665   4.477  65.571  1.00  0.00    -0.204 C  
HETATM    2  C   UNL     1      -8.184   4.688  65.250  1.00  0.00    -0.117 C  
HETATM    3  C   UNL     1      -8.040   5.633  64.057  1.00  0.00    -0.123 C  
ENDROOT
BRANCH   2   4
HETATM    4  N   UNL     1      -7.550   5.214  66.463  1.00  0.00    -0.087 NA 
HETATM    5  H   UNL     1      -6.569   4.937  66.503  1.00  0.00     0.000 HD 
BRANCH   4   6
HETATM    6  C   UNL     1      -7.683   6.658  66.623  1.00  0.00    -0.102 C  
BRANCH   6   7
HETATM    7  C   UNL     1      -7.837   7.021  68.100  1.00  0.00    -0.118 C  
BRANCH   7   8
HETATM    8  C   UNL     1      -9.298   7.257  68.536  1.00  0.00    -0.141 C  
BRANCH   8   9
HETATM    9  C   UNL     1      -9.555   8.608  69.251  1.00  0.00    -0.166 C  
HETATM   10  C   UNL     1      -9.617   9.755  68.230  1.00  0.00    -0.155 A  
HETATM   11  C   UNL     1      -8.343   9.021  70.096  1.00  0.00    -0.156 A  
HETATM   12  C   UNL     1      -7.803   8.371  71.198  1.00  0.00    -0.117 A  
HETATM   13  C   UNL     1     -10.524   9.933  67.193  1.00  0.00    -0.305 A  
HETATM   14  C   UNL     1      -6.631   8.885  71.751  1.00  0.00    -0.055 A  
HETATM   15  C   UNL     1      -6.017  10.022  71.200  1.00  0.00    -0.013 A  
HETATM   16  C   UNL     1      -6.576  10.680  70.097  1.00  0.00    -0.151 A  
HETATM   17  C   UNL     1     -10.327  11.008  66.328  1.00  0.00    -0.304 A  
HETATM   18  C   UNL     1      -9.240  11.880  66.505  1.00  0.00    -0.216 A  
HETATM   19  C   UNL     1      -8.333  11.697  67.556  1.00  0.00    -0.151 A  
HETATM   20  C   UNL     1      -8.527  10.631  68.419  1.00  0.00    -0.132 A  
HETATM   21  C   UNL     1      -7.746  10.181  69.555  1.00  0.00    -0.155 A  
BRANCH   9  22
HETATM   22  C   UNL     1     -10.844   8.537  70.098  1.00  0.00    -0.233 C  
HETATM   23  H1  UNL     1     -12.374   7.304  70.650  1.00  0.00     0.000 HD 
HETATM   24  N   UNL     1     -11.523   7.351  70.090  1.00  0.00    -0.469 N  
HETATM   25  O   UNL     1     -11.284   9.476  70.759  1.00  0.00    -0.265 OA 
HETATM   26  H2  UNL     1     -11.193   6.550  69.551  1.00  0.00     0.000 HD 
ENDBRANCH   9  22
ENDBRANCH   8   9
ENDBRANCH   7   8
ENDBRANCH   6   7
ENDBRANCH   4   6
ENDBRANCH   2   4
TORSDOF 6
ENDMDL
MODEL      216
REMARK 921   NORMALIZED FREE ENERGY PREDICTED BY IDOCK:   -2.89 KCAL/MOL
REMARK 922        TOTAL FREE ENERGY PREDICTED BY IDOCK:   -4.91 KCAL/MOL
REMARK 923 INTER-LIGAND FREE ENERGY PREDICTED BY IDOCK:   -4.83 KCAL/MOL
REMARK 924 INTRA-LIGAND FREE ENERGY PREDICTED BY IDOCK:   -0.08 KCAL/MOL
REMARK 927      BINDING AFFINITY PREDICTED BY RF-SCORE:    0.00 PKD
ROOT
HETATM    1  C   UNL     1     -12.684   9.672  71.598  1.00  0.00    -0.499 C  
HETATM    2  C   UNL     1     -11.460   9.170  70.830  1.00  0.00    -0.296 C  
HETATM    3  C   UNL     1     -10.298   8.941  71.797  1.00  0.00    -0.426 C  
ENDROOT
BRANCH   2   4
HETATM    4  N   UNL     1     -11.860   7.945  70.133  1.00  0.00    -0.441 NA 
HETATM    5  H   UNL     1     -11.326   7.833  69.271  1.00  0.00     0.000 HD 
BRANCH   4   6
HETATM    6  C   UNL     1     -11.772   6.740  70.952  1.00  0.00    -0.372 C  
BRANCH   6   7
HETATM    7  C   UNL     1     -10.871   5.703  70.281  1.00  0.00    -0.336 C  
BRANCH   7   8
HETATM    8  C   UNL     1     -10.729   5.891  68.757  1.00  0.00    -0.354 C  
BRANCH   8   9
HETATM    9  C   UNL     1      -9.270   5.881  68.232  1.00  0.00    -0.117 C  
HETATM   10  C   UNL     1      -8.950   7.198  67.507  1.00  0.00    -0.121 A  
HETATM   11  C   UNL     1      -9.103   4.863  67.096  1.00  0.00    -0.122 A  
HETATM   12  C   UNL     1      -9.250   3.483  67.151  1.00  0.00    -0.217 A  
HETATM   13  C   UNL     1      -8.937   8.484  68.031  1.00  0.00    -0.141 A  
HETATM   14  C   UNL     1      -9.143   2.766  65.961  1.00  0.00    -0.122 A  
HETATM   15  C   UNL     1      -8.901   3.427  64.745  1.00  0.00    -0.121 A  
HETATM   16  C   UNL     1      -8.741   4.817  64.700  1.00  0.00    -0.153 A  
HETATM   17  C   UNL     1      -8.707   9.545  67.156  1.00  0.00    -0.137 A  
HETATM   18  C   UNL     1      -8.499   9.312  65.786  1.00  0.00    -0.144 A  
HETATM   19  C   UNL     1      -8.510   8.012  65.267  1.00  0.00    -0.133 A  
HETATM   20  C   UNL     1      -8.734   6.955  66.134  1.00  0.00    -0.153 A  
HETATM   21  C   UNL     1      -8.832   5.531  65.881  1.00  0.00    -0.150 A  
BRANCH   9  22
HETATM   22  C   UNL     1      -8.280   5.618  69.386  1.00  0.00    -0.103 C  
HETATM   23  H1  UNL     1      -7.007   6.534  70.692  1.00  0.00     0.000 HD 
HETATM   24  N   UNL     1      -7.661   6.708  69.930  1.00  0.00    -0.107 N  
HETATM   25  O   UNL     1      -8.021   4.499  69.827  1.00  0.00    -0.060 OA 
HETATM   26  H2  UNL     1      -7.845   7.653  69.589  1.00  0.00     0.000 HD 
ENDBRANCH   9  22
ENDBRANCH   8   9
ENDBRANCH   7   8
ENDBRANCH   6   7
ENDBRANCH   4   6
ENDBRANCH   2   4
TORSDOF 6
ENDMDL
MODEL      217
REMARK 921   NORMALIZED FREE ENERGY PREDICTED BY IDOCK:   -2.87 KCAL/MOL
REMARK 922        TOTAL FREE ENERGY PREDICTED BY IDOCK:   -4.88 KCAL/MOL
REMARK 923 INTER-LIGAND FREE ENERGY PREDICTED BY IDOCK:   -3.74 KCAL/MOL
REMARK 924 INTRA-LIGAND FREE ENERGY PREDICTED BY IDOCK:   -1.14 KCAL/MOL
REMARK 927      BINDING AFFINITY PREDICTED BY RF-SCORE:    0.00 PKD
ROOT
HETATM    1  C   UNL     1      -8.373   1.664  72.735  1.00  0.00    -0.053 C  
HETATM    2  C   UNL     1      -9.202   2.387  71.671  1.00  0.00    -0.101 C  
HETATM    3  C   UNL     1     -10.346   3.153  72.335  1.00  0.00    -0.146 C  
ENDROOT
BRANCH   2   4
HETATM    4  N   UNL     1      -8.288   3.267  70.937  1.00  0.00    -0.064 NA 
HETATM    5  H   UNL     1      -7.502   2.736  70.563  1.00  0.00     0.000 HD 
BRANCH   4   6
HETATM    6  C   UNL     1      -8.932   4.042  69.881  1.00  0.00    -0.098 C  
BRANCH   6   7
HETATM    7  C   UNL     1      -7.967   5.087  69.320  1.00  0.00    -0.079 C  
BRANCH   7   8
HETATM    8  C   UNL     1      -7.489   6.118  70.362  1.00  0.00    -0.090 C  
BRANCH   8   9
HETATM    9  C   UNL     1      -8.294   7.443  70.387  1.00  0.00    -0.129 C  
HETATM   10  C   UNL     1      -9.678   7.221  71.015  1.00  0.00    -0.169 A  
HETATM   11  C   UNL     1      -8.673   7.880  68.966  1.00  0.00    -0.138 A  
HETATM   12  C   UNL     1      -7.830   8.238  67.923  1.00  0.00    -0.114 A  
HETATM   13  C   UNL     1      -9.978   6.814  72.309  1.00  0.00    -0.173 A  
HETATM   14  C   UNL     1      -8.402   8.507  66.681  1.00  0.00    -0.112 A  
HETATM   15  C   UNL     1      -9.791   8.411  66.496  1.00  0.00    -0.338 A  
HETATM   16  C   UNL     1     -10.637   8.062  67.556  1.00  0.00    -0.302 A  
HETATM   17  C   UNL     1     -11.315   6.588  72.631  1.00  0.00    -0.259 A  
HETATM   18  C   UNL     1     -12.324   6.767  71.669  1.00  0.00    -0.409 A  
HETATM   19  C   UNL     1     -12.014   7.182  70.369  1.00  0.00    -0.190 A  
HETATM   20  C   UNL     1     -10.686   7.411  70.046  1.00  0.00    -0.258 A  
HETATM   21  C   UNL     1     -10.074   7.808  68.793  1.00  0.00    -0.205 A  
BRANCH   9  22
HETATM   22  C   UNL     1      -7.506   8.543  71.131  1.00  0.00    -0.093 C  
HETATM   23  H1  UNL     1      -5.699   8.974  71.977  1.00  0.00     0.000 HD 
HETATM   24  N   UNL     1      -6.220   8.248  71.485  1.00  0.00    -0.038 N  
HETATM   25  O   UNL     1      -7.970   9.645  71.419  1.00  0.00    -0.177 OA 
HETATM   26  H2  UNL     1      -5.799   7.344  71.269  1.00  0.00     0.000 HD 
ENDBRANCH   9  22
ENDBRANCH   8   9
ENDBRANCH   7   8
ENDBRANCH   6   7
ENDBRANCH   4   6
ENDBRANCH   2   4
TORSDOF 6
ENDMDL
MODEL      218
REMARK 921   NORMALIZED FREE ENERGY PREDICTED BY IDOCK:   -2.86 KCAL/MOL
REMARK 922        TOTAL FREE ENERGY PREDICTED BY IDOCK:   -4.87 KCAL/MOL
REMARK 923 INTER-LIGAND FREE ENERGY PREDICTED BY IDOCK:   -4.05 KCAL/MOL
REMARK 924 INTRA-LIGAND FREE ENERGY PREDICTED BY IDOCK:   -0.81 KCAL/MOL
REMARK 927      BINDING AFFINITY PREDICTED BY RF-SCORE:    0.00 PKD
ROOT
HETATM    1  C   UNL     1     -11.305  10.062  70.758  1.00  0.00    -0.439 C  
HETATM    2  C   UNL     1     -10.399   9.575  69.626  1.00  0.00    -0.221 C  
HETATM    3  C   UNL     1      -8.988   9.326  70.159  1.00  0.00    -0.239 C  
ENDROOT
BRANCH   2   4
HETATM    4  N   UNL     1     -11.012   8.364  69.073  1.00  0.00    -0.429 NA 
HETATM    5  H   UNL     1     -10.550   8.092  68.206  1.00  0.00     0.000 HD 
BRANCH   4   6
HETATM    6  C   UNL     1     -11.054   7.242  70.005  1.00  0.00    -0.240 C  
BRANCH   6   7
HETATM    7  C   UNL     1     -10.928   5.916  69.253  1.00  0.00    -0.397 C  
BRANCH   7   8
HETATM    8  C   UNL     1     -10.844   6.073  67.721  1.00  0.00    -0.380 C  
BRANCH   8   9
HETATM    9  C   UNL     1      -9.442   5.810  67.114  1.00  0.00    -0.121 C  
HETATM   10  C   UNL     1      -9.511   4.688  66.066  1.00  0.00    -0.171 A  
HETATM   11  C   UNL     1      -8.500   5.192  68.156  1.00  0.00    -0.099 A  
HETATM   12  C   UNL     1      -8.045   5.753  69.342  1.00  0.00    -0.101 A  
HETATM   13  C   UNL     1     -10.221   4.671  64.873  1.00  0.00     0.050 A  
HETATM   14  C   UNL     1      -7.268   4.961  70.185  1.00  0.00    -0.051 A  
HETATM   15  C   UNL     1      -6.963   3.633  69.841  1.00  0.00    -0.041 A  
HETATM   16  C   UNL     1      -7.414   3.079  68.637  1.00  0.00    -0.049 A  
HETATM   17  C   UNL     1     -10.208   3.498  64.120  1.00  0.00    -0.219 A  
HETATM   18  C   UNL     1      -9.497   2.370  64.563  1.00  0.00    -0.128 A  
HETATM   19  C   UNL     1      -8.779   2.397  65.764  1.00  0.00    -0.121 A  
HETATM   20  C   UNL     1      -8.787   3.562  66.514  1.00  0.00    -0.136 A  
HETATM   21  C   UNL     1      -8.174   3.866  67.792  1.00  0.00    -0.094 A  
BRANCH   9  22
HETATM   22  C   UNL     1      -8.858   7.107  66.514  1.00  0.00    -0.141 C  
HETATM   23  H1  UNL     1      -7.251   7.868  65.511  1.00  0.00     0.000 HD 
HETATM   24  N   UNL     1      -7.637   7.011  65.907  1.00  0.00    -0.093 N  
HETATM   25  O   UNL     1      -9.421   8.198  66.559  1.00  0.00    -0.192 OA 
HETATM   26  H2  UNL     1      -7.135   6.124  65.853  1.00  0.00     0.000 HD 
ENDBRANCH   9  22
ENDBRANCH   8   9
ENDBRANCH   7   8
ENDBRANCH   6   7
ENDBRANCH   4   6
ENDBRANCH   2   4
TORSDOF 6
ENDMDL
MODEL      219
REMARK 921   NORMALIZED FREE ENERGY PREDICTED BY IDOCK:   -2.83 KCAL/MOL
REMARK 922        TOTAL FREE ENERGY PREDICTED BY IDOCK:   -4.83 KCAL/MOL
REMARK 923 INTER-LIGAND FREE ENERGY PREDICTED BY IDOCK:   -4.69 KCAL/MOL
REMARK 924 INTRA-LIGAND FREE ENERGY PREDICTED BY IDOCK:   -0.15 KCAL/MOL
REMARK 927      BINDING AFFINITY PREDICTED BY RF-SCORE:    0.00 PKD
ROOT
HETATM    1  C   UNL     1      -9.065   1.608  72.934  1.00  0.00    -0.077 C  
HETATM    2  C   UNL     1     -10.020   2.592  72.257  1.00  0.00    -0.166 C  
HETATM    3  C   UNL     1     -10.668   3.495  73.308  1.00  0.00    -0.291 C  
ENDROOT
BRANCH   2   4
HETATM    4  N   UNL     1      -9.238   3.347  71.274  1.00  0.00    -0.108 NA 
HETATM    5  H   UNL     1      -8.840   2.720  70.576  1.00  0.00     0.000 HD 
BRANCH   4   6
HETATM    6  C   UNL     1      -9.979   4.427  70.630  1.00  0.00    -0.183 C  
BRANCH   6   7
HETATM    7  C   UNL     1      -9.269   5.764  70.842  1.00  0.00    -0.174 C  
BRANCH   7   8
HETATM    8  C   UNL     1     -10.151   6.994  70.546  1.00  0.00    -0.202 C  
BRANCH   8   9
HETATM    9  C   UNL     1      -9.390   8.223  69.986  1.00  0.00    -0.162 C  
HETATM   10  C   UNL     1     -10.352   9.403  69.777  1.00  0.00    -0.240 A  
HETATM   11  C   UNL     1      -8.913   7.965  68.551  1.00  0.00    -0.133 A  
HETATM   12  C   UNL     1      -8.005   7.013  68.106  1.00  0.00    -0.119 A  
HETATM   13  C   UNL     1     -11.097  10.082  70.733  1.00  0.00    -0.407 A  
HETATM   14  C   UNL     1      -7.797   6.899  66.732  1.00  0.00    -0.107 A  
HETATM   15  C   UNL     1      -8.493   7.721  65.832  1.00  0.00    -0.151 A  
HETATM   16  C   UNL     1      -9.397   8.688  66.288  1.00  0.00    -0.282 A  
HETATM   17  C   UNL     1     -11.980  11.068  70.295  1.00  0.00    -0.452 A  
HETATM   18  C   UNL     1     -12.109  11.358  68.926  1.00  0.00    -0.285 A  
HETATM   19  C   UNL     1     -11.351  10.672  67.970  1.00  0.00    -0.350 A  
HETATM   20  C   UNL     1     -10.470   9.694  68.401  1.00  0.00    -0.258 A  
HETATM   21  C   UNL     1      -9.596   8.813  67.651  1.00  0.00    -0.179 A  
BRANCH   9  22
HETATM   22  C   UNL     1      -8.220   8.608  70.917  1.00  0.00    -0.143 C  
HETATM   23  H1  UNL     1      -7.635   8.669  72.872  1.00  0.00     0.000 HD 
HETATM   24  N   UNL     1      -8.408   8.415  72.257  1.00  0.00    -0.163 N  
HETATM   25  O   UNL     1      -7.152   9.073  70.522  1.00  0.00    -0.054 OA 
HETATM   26  H2  UNL     1      -9.281   8.035  72.625  1.00  0.00     0.000 HD 
ENDBRANCH   9  22
ENDBRANCH   8   9
ENDBRANCH   7   8
ENDBRANCH   6   7
ENDBRANCH   4   6
ENDBRANCH   2   4
TORSDOF 6
ENDMDL
MODEL      220
REMARK 921   NORMALIZED FREE ENERGY PREDICTED BY IDOCK:   -2.83 KCAL/MOL
REMARK 922        TOTAL FREE ENERGY PREDICTED BY IDOCK:   -4.82 KCAL/MOL
REMARK 923 INTER-LIGAND FREE ENERGY PREDICTED BY IDOCK:   -4.85 KCAL/MOL
REMARK 924 INTRA-LIGAND FREE ENERGY PREDICTED BY IDOCK:    0.02 KCAL/MOL
REMARK 927      BINDING AFFINITY PREDICTED BY RF-SCORE:    0.00 PKD
ROOT
HETATM    1  C   UNL     1      -5.306  17.104  70.615  1.00  0.00    -0.223 C  
HETATM    2  C   UNL     1      -6.447  16.781  69.648  1.00  0.00    -0.189 C  
HETATM    3  C   UNL     1      -6.117  17.318  68.255  1.00  0.00    -0.149 C  
ENDROOT
BRANCH   2   4
HETATM    4  N   UNL     1      -6.626  15.327  69.662  1.00  0.00    -0.162 NA 
HETATM    5  H   UNL     1      -6.500  14.959  70.605  1.00  0.00     0.000 HD 
BRANCH   4   6
HETATM    6  C   UNL     1      -7.899  14.880  69.104  1.00  0.00    -0.171 C  
BRANCH   6   7
HETATM    7  C   UNL     1      -7.848  13.385  68.785  1.00  0.00    -0.009 C  
BRANCH   7   8
HETATM    8  C   UNL     1      -8.351  13.031  67.371  1.00  0.00    -0.194 C  
BRANCH   8   9
HETATM    9  C   UNL     1      -9.636  12.163  67.334  1.00  0.00    -0.177 C  
HETATM   10  C   UNL     1      -9.304  10.697  67.651  1.00  0.00    -0.156 A  
HETATM   11  C   UNL     1     -10.178  12.049  65.904  1.00  0.00    -0.263 A  
HETATM   12  C   UNL     1     -10.659  13.061  65.083  1.00  0.00    -0.327 A  
HETATM   13  C   UNL     1      -8.775  10.170  68.822  1.00  0.00    -0.138 A  
HETATM   14  C   UNL     1     -11.012  12.731  63.776  1.00  0.00    -0.445 A  
HETATM   15  C   UNL     1     -10.876  11.414  63.307  1.00  0.00    -0.292 A  
HETATM   16  C   UNL     1     -10.403  10.396  64.144  1.00  0.00     0.003 A  
HETATM   17  C   UNL     1      -8.468   8.810  68.848  1.00  0.00    -0.131 A  
HETATM   18  C   UNL     1      -8.689   8.004  67.719  1.00  0.00    -0.127 A  
HETATM   19  C   UNL     1      -9.228   8.541  66.544  1.00  0.00    -0.239 A  
HETATM   20  C   UNL     1      -9.537   9.891  66.515  1.00  0.00    -0.243 A  
HETATM   21  C   UNL     1     -10.065  10.716  65.446  1.00  0.00    -0.356 A  
BRANCH   9  22
HETATM   22  C   UNL     1     -10.697  12.724  68.304  1.00  0.00    -0.239 C  
HETATM   23  H1  UNL     1     -11.833  12.258  69.935  1.00  0.00     0.000 HD 
HETATM   24  N   UNL     1     -11.132  11.887  69.294  1.00  0.00    -0.368 N  
HETATM   25  O   UNL     1     -11.165  13.859  68.230  1.00  0.00    -0.249 OA 
HETATM   26  H2  UNL     1     -10.772  10.937  69.387  1.00  0.00     0.000 HD 
ENDBRANCH   9  22
ENDBRANCH   8   9
ENDBRANCH   7   8
ENDBRANCH   6   7
ENDBRANCH   4   6
ENDBRANCH   2   4
TORSDOF 6
ENDMDL
MODEL      221
REMARK 921   NORMALIZED FREE ENERGY PREDICTED BY IDOCK:   -2.78 KCAL/MOL
REMARK 922        TOTAL FREE ENERGY PREDICTED BY IDOCK:   -4.76 KCAL/MOL
REMARK 923 INTER-LIGAND FREE ENERGY PREDICTED BY IDOCK:   -4.11 KCAL/MOL
REMARK 924 INTRA-LIGAND FREE ENERGY PREDICTED BY IDOCK:   -0.65 KCAL/MOL
REMARK 927      BINDING AFFINITY PREDICTED BY RF-SCORE:    0.00 PKD
ROOT
HETATM    1  C   UNL     1     -10.033   4.692  67.616  1.00  0.00    -0.161 C  
HETATM    2  C   UNL     1      -9.045   5.678  66.989  1.00  0.00    -0.113 C  
HETATM    3  C   UNL     1      -8.004   4.919  66.166  1.00  0.00    -0.107 C  
ENDROOT
BRANCH   2   4
HETATM    4  N   UNL     1      -9.826   6.616  66.179  1.00  0.00    -0.405 NA 
HETATM    5  H   UNL     1     -10.449   6.112  65.547  1.00  0.00     0.000 HD 
BRANCH   4   6
HETATM    6  C   UNL     1     -10.573   7.597  66.961  1.00  0.00    -0.336 C  
BRANCH   6   7
HETATM    7  C   UNL     1      -9.647   8.714  67.442  1.00  0.00    -0.204 C  
BRANCH   7   8
HETATM    8  C   UNL     1      -8.218   8.633  66.868  1.00  0.00    -0.105 C  
BRANCH   8   9
HETATM    9  C   UNL     1      -7.709   9.935  66.198  1.00  0.00    -0.107 C  
HETATM   10  C   UNL     1      -7.322  10.973  67.263  1.00  0.00    -0.106 A  
HETATM   11  C   UNL     1      -8.849  10.659  65.470  1.00  0.00    -0.202 A  
HETATM   12  C   UNL     1      -9.594  10.216  64.386  1.00  0.00    -0.366 A  
HETATM   13  C   UNL     1      -6.331  10.879  68.232  1.00  0.00    -0.056 A  
HETATM   14  C   UNL     1     -10.653  11.011  63.951  1.00  0.00    -0.382 A  
HETATM   15  C   UNL     1     -10.955  12.220  64.600  1.00  0.00    -0.349 A  
HETATM   16  C   UNL     1     -10.191  12.667  65.684  1.00  0.00    -0.290 A  
HETATM   17  C   UNL     1      -6.222  11.916  69.158  1.00  0.00    -0.085 A  
HETATM   18  C   UNL     1      -7.093  13.017  69.108  1.00  0.00     0.030 A  
HETATM   19  C   UNL     1      -8.085  13.106  68.124  1.00  0.00    -0.155 A  
HETATM   20  C   UNL     1      -8.195  12.080  67.200  1.00  0.00    -0.181 A  
HETATM   21  C   UNL     1      -9.131  11.887  66.110  1.00  0.00    -0.162 A  
BRANCH   9  22
HETATM   22  C   UNL     1      -6.528   9.632  65.250  1.00  0.00    -0.083 C  
HETATM   23  H1  UNL     1      -5.496   8.116  64.354  1.00  0.00     0.000 HD 
HETATM   24  N   UNL     1      -6.276   8.317  64.980  1.00  0.00    -0.048 N  
HETATM   25  O   UNL     1      -5.816  10.496  64.742  1.00  0.00    -0.132 OA 
HETATM   26  H2  UNL     1      -6.840   7.569  65.386  1.00  0.00     0.000 HD 
ENDBRANCH   9  22
ENDBRANCH   8   9
ENDBRANCH   7   8
ENDBRANCH   6   7
ENDBRANCH   4   6
ENDBRANCH   2   4
TORSDOF 6
ENDMDL
MODEL      222
REMARK 921   NORMALIZED FREE ENERGY PREDICTED BY IDOCK:   -2.77 KCAL/MOL
REMARK 922        TOTAL FREE ENERGY PREDICTED BY IDOCK:   -4.75 KCAL/MOL
REMARK 923 INTER-LIGAND FREE ENERGY PREDICTED BY IDOCK:   -4.71 KCAL/MOL
REMARK 924 INTRA-LIGAND FREE ENERGY PREDICTED BY IDOCK:   -0.04 KCAL/MOL
REMARK 927      BINDING AFFINITY PREDICTED BY RF-SCORE:    0.00 PKD
ROOT
HETATM    1  C   UNL     1      -9.007   4.812  73.051  1.00  0.00    -0.118 C  
HETATM    2  C   UNL     1      -8.983   6.282  72.627  1.00  0.00    -0.129 C  
HETATM    3  C   UNL     1      -7.565   6.838  72.759  1.00  0.00    -0.091 C  
ENDROOT
BRANCH   2   4
HETATM    4  N   UNL     1      -9.483   6.342  71.251  1.00  0.00    -0.166 NA 
HETATM    5  H   UNL     1     -10.427   6.728  71.229  1.00  0.00     0.000 HD 
BRANCH   4   6
HETATM    6  C   UNL     1      -8.612   7.070  70.334  1.00  0.00    -0.142 C  
BRANCH   6   7
HETATM    7  C   UNL     1      -8.501   6.331  69.000  1.00  0.00    -0.120 C  
BRANCH   7   8
HETATM    8  C   UNL     1      -8.081   7.231  67.820  1.00  0.00    -0.115 C  
BRANCH   8   9
HETATM    9  C   UNL     1      -9.188   7.478  66.762  1.00  0.00    -0.192 C  
HETATM   10  C   UNL     1      -8.569   7.675  65.370  1.00  0.00    -0.074 A  
HETATM   11  C   UNL     1      -9.867   8.835  66.987  1.00  0.00    -0.279 A  
HETATM   12  C   UNL     1     -10.612   9.253  68.081  1.00  0.00    -0.248 A  
HETATM   13  C   UNL     1      -7.820   6.771  64.628  1.00  0.00    -0.116 A  
HETATM   14  C   UNL     1     -11.053  10.575  68.107  1.00  0.00    -0.346 A  
HETATM   15  C   UNL     1     -10.743  11.454  67.056  1.00  0.00    -0.304 A  
HETATM   16  C   UNL     1     -10.003  11.022  65.949  1.00  0.00    -0.289 A  
HETATM   17  C   UNL     1      -7.278   7.207  63.420  1.00  0.00    -0.075 A  
HETATM   18  C   UNL     1      -7.484   8.523  62.974  1.00  0.00    -0.107 A  
HETATM   19  C   UNL     1      -8.244   9.427  63.726  1.00  0.00    -0.165 A  
HETATM   20  C   UNL     1      -8.788   8.997  64.926  1.00  0.00    -0.190 A  
HETATM   21  C   UNL     1      -9.575   9.708  65.914  1.00  0.00    -0.321 A  
BRANCH   9  22
HETATM   22  C   UNL     1     -10.210   6.321  66.766  1.00  0.00    -0.202 C  
HETATM   23  H1  UNL     1     -12.203   5.897  66.884  1.00  0.00     0.000 HD 
HETATM   24  N   UNL     1     -11.528   6.662  66.882  1.00  0.00    -0.767 N  
HETATM   25  O   UNL     1      -9.903   5.133  66.676  1.00  0.00    -0.152 OA 
HETATM   26  H2  UNL     1     -11.824   7.635  66.964  1.00  0.00     0.000 HD 
ENDBRANCH   9  22
ENDBRANCH   8   9
ENDBRANCH   7   8
ENDBRANCH   6   7
ENDBRANCH   4   6
ENDBRANCH   2   4
TORSDOF 6
ENDMDL
MODEL      223
REMARK 921   NORMALIZED FREE ENERGY PREDICTED BY IDOCK:   -2.75 KCAL/MOL
REMARK 922        TOTAL FREE ENERGY PREDICTED BY IDOCK:   -4.72 KCAL/MOL
REMARK 923 INTER-LIGAND FREE ENERGY PREDICTED BY IDOCK:   -4.54 KCAL/MOL
REMARK 924 INTRA-LIGAND FREE ENERGY PREDICTED BY IDOCK:   -0.17 KCAL/MOL
REMARK 927      BINDING AFFINITY PREDICTED BY RF-SCORE:    0.00 PKD
ROOT
HETATM    1  C   UNL     1     -12.039  12.492  65.154  1.00  0.00    -0.503 C  
HETATM    2  C   UNL     1     -10.721  12.971  64.544  1.00  0.00    -0.385 C  
HETATM    3  C   UNL     1     -10.346  14.336  65.121  1.00  0.00    -0.440 C  
ENDROOT
BRANCH   2   4
HETATM    4  N   UNL     1      -9.715  11.945  64.830  1.00  0.00    -0.392 NA 
HETATM    5  H   UNL     1      -9.085  12.256  65.570  1.00  0.00     0.000 HD 
BRANCH   4   6
HETATM    6  C   UNL     1     -10.276  10.637  65.152  1.00  0.00    -0.299 C  
BRANCH   6   7
HETATM    7  C   UNL     1      -9.669  10.098  66.448  1.00  0.00    -0.259 C  
BRANCH   7   8
HETATM    8  C   UNL     1     -10.258   8.746  66.898  1.00  0.00    -0.357 C  
BRANCH   8   9
HETATM    9  C   UNL     1      -9.443   8.012  67.995  1.00  0.00    -0.157 C  
HETATM   10  C   UNL     1      -7.959   8.403  67.915  1.00  0.00    -0.115 A  
HETATM   11  C   UNL     1      -9.375   6.506  67.712  1.00  0.00    -0.118 A  
HETATM   12  C   UNL     1     -10.419   5.592  67.668  1.00  0.00    -0.284 A  
HETATM   13  C   UNL     1      -7.391   9.658  68.089  1.00  0.00    -0.081 A  
HETATM   14  C   UNL     1     -10.128   4.282  67.293  1.00  0.00    -0.043 A  
HETATM   15  C   UNL     1      -8.814   3.906  66.965  1.00  0.00    -0.135 A  
HETATM   16  C   UNL     1      -7.764   4.830  67.025  1.00  0.00    -0.091 A  
HETATM   17  C   UNL     1      -6.020   9.792  67.875  1.00  0.00    -0.050 A  
HETATM   18  C   UNL     1      -5.243   8.686  67.493  1.00  0.00    -0.034 A  
HETATM   19  C   UNL     1      -5.822   7.423  67.324  1.00  0.00    -0.031 A  
HETATM   20  C   UNL     1      -7.183   7.285  67.539  1.00  0.00    -0.090 A  
HETATM   21  C   UNL     1      -8.047   6.128  67.410  1.00  0.00    -0.109 A  
BRANCH   9  22
HETATM   22  C   UNL     1     -10.028   8.305  69.393  1.00  0.00    -0.188 C  
HETATM   23  H1  UNL     1      -9.832   7.862  71.376  1.00  0.00     0.000 HD 
HETATM   24  N   UNL     1      -9.445   7.668  70.452  1.00  0.00    -0.164 N  
HETATM   25  O   UNL     1     -10.975   9.062  69.596  1.00  0.00    -0.220 OA 
HETATM   26  H2  UNL     1      -8.660   7.028  70.326  1.00  0.00     0.000 HD 
ENDBRANCH   9  22
ENDBRANCH   8   9
ENDBRANCH   7   8
ENDBRANCH   6   7
ENDBRANCH   4   6
ENDBRANCH   2   4
TORSDOF 6
ENDMDL
MODEL      224
REMARK 921   NORMALIZED FREE ENERGY PREDICTED BY IDOCK:   -2.73 KCAL/MOL
REMARK 922        TOTAL FREE ENERGY PREDICTED BY IDOCK:   -4.69 KCAL/MOL
REMARK 923 INTER-LIGAND FREE ENERGY PREDICTED BY IDOCK:   -4.62 KCAL/MOL
REMARK 924 INTRA-LIGAND FREE ENERGY PREDICTED BY IDOCK:   -0.07 KCAL/MOL
REMARK 927      BINDING AFFINITY PREDICTED BY RF-SCORE:    0.00 PKD
ROOT
HETATM    1  C   UNL     1      -7.797   8.346  71.937  1.00  0.00    -0.165 C  
HETATM    2  C   UNL     1      -8.263   7.107  71.171  1.00  0.00    -0.112 C  
HETATM    3  C   UNL     1      -9.249   6.308  72.024  1.00  0.00    -0.145 C  
ENDROOT
BRANCH   2   4
HETATM    4  N   UNL     1      -8.858   7.574  69.915  1.00  0.00    -0.140 NA 
HETATM    5  H   UNL     1      -9.622   6.961  69.630  1.00  0.00     0.000 HD 
BRANCH   4   6
HETATM    6  C   UNL     1      -9.303   8.964  69.951  1.00  0.00    -0.166 C  
BRANCH   6   7
HETATM    7  C   UNL     1      -9.074   9.634  68.596  1.00  0.00    -0.132 C  
BRANCH   7   8
HETATM    8  C   UNL     1      -8.539  11.077  68.694  1.00  0.00    -0.157 C  
BRANCH   8   9
HETATM    9  C   UNL     1      -8.423  11.824  67.340  1.00  0.00    -0.158 C  
HETATM   10  C   UNL     1      -7.432  12.992  67.453  1.00  0.00    -0.136 A  
HETATM   11  C   UNL     1      -9.725  12.563  67.008  1.00  0.00    -0.213 A  
HETATM   12  C   UNL     1     -10.983  12.024  66.772  1.00  0.00    -0.329 A  
HETATM   13  C   UNL     1      -6.073  12.941  67.739  1.00  0.00    -0.143 A  
HETATM   14  C   UNL     1     -12.048  12.903  66.584  1.00  0.00    -0.360 A  
HETATM   15  C   UNL     1     -11.847  14.293  66.639  1.00  0.00    -0.442 A  
HETATM   16  C   UNL     1     -10.574  14.829  66.864  1.00  0.00    -0.294 A  
HETATM   17  C   UNL     1      -5.389  14.147  67.883  1.00  0.00    -0.071 A  
HETATM   18  C   UNL     1      -6.060  15.373  67.744  1.00  0.00    -0.173 A  
HETATM   19  C   UNL     1      -7.429  15.416  67.451  1.00  0.00    -0.239 A  
HETATM   20  C   UNL     1      -8.112  14.220  67.304  1.00  0.00    -0.199 A  
HETATM   21  C   UNL     1      -9.513  13.959  67.038  1.00  0.00    -0.256 A  
BRANCH   9  22
HETATM   22  C   UNL     1      -8.017  10.847  66.215  1.00  0.00    -0.161 C  
HETATM   23  H1  UNL     1      -8.417  10.316  64.285  1.00  0.00     0.000 HD 
HETATM   24  N   UNL     1      -8.685  10.961  65.028  1.00  0.00    -0.331 N  
HETATM   25  O   UNL     1      -7.147   9.987  66.333  1.00  0.00    -0.095 OA 
HETATM   26  H2  UNL     1      -9.417  11.659  64.892  1.00  0.00     0.000 HD 
ENDBRANCH   9  22
ENDBRANCH   8   9
ENDBRANCH   7   8
ENDBRANCH   6   7
ENDBRANCH   4   6
ENDBRANCH   2   4
TORSDOF 6
ENDMDL
MODEL      225
REMARK 921   NORMALIZED FREE ENERGY PREDICTED BY IDOCK:   -2.72 KCAL/MOL
REMARK 922        TOTAL FREE ENERGY PREDICTED BY IDOCK:   -4.68 KCAL/MOL
REMARK 923 INTER-LIGAND FREE ENERGY PREDICTED BY IDOCK:   -4.12 KCAL/MOL
REMARK 924 INTRA-LIGAND FREE ENERGY PREDICTED BY IDOCK:   -0.56 KCAL/MOL
REMARK 927      BINDING AFFINITY PREDICTED BY RF-SCORE:    0.00 PKD
ROOT
HETATM    1  C   UNL     1      -9.391   2.104  67.697  1.00  0.00    -0.166 C  
HETATM    2  C   UNL     1      -8.214   3.056  67.920  1.00  0.00    -0.078 C  
HETATM    3  C   UNL     1      -7.009   2.595  67.098  1.00  0.00    -0.048 C  
ENDROOT
BRANCH   2   4
HETATM    4  N   UNL     1      -8.668   4.398  67.546  1.00  0.00    -0.104 NA 
HETATM    5  H   UNL     1      -9.666   4.502  67.725  1.00  0.00     0.000 HD 
BRANCH   4   6
HETATM    6  C   UNL     1      -7.918   5.477  68.183  1.00  0.00    -0.096 C  
BRANCH   6   7
HETATM    7  C   UNL     1      -8.170   5.484  69.692  1.00  0.00    -0.101 C  
BRANCH   7   8
HETATM    8  C   UNL     1      -7.845   6.830  70.372  1.00  0.00    -0.109 C  
BRANCH   8   9
HETATM    9  C   UNL     1      -8.481   7.022  71.773  1.00  0.00    -0.114 C  
HETATM   10  C   UNL     1      -8.889   5.667  72.370  1.00  0.00    -0.135 A  
HETATM   11  C   UNL     1      -9.839   7.728  71.667  1.00  0.00    -0.201 A  
HETATM   12  C   UNL     1     -10.107   9.010  71.205  1.00  0.00    -0.384 A  
HETATM   13  C   UNL     1      -8.073   4.592  72.697  1.00  0.00    -0.099 A  
HETATM   14  C   UNL     1     -11.440   9.405  71.109  1.00  0.00    -0.422 A  
HETATM   15  C   UNL     1     -12.476   8.524  71.464  1.00  0.00    -0.353 A  
HETATM   16  C   UNL     1     -12.197   7.238  71.941  1.00  0.00    -0.348 A  
HETATM   17  C   UNL     1      -8.682   3.419  73.142  1.00  0.00    -0.083 A  
HETATM   18  C   UNL     1     -10.080   3.334  73.252  1.00  0.00    -0.201 A  
HETATM   19  C   UNL     1     -10.896   4.424  72.925  1.00  0.00    -0.257 A  
HETATM   20  C   UNL     1     -10.294   5.592  72.485  1.00  0.00    -0.240 A  
HETATM   21  C   UNL     1     -10.875   6.848  72.051  1.00  0.00    -0.255 A  
BRANCH   9  22
HETATM   22  C   UNL     1      -7.514   7.781  72.708  1.00  0.00    -0.102 C  
HETATM   23  H1  UNL     1      -7.167   8.266  74.660  1.00  0.00     0.000 HD 
HETATM   24  N   UNL     1      -7.806   7.765  74.043  1.00  0.00    -0.157 N  
HETATM   25  O   UNL     1      -6.519   8.391  72.319  1.00  0.00    -0.069 OA 
HETATM   26  H2  UNL     1      -8.624   7.275  74.405  1.00  0.00     0.000 HD 
ENDBRANCH   9  22
ENDBRANCH   8   9
ENDBRANCH   7   8
ENDBRANCH   6   7
ENDBRANCH   4   6
ENDBRANCH   2   4
TORSDOF 6
ENDMDL
MODEL      226
REMARK 921   NORMALIZED FREE ENERGY PREDICTED BY IDOCK:   -2.71 KCAL/MOL
REMARK 922        TOTAL FREE ENERGY PREDICTED BY IDOCK:   -4.66 KCAL/MOL
REMARK 923 INTER-LIGAND FREE ENERGY PREDICTED BY IDOCK:   -3.80 KCAL/MOL
REMARK 924 INTRA-LIGAND FREE ENERGY PREDICTED BY IDOCK:   -0.86 KCAL/MOL
REMARK 927      BINDING AFFINITY PREDICTED BY RF-SCORE:    0.00 PKD
ROOT
HETATM    1  C   UNL     1      -9.562  10.724  68.675  1.00  0.00    -0.187 C  
HETATM    2  C   UNL     1     -10.960  10.889  69.274  1.00  0.00    -0.244 C  
HETATM    3  C   UNL     1     -11.903  11.498  68.235  1.00  0.00    -0.327 C  
ENDROOT
BRANCH   2   4
HETATM    4  N   UNL     1     -11.397   9.563  69.720  1.00  0.00    -0.418 NA 
HETATM    5  H   UNL     1     -11.912   9.087  68.979  1.00  0.00     0.000 HD 
BRANCH   4   6
HETATM    6  C   UNL     1     -10.316   8.718  70.216  1.00  0.00    -0.203 C  
BRANCH   6   7
HETATM    7  C   UNL     1     -10.780   7.265  70.327  1.00  0.00    -0.252 C  
BRANCH   7   8
HETATM    8  C   UNL     1      -9.796   6.247  69.718  1.00  0.00    -0.195 C  
BRANCH   8   9
HETATM    9  C   UNL     1      -8.800   5.618  70.727  1.00  0.00    -0.146 C  
HETATM   10  C   UNL     1      -9.539   5.142  71.987  1.00  0.00    -0.191 A  
HETATM   11  C   UNL     1      -7.863   6.684  71.310  1.00  0.00    -0.102 A  
HETATM   12  C   UNL     1      -6.927   7.462  70.642  1.00  0.00    -0.052 A  
HETATM   13  C   UNL     1     -10.524   4.169  72.088  1.00  0.00    -0.105 A  
HETATM   14  C   UNL     1      -6.253   8.442  71.369  1.00  0.00    -0.043 A  
HETATM   15  C   UNL     1      -6.524   8.635  72.734  1.00  0.00    -0.052 A  
HETATM   16  C   UNL     1      -7.460   7.838  73.403  1.00  0.00    -0.144 A  
HETATM   17  C   UNL     1     -11.122   3.969  73.332  1.00  0.00    -0.341 A  
HETATM   18  C   UNL     1     -10.736   4.735  74.444  1.00  0.00    -0.183 A  
HETATM   19  C   UNL     1      -9.738   5.711  74.335  1.00  0.00    -0.202 A  
HETATM   20  C   UNL     1      -9.139   5.910  73.102  1.00  0.00    -0.130 A  
HETATM   21  C   UNL     1      -8.120   6.855  72.689  1.00  0.00    -0.109 A  
BRANCH   9  22
HETATM   22  C   UNL     1      -8.013   4.466  70.066  1.00  0.00    -0.059 C  
HETATM   23  H1  UNL     1      -8.017   3.177  68.483  1.00  0.00     0.000 HD 
HETATM   24  N   UNL     1      -8.537   3.938  68.920  1.00  0.00    -0.081 N  
HETATM   25  O   UNL     1      -6.964   4.005  70.513  1.00  0.00    -0.033 OA 
HETATM   26  H2  UNL     1      -9.408   4.289  68.519  1.00  0.00     0.000 HD 
ENDBRANCH   9  22
ENDBRANCH   8   9
ENDBRANCH   7   8
ENDBRANCH   6   7
ENDBRANCH   4   6
ENDBRANCH   2   4
TORSDOF 6
ENDMDL
MODEL      227
REMARK 921   NORMALIZED FREE ENERGY PREDICTED BY IDOCK:   -2.70 KCAL/MOL
REMARK 922        TOTAL FREE ENERGY PREDICTED BY IDOCK:   -4.66 KCAL/MOL
REMARK 923 INTER-LIGAND FREE ENERGY PREDICTED BY IDOCK:   -3.26 KCAL/MOL
REMARK 924 INTRA-LIGAND FREE ENERGY PREDICTED BY IDOCK:   -1.40 KCAL/MOL
REMARK 927      BINDING AFFINITY PREDICTED BY RF-SCORE:    0.00 PKD
ROOT
HETATM    1  C   UNL     1     -10.925   8.791  69.875  1.00  0.00    -0.184 C  
HETATM    2  C   UNL     1     -10.957   9.806  68.731  1.00  0.00    -0.148 C  
HETATM    3  C   UNL     1      -9.807  10.802  68.887  1.00  0.00    -0.209 C  
ENDROOT
BRANCH   2   4
HETATM    4  N   UNL     1     -10.876   9.048  67.480  1.00  0.00    -0.466 NA 
HETATM    5  H   UNL     1     -11.807   8.764  67.172  1.00  0.00     0.000 HD 
BRANCH   4   6
HETATM    6  C   UNL     1     -10.172   9.745  66.408  1.00  0.00    -0.217 C  
BRANCH   6   7
HETATM    7  C   UNL     1      -8.944   8.948  65.967  1.00  0.00    -0.235 C  
BRANCH   7   8
HETATM    8  C   UNL     1      -9.036   7.439  66.272  1.00  0.00    -0.195 C  
BRANCH   8   9
HETATM    9  C   UNL     1      -7.866   6.872  67.117  1.00  0.00    -0.109 C  
HETATM   10  C   UNL     1      -8.389   5.873  68.160  1.00  0.00    -0.115 A  
HETATM   11  C   UNL     1      -7.260   7.959  68.014  1.00  0.00    -0.090 A  
HETATM   12  C   UNL     1      -6.615   9.127  67.633  1.00  0.00    -0.064 A  
HETATM   13  C   UNL     1      -9.045   4.668  67.942  1.00  0.00    -0.140 A  
HETATM   14  C   UNL     1      -6.230  10.019  68.632  1.00  0.00    -0.044 A  
HETATM   15  C   UNL     1      -6.497   9.740  69.983  1.00  0.00    -0.074 A  
HETATM   16  C   UNL     1      -7.137   8.553  70.362  1.00  0.00    -0.038 A  
HETATM   17  C   UNL     1      -9.515   3.969  69.053  1.00  0.00    -0.243 A  
HETATM   18  C   UNL     1      -9.329   4.475  70.350  1.00  0.00    -0.217 A  
HETATM   19  C   UNL     1      -8.663   5.688  70.562  1.00  0.00    -0.140 A  
HETATM   20  C   UNL     1      -8.192   6.385  69.462  1.00  0.00    -0.118 A  
HETATM   21  C   UNL     1      -7.508   7.660  69.373  1.00  0.00    -0.089 A  
BRANCH   9  22
HETATM   22  C   UNL     1      -6.801   6.227  66.204  1.00  0.00    -0.057 C  
HETATM   23  H1  UNL     1      -4.966   5.332  66.207  1.00  0.00     0.000 HD 
HETATM   24  N   UNL     1      -5.670   5.759  66.810  1.00  0.00    -0.016 N  
HETATM   25  O   UNL     1      -6.916   6.120  64.984  1.00  0.00    -0.052 OA 
HETATM   26  H2  UNL     1      -5.534   5.832  67.819  1.00  0.00     0.000 HD 
ENDBRANCH   9  22
ENDBRANCH   8   9
ENDBRANCH   7   8
ENDBRANCH   6   7
ENDBRANCH   4   6
ENDBRANCH   2   4
TORSDOF 6
ENDMDL
MODEL      228
REMARK 921   NORMALIZED FREE ENERGY PREDICTED BY IDOCK:   -2.60 KCAL/MOL
REMARK 922        TOTAL FREE ENERGY PREDICTED BY IDOCK:   -4.52 KCAL/MOL
REMARK 923 INTER-LIGAND FREE ENERGY PREDICTED BY IDOCK:   -3.55 KCAL/MOL
REMARK 924 INTRA-LIGAND FREE ENERGY PREDICTED BY IDOCK:   -0.97 KCAL/MOL
REMARK 927      BINDING AFFINITY PREDICTED BY RF-SCORE:    0.00 PKD
ROOT
HETATM    1  C   UNL     1      -9.134   4.122  65.670  1.00  0.00    -0.137 C  
HETATM    2  C   UNL     1      -8.612   5.448  66.228  1.00  0.00    -0.122 C  
HETATM    3  C   UNL     1      -7.359   5.877  65.463  1.00  0.00    -0.076 C  
ENDROOT
BRANCH   2   4
HETATM    4  N   UNL     1      -9.701   6.422  66.114  1.00  0.00    -0.385 NA 
HETATM    5  H   UNL     1      -9.916   6.607  65.134  1.00  0.00     0.000 HD 
BRANCH   4   6
HETATM    6  C   UNL     1     -10.909   6.049  66.843  1.00  0.00    -0.318 C  
BRANCH   6   7
HETATM    7  C   UNL     1     -11.282   7.135  67.852  1.00  0.00     0.064 C  
BRANCH   7   8
HETATM    8  C   UNL     1     -10.291   8.317  67.892  1.00  0.00    -0.278 C  
BRANCH   8   9
HETATM    9  C   UNL     1      -9.395   8.374  69.157  1.00  0.00    -0.151 C  
HETATM   10  C   UNL     1      -7.917   8.516  68.763  1.00  0.00    -0.119 A  
HETATM   11  C   UNL     1      -9.386   7.024  69.884  1.00  0.00    -0.150 A  
HETATM   12  C   UNL     1     -10.450   6.365  70.486  1.00  0.00    -0.270 A  
HETATM   13  C   UNL     1      -7.309   9.557  68.073  1.00  0.00    -0.082 A  
HETATM   14  C   UNL     1     -10.222   5.092  71.005  1.00  0.00    -0.283 A  
HETATM   15  C   UNL     1      -8.952   4.497  70.912  1.00  0.00    -0.165 A  
HETATM   16  C   UNL     1      -7.881   5.172  70.316  1.00  0.00    -0.079 A  
HETATM   17  C   UNL     1      -5.960   9.424  67.744  1.00  0.00    -0.052 A  
HETATM   18  C   UNL     1      -5.245   8.269  68.100  1.00  0.00    -0.034 A  
HETATM   19  C   UNL     1      -5.865   7.226  68.800  1.00  0.00    -0.023 A  
HETATM   20  C   UNL     1      -7.203   7.355  69.132  1.00  0.00    -0.084 A  
HETATM   21  C   UNL     1      -8.100   6.441  69.812  1.00  0.00    -0.121 A  
BRANCH   9  22
HETATM   22  C   UNL     1      -9.843   9.521  70.088  1.00  0.00    -0.244 C  
HETATM   23  H1  UNL     1     -10.883  11.277  70.139  1.00  0.00     0.000 HD 
HETATM   24  N   UNL     1     -10.587  10.519  69.524  1.00  0.00    -0.237 N  
HETATM   25  O   UNL     1      -9.565   9.583  71.284  1.00  0.00    -0.201 OA 
HETATM   26  H2  UNL     1     -10.835  10.507  68.534  1.00  0.00     0.000 HD 
ENDBRANCH   9  22
ENDBRANCH   8   9
ENDBRANCH   7   8
ENDBRANCH   6   7
ENDBRANCH   4   6
ENDBRANCH   2   4
TORSDOF 6
ENDMDL
MODEL      229
REMARK 921   NORMALIZED FREE ENERGY PREDICTED BY IDOCK:   -2.49 KCAL/MOL
REMARK 922        TOTAL FREE ENERGY PREDICTED BY IDOCK:   -4.37 KCAL/MOL
REMARK 923 INTER-LIGAND FREE ENERGY PREDICTED BY IDOCK:   -4.28 KCAL/MOL
REMARK 924 INTRA-LIGAND FREE ENERGY PREDICTED BY IDOCK:   -0.09 KCAL/MOL
REMARK 927      BINDING AFFINITY PREDICTED BY RF-SCORE:    0.00 PKD
ROOT
HETATM    1  C   UNL     1      -9.238  15.078  66.761  1.00  0.00    -0.280 C  
HETATM    2  C   UNL     1     -10.747  14.834  66.734  1.00  0.00    -0.309 C  
HETATM    3  C   UNL     1     -11.272  14.974  65.305  1.00  0.00    -0.368 C  
ENDROOT
BRANCH   2   4
HETATM    4  N   UNL     1     -10.978  13.497  67.288  1.00  0.00    -0.276 NA 
HETATM    5  H   UNL     1     -11.840  13.478  67.833  1.00  0.00     0.000 HD 
BRANCH   4   6
HETATM    6  C   UNL     1     -10.981  12.433  66.288  1.00  0.00    -0.286 C  
BRANCH   6   7
HETATM    7  C   UNL     1      -9.625  11.727  66.253  1.00  0.00    -0.242 C  
BRANCH   7   8
HETATM    8  C   UNL     1      -9.717  10.212  65.978  1.00  0.00    -0.285 C  
BRANCH   8   9
HETATM    9  C   UNL     1      -8.682   9.347  66.743  1.00  0.00    -0.138 C  
HETATM   10  C   UNL     1      -8.682   7.907  66.206  1.00  0.00    -0.174 A  
HETATM   11  C   UNL     1      -9.119   9.127  68.197  1.00  0.00    -0.134 A  
HETATM   12  C   UNL     1      -9.285  10.077  69.197  1.00  0.00    -0.196 A  
HETATM   13  C   UNL     1      -8.363   7.468  64.928  1.00  0.00    -0.045 A  
HETATM   14  C   UNL     1      -9.787   9.652  70.426  1.00  0.00    -0.315 A  
HETATM   15  C   UNL     1     -10.119   8.304  70.637  1.00  0.00    -0.212 A  
HETATM   16  C   UNL     1      -9.935   7.349  69.629  1.00  0.00    -0.182 A  
HETATM   17  C   UNL     1      -8.527   6.113  64.642  1.00  0.00     0.020 A  
HETATM   18  C   UNL     1      -9.002   5.226  65.621  1.00  0.00    -0.160 A  
HETATM   19  C   UNL     1      -9.317   5.675  66.909  1.00  0.00    -0.129 A  
HETATM   20  C   UNL     1      -9.153   7.020  67.199  1.00  0.00    -0.137 A  
HETATM   21  C   UNL     1      -9.425   7.765  68.413  1.00  0.00    -0.148 A  
BRANCH   9  22
HETATM   22  C   UNL     1      -7.277   9.980  66.658  1.00  0.00    -0.099 C  
HETATM   23  H1  UNL     1      -5.521  10.212  67.674  1.00  0.00     0.000 HD 
HETATM   24  N   UNL     1      -6.450   9.793  67.730  1.00  0.00    -0.057 N  
HETATM   25  O   UNL     1      -6.875  10.633  65.697  1.00  0.00    -0.131 OA 
HETATM   26  H2  UNL     1      -6.747   9.261  68.549  1.00  0.00     0.000 HD 
ENDBRANCH   9  22
ENDBRANCH   8   9
ENDBRANCH   7   8
ENDBRANCH   6   7
ENDBRANCH   4   6
ENDBRANCH   2   4
TORSDOF 6
ENDMDL
MODEL      230
REMARK 921   NORMALIZED FREE ENERGY PREDICTED BY IDOCK:   -2.49 KCAL/MOL
REMARK 922        TOTAL FREE ENERGY PREDICTED BY IDOCK:   -4.37 KCAL/MOL
REMARK 923 INTER-LIGAND FREE ENERGY PREDICTED BY IDOCK:   -3.28 KCAL/MOL
REMARK 924 INTRA-LIGAND FREE ENERGY PREDICTED BY IDOCK:   -1.09 KCAL/MOL
REMARK 927      BINDING AFFINITY PREDICTED BY RF-SCORE:    0.00 PKD
ROOT
HETATM    1  C   UNL     1      -9.742  11.105  68.002  1.00  0.00    -0.183 C  
HETATM    2  C   UNL     1     -10.575  11.456  69.236  1.00  0.00    -0.108 C  
HETATM    3  C   UNL     1     -12.053  11.552  68.856  1.00  0.00    -0.270 C  
ENDROOT
BRANCH   2   4
HETATM    4  N   UNL     1     -10.319  10.419  70.240  1.00  0.00    -0.428 NA 
HETATM    5  H   UNL     1     -10.700  10.694  71.145  1.00  0.00     0.000 HD 
BRANCH   4   6
HETATM    6  C   UNL     1     -10.804   9.095  69.861  1.00  0.00    -0.228 C  
BRANCH   6   7
HETATM    7  C   UNL     1     -10.582   8.098  70.999  1.00  0.00    -0.242 C  
BRANCH   7   8
HETATM    8  C   UNL     1     -10.407   6.641  70.527  1.00  0.00    -0.231 C  
BRANCH   8   9
HETATM    9  C   UNL     1      -8.935   6.188  70.339  1.00  0.00    -0.151 C  
HETATM   10  C   UNL     1      -8.021   6.894  71.352  1.00  0.00    -0.108 A  
HETATM   11  C   UNL     1      -8.369   6.704  69.010  1.00  0.00    -0.120 A  
HETATM   12  C   UNL     1      -8.785   6.395  67.722  1.00  0.00    -0.114 A  
HETATM   13  C   UNL     1      -8.051   6.812  72.738  1.00  0.00    -0.108 A  
HETATM   14  C   UNL     1      -8.179   7.065  66.660  1.00  0.00    -0.112 A  
HETATM   15  C   UNL     1      -7.183   8.027  66.895  1.00  0.00    -0.082 A  
HETATM   16  C   UNL     1      -6.759   8.324  68.196  1.00  0.00    -0.065 A  
HETATM   17  C   UNL     1      -7.176   7.622  73.461  1.00  0.00    -0.116 A  
HETATM   18  C   UNL     1      -6.295   8.494  72.800  1.00  0.00    -0.095 A  
HETATM   19  C   UNL     1      -6.268   8.568  71.403  1.00  0.00    -0.048 A  
HETATM   20  C   UNL     1      -7.133   7.762  70.680  1.00  0.00    -0.049 A  
HETATM   21  C   UNL     1      -7.349   7.651  69.251  1.00  0.00    -0.088 A  
BRANCH   9  22
HETATM   22  C   UNL     1      -8.821   4.653  70.452  1.00  0.00    -0.098 C  
HETATM   23  H1  UNL     1      -9.830   2.974  71.026  1.00  0.00     0.000 HD 
HETATM   24  N   UNL     1      -9.906   3.988  70.952  1.00  0.00    -0.182 N  
HETATM   25  O   UNL     1      -7.824   4.012  70.125  1.00  0.00    -0.048 OA 
HETATM   26  H2  UNL     1     -10.751   4.484  71.239  1.00  0.00     0.000 HD 
ENDBRANCH   9  22
ENDBRANCH   8   9
ENDBRANCH   7   8
ENDBRANCH   6   7
ENDBRANCH   4   6
ENDBRANCH   2   4
TORSDOF 6
ENDMDL
MODEL      231
REMARK 921   NORMALIZED FREE ENERGY PREDICTED BY IDOCK:   -2.48 KCAL/MOL
REMARK 922        TOTAL FREE ENERGY PREDICTED BY IDOCK:   -4.35 KCAL/MOL
REMARK 923 INTER-LIGAND FREE ENERGY PREDICTED BY IDOCK:   -3.74 KCAL/MOL
REMARK 924 INTRA-LIGAND FREE ENERGY PREDICTED BY IDOCK:   -0.61 KCAL/MOL
REMARK 927      BINDING AFFINITY PREDICTED BY RF-SCORE:    0.00 PKD
ROOT
HETATM    1  C   UNL     1     -10.579   5.222  66.064  1.00  0.00    -0.175 C  
HETATM    2  C   UNL     1      -9.215   5.914  66.111  1.00  0.00    -0.150 C  
HETATM    3  C   UNL     1      -9.323   7.224  66.893  1.00  0.00    -0.192 C  
ENDROOT
BRANCH   2   4
HETATM    4  N   UNL     1      -8.274   4.972  66.723  1.00  0.00    -0.108 NA 
HETATM    5  H   UNL     1      -7.863   4.364  66.013  1.00  0.00     0.000 HD 
BRANCH   4   6
HETATM    6  C   UNL     1      -7.230   5.609  67.519  1.00  0.00    -0.076 C  
BRANCH   6   7
HETATM    7  C   UNL     1      -7.158   4.979  68.910  1.00  0.00    -0.053 C  
BRANCH   7   8
HETATM    8  C   UNL     1      -7.150   6.005  70.061  1.00  0.00    -0.071 C  
BRANCH   8   9
HETATM    9  C   UNL     1      -8.065   5.647  71.261  1.00  0.00    -0.114 C  
HETATM   10  C   UNL     1      -9.508   6.102  70.993  1.00  0.00    -0.187 A  
HETATM   11  C   UNL     1      -7.706   6.486  72.494  1.00  0.00    -0.099 A  
HETATM   12  C   UNL     1      -6.518   6.495  73.211  1.00  0.00    -0.064 A  
HETATM   13  C   UNL     1     -10.369   5.681  69.988  1.00  0.00    -0.345 A  
HETATM   14  C   UNL     1      -6.384   7.419  74.246  1.00  0.00    -0.077 A  
HETATM   15  C   UNL     1      -7.423   8.317  74.543  1.00  0.00    -0.273 A  
HETATM   16  C   UNL     1      -8.624   8.293  73.824  1.00  0.00    -0.242 A  
HETATM   17  C   UNL     1     -11.610   6.307  69.884  1.00  0.00    -0.361 A  
HETATM   18  C   UNL     1     -11.971   7.336  70.770  1.00  0.00    -0.311 A  
HETATM   19  C   UNL     1     -11.099   7.752  71.784  1.00  0.00    -0.287 A  
HETATM   20  C   UNL     1      -9.866   7.129  71.893  1.00  0.00    -0.172 A  
HETATM   21  C   UNL     1      -8.765   7.368  72.806  1.00  0.00    -0.160 A  
BRANCH   9  22
HETATM   22  C   UNL     1      -7.998   4.134  71.561  1.00  0.00    -0.077 C  
HETATM   23  H1  UNL     1      -9.140   2.501  72.004  1.00  0.00     0.000 HD 
HETATM   24  N   UNL     1      -9.184   3.500  71.806  1.00  0.00    -0.112 N  
HETATM   25  O   UNL     1      -6.954   3.486  71.595  1.00  0.00    -0.029 OA 
HETATM   26  H2  UNL     1     -10.072   4.003  71.792  1.00  0.00     0.000 HD 
ENDBRANCH   9  22
ENDBRANCH   8   9
ENDBRANCH   7   8
ENDBRANCH   6   7
ENDBRANCH   4   6
ENDBRANCH   2   4
TORSDOF 6
ENDMDL
MODEL      232
REMARK 921   NORMALIZED FREE ENERGY PREDICTED BY IDOCK:   -2.38 KCAL/MOL
REMARK 922        TOTAL FREE ENERGY PREDICTED BY IDOCK:   -4.21 KCAL/MOL
REMARK 923 INTER-LIGAND FREE ENERGY PREDICTED BY IDOCK:   -4.47 KCAL/MOL
REMARK 924 INTRA-LIGAND FREE ENERGY PREDICTED BY IDOCK:    0.25 KCAL/MOL
REMARK 927      BINDING AFFINITY PREDICTED BY RF-SCORE:    0.00 PKD
ROOT
HETATM    1  C   UNL     1     -13.129   9.051  71.109  1.00  0.00    -0.177 C  
HETATM    2  C   UNL     1     -11.695   8.704  71.511  1.00  0.00    -0.305 C  
HETATM    3  C   UNL     1     -11.144   7.617  70.587  1.00  0.00    -0.269 C  
ENDROOT
BRANCH   2   4
HETATM    4  N   UNL     1     -10.916   9.943  71.447  1.00  0.00    -0.197 NA 
HETATM    5  H   UNL     1      -9.923   9.738  71.333  1.00  0.00     0.000 HD 
BRANCH   4   6
HETATM    6  C   UNL     1     -11.367  10.875  70.417  1.00  0.00    -0.200 C  
BRANCH   6   7
HETATM    7  C   UNL     1     -10.259  11.117  69.392  1.00  0.00    -0.041 C  
BRANCH   7   8
HETATM    8  C   UNL     1      -9.603   9.824  68.864  1.00  0.00    -0.167 C  
BRANCH   8   9
HETATM    9  C   UNL     1      -9.519   9.720  67.319  1.00  0.00    -0.183 C  
HETATM   10  C   UNL     1      -9.658   8.257  66.870  1.00  0.00    -0.269 A  
HETATM   11  C   UNL     1      -8.107  10.056  66.823  1.00  0.00    -0.118 A  
HETATM   12  C   UNL     1      -7.423  11.260  66.927  1.00  0.00    -0.145 A  
HETATM   13  C   UNL     1     -10.742   7.406  67.042  1.00  0.00    -0.389 A  
HETATM   14  C   UNL     1      -6.102  11.303  66.486  1.00  0.00    -0.139 A  
HETATM   15  C   UNL     1      -5.485  10.156  65.960  1.00  0.00    -0.059 A  
HETATM   16  C   UNL     1      -6.185   8.948  65.845  1.00  0.00    -0.056 A  
HETATM   17  C   UNL     1     -10.605   6.081  66.631  1.00  0.00    -0.312 A  
HETATM   18  C   UNL     1      -9.403   5.627  66.063  1.00  0.00    -0.150 A  
HETATM   19  C   UNL     1      -8.317   6.492  65.889  1.00  0.00    -0.140 A  
HETATM   20  C   UNL     1      -8.450   7.811  66.293  1.00  0.00    -0.143 A  
HETATM   21  C   UNL     1      -7.500   8.906  66.269  1.00  0.00    -0.091 A  
BRANCH   9  22
HETATM   22  C   UNL     1     -10.586  10.617  66.656  1.00  0.00    -0.214 C  
HETATM   23  H1  UNL     1     -11.033  11.638  64.946  1.00  0.00     0.000 HD 
HETATM   24  N   UNL     1     -10.328  11.046  65.384  1.00  0.00    -0.270 N  
HETATM   25  O   UNL     1     -11.631  10.962  67.205  1.00  0.00    -0.431 OA 
HETATM   26  H2  UNL     1      -9.471  10.785  64.895  1.00  0.00     0.000 HD 
ENDBRANCH   9  22
ENDBRANCH   8   9
ENDBRANCH   7   8
ENDBRANCH   6   7
ENDBRANCH   4   6
ENDBRANCH   2   4
TORSDOF 6
ENDMDL
MODEL      233
REMARK 921   NORMALIZED FREE ENERGY PREDICTED BY IDOCK:   -2.37 KCAL/MOL
REMARK 922        TOTAL FREE ENERGY PREDICTED BY IDOCK:   -4.20 KCAL/MOL
REMARK 923 INTER-LIGAND FREE ENERGY PREDICTED BY IDOCK:   -4.48 KCAL/MOL
REMARK 924 INTRA-LIGAND FREE ENERGY PREDICTED BY IDOCK:    0.28 KCAL/MOL
REMARK 927      BINDING AFFINITY PREDICTED BY RF-SCORE:    0.00 PKD
ROOT
HETATM    1  C   UNL     1      -9.881  15.032  67.551  1.00  0.00    -0.217 C  
HETATM    2  C   UNL     1      -8.355  14.928  67.570  1.00  0.00    -0.180 C  
HETATM    3  C   UNL     1      -7.773  15.974  68.522  1.00  0.00    -0.158 C  
ENDROOT
BRANCH   2   4
HETATM    4  N   UNL     1      -8.021  13.558  67.970  1.00  0.00    -0.137 NA 
HETATM    5  H   UNL     1      -7.540  13.554  68.869  1.00  0.00     0.000 HD 
BRANCH   4   6
HETATM    6  C   UNL     1      -9.165  12.652  67.997  1.00  0.00    -0.208 C  
BRANCH   6   7
HETATM    7  C   UNL     1      -8.725  11.246  68.403  1.00  0.00    -0.159 C  
BRANCH   7   8
HETATM    8  C   UNL     1      -8.105  10.429  67.252  1.00  0.00    -0.114 C  
BRANCH   8   9
HETATM    9  C   UNL     1      -9.074   9.433  66.563  1.00  0.00    -0.188 C  
HETATM   10  C   UNL     1      -8.408   8.057  66.403  1.00  0.00    -0.124 A  
HETATM   11  C   UNL     1      -9.315   9.825  65.100  1.00  0.00    -0.322 A  
HETATM   12  C   UNL     1      -9.911  10.978  64.606  1.00  0.00    -0.357 A  
HETATM   13  C   UNL     1      -7.959   7.200  67.398  1.00  0.00    -0.112 A  
HETATM   14  C   UNL     1      -9.934  11.163  63.225  1.00  0.00    -0.419 A  
HETATM   15  C   UNL     1      -9.361  10.211  62.365  1.00  0.00    -0.297 A  
HETATM   16  C   UNL     1      -8.773   9.045  62.869  1.00  0.00    -0.143 A  
HETATM   17  C   UNL     1      -7.297   6.036  67.010  1.00  0.00    -0.076 A  
HETATM   18  C   UNL     1      -7.092   5.747  65.651  1.00  0.00    -0.069 A  
HETATM   19  C   UNL     1      -7.552   6.614  64.653  1.00  0.00    -0.105 A  
HETATM   20  C   UNL     1      -8.214   7.770  65.034  1.00  0.00    -0.123 A  
HETATM   21  C   UNL     1      -8.762   8.851  64.238  1.00  0.00    -0.095 A  
BRANCH   9  22
HETATM   22  C   UNL     1     -10.397   9.330  67.352  1.00  0.00    -0.263 C  
HETATM   23  H1  UNL     1     -11.414   8.185  68.702  1.00  0.00     0.000 HD 
HETATM   24  N   UNL     1     -10.539   8.253  68.181  1.00  0.00    -0.393 N  
HETATM   25  O   UNL     1     -11.312  10.148  67.269  1.00  0.00    -0.221 OA 
HETATM   26  H2  UNL     1      -9.806   7.549  68.275  1.00  0.00     0.000 HD 
ENDBRANCH   9  22
ENDBRANCH   8   9
ENDBRANCH   7   8
ENDBRANCH   6   7
ENDBRANCH   4   6
ENDBRANCH   2   4
TORSDOF 6
ENDMDL
MODEL      234
REMARK 921   NORMALIZED FREE ENERGY PREDICTED BY IDOCK:   -2.36 KCAL/MOL
REMARK 922        TOTAL FREE ENERGY PREDICTED BY IDOCK:   -4.19 KCAL/MOL
REMARK 923 INTER-LIGAND FREE ENERGY PREDICTED BY IDOCK:   -4.16 KCAL/MOL
REMARK 924 INTRA-LIGAND FREE ENERGY PREDICTED BY IDOCK:   -0.03 KCAL/MOL
REMARK 927      BINDING AFFINITY PREDICTED BY RF-SCORE:    0.00 PKD
ROOT
HETATM    1  C   UNL     1      -7.557   8.264  71.867  1.00  0.00    -0.132 C  
HETATM    2  C   UNL     1      -7.384   6.926  71.146  1.00  0.00    -0.078 C  
HETATM    3  C   UNL     1      -8.222   5.850  71.839  1.00  0.00    -0.115 C  
ENDROOT
BRANCH   2   4
HETATM    4  N   UNL     1      -7.780   7.133  69.751  1.00  0.00    -0.106 NA 
HETATM    5  H   UNL     1      -8.269   6.313  69.391  1.00  0.00     0.000 HD 
BRANCH   4   6
HETATM    6  C   UNL     1      -8.573   8.339  69.531  1.00  0.00    -0.134 C  
BRANCH   6   7
HETATM    7  C   UNL     1      -7.902   9.238  68.492  1.00  0.00    -0.090 C  
BRANCH   7   8
HETATM    8  C   UNL     1      -8.009  10.744  68.808  1.00  0.00    -0.136 C  
BRANCH   8   9
HETATM    9  C   UNL     1      -7.714  11.684  67.610  1.00  0.00    -0.133 C  
HETATM   10  C   UNL     1      -7.915  13.153  68.016  1.00  0.00    -0.156 A  
HETATM   11  C   UNL     1      -8.775  11.525  66.514  1.00  0.00    -0.183 A  
HETATM   12  C   UNL     1      -9.061  10.400  65.752  1.00  0.00    -0.197 A  
HETATM   13  C   UNL     1      -7.227  13.879  68.979  1.00  0.00    -0.078 A  
HETATM   14  C   UNL     1     -10.143  10.461  64.876  1.00  0.00    -0.382 A  
HETATM   15  C   UNL     1     -10.920  11.628  64.777  1.00  0.00    -0.351 A  
HETATM   16  C   UNL     1     -10.617  12.763  65.538  1.00  0.00    -0.303 A  
HETATM   17  C   UNL     1      -7.648  15.181  69.242  1.00  0.00    -0.201 A  
HETATM   18  C   UNL     1      -8.739  15.735  68.552  1.00  0.00    -0.184 A  
HETATM   19  C   UNL     1      -9.425  14.998  67.579  1.00  0.00    -0.203 A  
HETATM   20  C   UNL     1      -9.007  13.704  67.312  1.00  0.00    -0.226 A  
HETATM   21  C   UNL     1      -9.536  12.710  66.399  1.00  0.00    -0.248 A  
BRANCH   9  22
HETATM   22  C   UNL     1      -6.290  11.440  67.067  1.00  0.00    -0.122 C  
HETATM   23  H1  UNL     1      -5.227  11.091  65.360  1.00  0.00     0.000 HD 
HETATM   24  N   UNL     1      -6.168  11.252  65.719  1.00  0.00    -0.361 N  
HETATM   25  O   UNL     1      -5.283  11.400  67.772  1.00  0.00    -0.043 OA 
HETATM   26  H2  UNL     1      -6.979  11.273  65.100  1.00  0.00     0.000 HD 
ENDBRANCH   9  22
ENDBRANCH   8   9
ENDBRANCH   7   8
ENDBRANCH   6   7
ENDBRANCH   4   6
ENDBRANCH   2   4
TORSDOF 6
ENDMDL
MODEL      235
REMARK 921   NORMALIZED FREE ENERGY PREDICTED BY IDOCK:   -2.28 KCAL/MOL
REMARK 922        TOTAL FREE ENERGY PREDICTED BY IDOCK:   -4.08 KCAL/MOL
REMARK 923 INTER-LIGAND FREE ENERGY PREDICTED BY IDOCK:   -3.41 KCAL/MOL
REMARK 924 INTRA-LIGAND FREE ENERGY PREDICTED BY IDOCK:   -0.67 KCAL/MOL
REMARK 927      BINDING AFFINITY PREDICTED BY RF-SCORE:    0.00 PKD
ROOT
HETATM    1  C   UNL     1     -12.132  14.264  66.372  1.00  0.00    -0.442 C  
HETATM    2  C   UNL     1     -12.087  13.022  65.481  1.00  0.00    -0.452 C  
HETATM    3  C   UNL     1     -11.756  13.424  64.044  1.00  0.00    -0.465 C  
ENDROOT
BRANCH   2   4
HETATM    4  N   UNL     1     -11.088  12.115  66.054  1.00  0.00    -0.300 NA 
HETATM    5  H   UNL     1     -11.410  11.747  66.950  1.00  0.00     0.000 HD 
BRANCH   4   6
HETATM    6  C   UNL     1     -10.694  11.027  65.164  1.00  0.00    -0.183 C  
BRANCH   6   7
HETATM    7  C   UNL     1      -9.531  10.239  65.766  1.00  0.00    -0.255 C  
BRANCH   7   8
HETATM    8  C   UNL     1      -9.864   8.762  66.062  1.00  0.00    -0.234 C  
BRANCH   8   9
HETATM    9  C   UNL     1      -9.850   8.379  67.565  1.00  0.00    -0.235 C  
HETATM   10  C   UNL     1     -10.452   9.509  68.415  1.00  0.00    -0.261 A  
HETATM   11  C   UNL     1      -8.414   8.328  68.104  1.00  0.00    -0.132 A  
HETATM   12  C   UNL     1      -7.384   7.477  67.724  1.00  0.00    -0.103 A  
HETATM   13  C   UNL     1     -11.745  10.015  68.378  1.00  0.00     0.357 A  
HETATM   14  C   UNL     1      -6.126   7.680  68.289  1.00  0.00    -0.036 A  
HETATM   15  C   UNL     1      -5.913   8.721  69.208  1.00  0.00    -0.041 A  
HETATM   16  C   UNL     1      -6.960   9.566  69.596  1.00  0.00    -0.066 A  
HETATM   17  C   UNL     1     -12.041  11.114  69.183  1.00  0.00    -0.352 A  
HETATM   18  C   UNL     1     -11.055  11.688  70.003  1.00  0.00     0.085 A  
HETATM   19  C   UNL     1      -9.755  11.170  70.038  1.00  0.00     1.186 A  
HETATM   20  C   UNL     1      -9.458  10.075  69.242  1.00  0.00    -0.227 A  
HETATM   21  C   UNL     1      -8.212   9.359  69.049  1.00  0.00    -0.108 A  
BRANCH   9  22
HETATM   22  C   UNL     1     -10.594   7.046  67.792  1.00  0.00    -0.233 C  
HETATM   23  H1  UNL     1     -11.976   5.783  66.978  1.00  0.00     0.000 HD 
HETATM   24  N   UNL     1     -11.484   6.664  66.828  1.00  0.00    -0.727 N  
HETATM   25  O   UNL     1     -10.432   6.328  68.777  1.00  0.00    -0.186 OA 
HETATM   26  H2  UNL     1     -11.650   7.234  65.998  1.00  0.00     0.000 HD 
ENDBRANCH   9  22
ENDBRANCH   8   9
ENDBRANCH   7   8
ENDBRANCH   6   7
ENDBRANCH   4   6
ENDBRANCH   2   4
TORSDOF 6
ENDMDL
MODEL      236
REMARK 921   NORMALIZED FREE ENERGY PREDICTED BY IDOCK:   -2.26 KCAL/MOL
REMARK 922        TOTAL FREE ENERGY PREDICTED BY IDOCK:   -4.05 KCAL/MOL
REMARK 923 INTER-LIGAND FREE ENERGY PREDICTED BY IDOCK:   -3.95 KCAL/MOL
REMARK 924 INTRA-LIGAND FREE ENERGY PREDICTED BY IDOCK:   -0.11 KCAL/MOL
REMARK 927      BINDING AFFINITY PREDICTED BY RF-SCORE:    0.00 PKD
ROOT
HETATM    1  C   UNL     1      -6.287  12.469  67.517  1.00  0.00    -0.154 C  
HETATM    2  C   UNL     1      -6.011  12.686  69.006  1.00  0.00    -0.076 C  
HETATM    3  C   UNL     1      -6.438  14.096  69.414  1.00  0.00    -0.122 C  
ENDROOT
BRANCH   2   4
HETATM    4  N   UNL     1      -6.740  11.645  69.736  1.00  0.00    -0.314 NA 
HETATM    5  H   UNL     1      -7.302  11.084  69.095  1.00  0.00     0.000 HD 
BRANCH   4   6
HETATM    6  C   UNL     1      -5.888  10.787  70.554  1.00  0.00    -0.119 C  
BRANCH   6   7
HETATM    7  C   UNL     1      -6.711   9.667  71.191  1.00  0.00     0.039 C  
BRANCH   7   8
HETATM    8  C   UNL     1      -7.906   9.205  70.333  1.00  0.00    -0.140 C  
BRANCH   8   9
HETATM    9  C   UNL     1      -8.097   7.668  70.253  1.00  0.00    -0.114 C  
HETATM   10  C   UNL     1      -8.964   7.296  69.040  1.00  0.00    -0.134 A  
HETATM   11  C   UNL     1      -8.965   7.162  71.412  1.00  0.00    -0.135 A  
HETATM   12  C   UNL     1      -8.692   7.207  72.773  1.00  0.00    -0.139 A  
HETATM   13  C   UNL     1      -8.693   7.507  67.694  1.00  0.00    -0.122 A  
HETATM   14  C   UNL     1      -9.680   6.771  73.653  1.00  0.00    -0.247 A  
HETATM   15  C   UNL     1     -10.916   6.308  73.171  1.00  0.00    -0.251 A  
HETATM   16  C   UNL     1     -11.179   6.253  71.797  1.00  0.00    -0.334 A  
HETATM   17  C   UNL     1      -9.678   7.166  66.768  1.00  0.00    -0.252 A  
HETATM   18  C   UNL     1     -10.905   6.629  67.190  1.00  0.00    -0.471 A  
HETATM   19  C   UNL     1     -11.168   6.415  68.548  1.00  0.00    -0.321 A  
HETATM   20  C   UNL     1     -10.192   6.749  69.472  1.00  0.00    -0.202 A  
HETATM   21  C   UNL     1     -10.195   6.672  70.920  1.00  0.00    -0.219 A  
BRANCH   9  22
HETATM   22  C   UNL     1      -6.729   6.954  70.209  1.00  0.00    -0.052 C  
HETATM   23  H1  UNL     1      -5.009   6.776  69.124  1.00  0.00     0.000 HD 
HETATM   24  N   UNL     1      -5.913   7.248  69.153  1.00  0.00    -0.025 N  
HETATM   25  O   UNL     1      -6.349   6.147  71.055  1.00  0.00    -0.041 OA 
HETATM   26  H2  UNL     1      -6.194   7.908  68.427  1.00  0.00     0.000 HD 
ENDBRANCH   9  22
ENDBRANCH   8   9
ENDBRANCH   7   8
ENDBRANCH   6   7
ENDBRANCH   4   6
ENDBRANCH   2   4
TORSDOF 6
ENDMDL
MODEL      237
REMARK 921   NORMALIZED FREE ENERGY PREDICTED BY IDOCK:   -2.03 KCAL/MOL
REMARK 922        TOTAL FREE ENERGY PREDICTED BY IDOCK:   -3.75 KCAL/MOL
REMARK 923 INTER-LIGAND FREE ENERGY PREDICTED BY IDOCK:   -3.97 KCAL/MOL
REMARK 924 INTRA-LIGAND FREE ENERGY PREDICTED BY IDOCK:    0.21 KCAL/MOL
REMARK 927      BINDING AFFINITY PREDICTED BY RF-SCORE:    0.00 PKD
ROOT
HETATM    1  C   UNL     1      -7.696   9.185  63.177  1.00  0.00    -0.114 C  
HETATM    2  C   UNL     1      -7.765   8.058  64.209  1.00  0.00    -0.128 C  
HETATM    3  C   UNL     1      -7.551   6.709  63.520  1.00  0.00    -0.100 C  
ENDROOT
BRANCH   2   4
HETATM    4  N   UNL     1      -6.746   8.338  65.224  1.00  0.00    -0.052 NA 
HETATM    5  H   UNL     1      -5.811   8.272  64.821  1.00  0.00     0.000 HD 
BRANCH   4   6
HETATM    6  C   UNL     1      -6.922   9.617  65.903  1.00  0.00    -0.097 C  
BRANCH   6   7
HETATM    7  C   UNL     1      -8.316   9.706  66.525  1.00  0.00    -0.120 C  
BRANCH   7   8
HETATM    8  C   UNL     1      -9.069  11.008  66.186  1.00  0.00    -0.208 C  
BRANCH   8   9
HETATM    9  C   UNL     1      -9.618  11.783  67.413  1.00  0.00    -0.173 C  
HETATM   10  C   UNL     1     -10.262  13.105  66.970  1.00  0.00    -0.250 A  
HETATM   11  C   UNL     1      -8.472  12.286  68.299  1.00  0.00    -0.173 A  
HETATM   12  C   UNL     1      -7.537  11.538  69.002  1.00  0.00    -0.058 A  
HETATM   13  C   UNL     1     -11.363  13.290  66.144  1.00  0.00    -0.335 A  
HETATM   14  C   UNL     1      -6.520  12.220  69.669  1.00  0.00    -0.073 A  
HETATM   15  C   UNL     1      -6.446  13.622  69.620  1.00  0.00    -0.083 A  
HETATM   16  C   UNL     1      -7.400  14.371  68.921  1.00  0.00    -0.127 A  
HETATM   17  C   UNL     1     -11.714  14.595  65.803  1.00  0.00    -0.302 A  
HETATM   18  C   UNL     1     -10.971  15.686  66.282  1.00  0.00    -0.201 A  
HETATM   19  C   UNL     1      -9.865  15.492  67.118  1.00  0.00    -0.236 A  
HETATM   20  C   UNL     1      -9.515  14.197  67.463  1.00  0.00    -0.210 A  
HETATM   21  C   UNL     1      -8.418  13.698  68.270  1.00  0.00    -0.170 A  
BRANCH   9  22
HETATM   22  C   UNL     1     -10.612  10.909  68.206  1.00  0.00    -0.190 C  
HETATM   23  H1  UNL     1     -11.404   9.031  68.330  1.00  0.00     0.000 HD 
HETATM   24  N   UNL     1     -10.747   9.609  67.805  1.00  0.00    -0.339 N  
HETATM   25  O   UNL     1     -11.279  11.316  69.155  1.00  0.00    -0.230 OA 
HETATM   26  H2  UNL     1     -10.215   9.234  67.019  1.00  0.00     0.000 HD 
ENDBRANCH   9  22
ENDBRANCH   8   9
ENDBRANCH   7   8
ENDBRANCH   6   7
ENDBRANCH   4   6
ENDBRANCH   2   4
TORSDOF 6
ENDMDL
MODEL      238
REMARK 921   NORMALIZED FREE ENERGY PREDICTED BY IDOCK:   -2.01 KCAL/MOL
REMARK 922        TOTAL FREE ENERGY PREDICTED BY IDOCK:   -3.72 KCAL/MOL
REMARK 923 INTER-LIGAND FREE ENERGY PREDICTED BY IDOCK:   -4.05 KCAL/MOL
REMARK 924 INTRA-LIGAND FREE ENERGY PREDICTED BY IDOCK:    0.32 KCAL/MOL
REMARK 927      BINDING AFFINITY PREDICTED BY RF-SCORE:    0.00 PKD
ROOT
HETATM    1  C   UNL     1      -7.255   9.535  70.866  1.00  0.00    -0.063 C  
HETATM    2  C   UNL     1      -5.829   9.002  70.718  1.00  0.00    -0.039 C  
HETATM    3  C   UNL     1      -5.129   9.003  72.077  1.00  0.00    -0.048 C  
ENDROOT
BRANCH   2   4
HETATM    4  N   UNL     1      -5.928   7.660  70.138  1.00  0.00    -0.023 NA 
HETATM    5  H   UNL     1      -5.531   6.965  70.772  1.00  0.00     0.000 HD 
BRANCH   4   6
HETATM    6  C   UNL     1      -7.281   7.281  69.745  1.00  0.00    -0.082 C  
BRANCH   6   7
HETATM    7  C   UNL     1      -7.366   7.094  68.230  1.00  0.00    -0.100 C  
BRANCH   7   8
HETATM    8  C   UNL     1      -7.625   8.400  67.453  1.00  0.00    -0.098 C  
BRANCH   8   9
HETATM    9  C   UNL     1      -8.953   8.432  66.653  1.00  0.00    -0.181 C  
HETATM   10  C   UNL     1      -8.673   8.414  65.142  1.00  0.00    -0.118 A  
HETATM   11  C   UNL     1      -9.658   9.785  66.814  1.00  0.00    -0.228 A  
HETATM   12  C   UNL     1     -10.169  10.354  67.973  1.00  0.00    -0.199 A  
HETATM   13  C   UNL     1      -8.046   7.424  64.397  1.00  0.00    -0.070 A  
HETATM   14  C   UNL     1     -10.684  11.647  67.895  1.00  0.00    -0.241 A  
HETATM   15  C   UNL     1     -10.677  12.349  66.677  1.00  0.00    -0.263 A  
HETATM   16  C   UNL     1     -10.173  11.763  65.510  1.00  0.00    -0.291 A  
HETATM   17  C   UNL     1      -7.817   7.670  63.044  1.00  0.00    -0.133 A  
HETATM   18  C   UNL     1      -8.208   8.886  62.460  1.00  0.00    -0.178 A  
HETATM   19  C   UNL     1      -8.843   9.877  63.217  1.00  0.00    -0.257 A  
HETATM   20  C   UNL     1      -9.077   9.636  64.561  1.00  0.00    -0.287 A  
HETATM   21  C   UNL     1      -9.673  10.475  65.582  1.00  0.00    -0.289 A  
BRANCH   9  22
HETATM   22  C   UNL     1      -9.866   7.259  67.070  1.00  0.00    -0.203 C  
HETATM   23  H1  UNL     1     -11.745   6.797  67.719  1.00  0.00     0.000 HD 
HETATM   24  N   UNL     1     -11.142   7.573  67.444  1.00  0.00    -0.541 N  
HETATM   25  O   UNL     1      -9.507   6.083  67.089  1.00  0.00    -0.114 OA 
HETATM   26  H2  UNL     1     -11.477   8.537  67.447  1.00  0.00     0.000 HD 
ENDBRANCH   9  22
ENDBRANCH   8   9
ENDBRANCH   7   8
ENDBRANCH   6   7
ENDBRANCH   4   6
ENDBRANCH   2   4
TORSDOF 6
ENDMDL
MODEL      239
REMARK 921   NORMALIZED FREE ENERGY PREDICTED BY IDOCK:   -1.91 KCAL/MOL
REMARK 922        TOTAL FREE ENERGY PREDICTED BY IDOCK:   -3.58 KCAL/MOL
REMARK 923 INTER-LIGAND FREE ENERGY PREDICTED BY IDOCK:   -4.84 KCAL/MOL
REMARK 924 INTRA-LIGAND FREE ENERGY PREDICTED BY IDOCK:    1.26 KCAL/MOL
REMARK 927      BINDING AFFINITY PREDICTED BY RF-SCORE:    0.00 PKD
ROOT
HETATM    1  C   UNL     1      -9.291  15.238  67.123  1.00  0.00    -0.227 C  
HETATM    2  C   UNL     1      -7.770  15.172  66.981  1.00  0.00    -0.123 C  
HETATM    3  C   UNL     1      -7.111  16.120  67.983  1.00  0.00    -0.141 C  
ENDROOT
BRANCH   2   4
HETATM    4  N   UNL     1      -7.377  13.775  67.189  1.00  0.00    -0.331 NA 
HETATM    5  H   UNL     1      -6.531  13.721  67.756  1.00  0.00     0.000 HD 
BRANCH   4   6
HETATM    6  C   UNL     1      -8.431  12.942  67.759  1.00  0.00    -0.185 C  
BRANCH   6   7
HETATM    7  C   UNL     1      -7.845  11.956  68.770  1.00  0.00    -0.052 C  
BRANCH   7   8
HETATM    8  C   UNL     1      -7.847  10.491  68.287  1.00  0.00    -0.111 C  
BRANCH   8   9
HETATM    9  C   UNL     1      -9.194  10.000  67.696  1.00  0.00    -0.148 C  
HETATM   10  C   UNL     1      -9.229  10.228  66.177  1.00  0.00    -0.192 A  
HETATM   11  C   UNL     1     -10.353  10.890  68.162  1.00  0.00    -0.202 A  
HETATM   12  C   UNL     1     -10.821  11.084  69.455  1.00  0.00    -0.278 A  
HETATM   13  C   UNL     1      -8.403   9.675  65.207  1.00  0.00    -0.139 A  
HETATM   14  C   UNL     1     -11.834  12.021  69.651  1.00  0.00    -0.401 A  
HETATM   15  C   UNL     1     -12.355  12.749  68.568  1.00  0.00     0.245 A  
HETATM   16  C   UNL     1     -11.888  12.539  67.265  1.00  0.00    -0.381 A  
HETATM   17  C   UNL     1      -8.563  10.103  63.889  1.00  0.00    -0.197 A  
HETATM   18  C   UNL     1      -9.531  11.067  63.561  1.00  0.00    -0.315 A  
HETATM   19  C   UNL     1     -10.363  11.616  64.544  1.00  0.00    -0.349 A  
HETATM   20  C   UNL     1     -10.210  11.191  65.854  1.00  0.00    -0.303 A  
HETATM   21  C   UNL     1     -10.893  11.599  67.066  1.00  0.00    -0.311 A  
BRANCH   9  22
HETATM   22  C   UNL     1      -9.434   8.517  68.050  1.00  0.00    -0.140 C  
HETATM   23  H1  UNL     1     -10.890   7.113  68.317  1.00  0.00     0.000 HD 
HETATM   24  N   UNL     1     -10.732   8.093  68.083  1.00  0.00    -0.433 N  
HETATM   25  O   UNL     1      -8.534   7.717  68.302  1.00  0.00    -0.124 OA 
HETATM   26  H2  UNL     1     -11.507   8.726  67.884  1.00  0.00     0.000 HD 
ENDBRANCH   9  22
ENDBRANCH   8   9
ENDBRANCH   7   8
ENDBRANCH   6   7
ENDBRANCH   4   6
ENDBRANCH   2   4
TORSDOF 6
ENDMDL
MODEL      240
REMARK 921   NORMALIZED FREE ENERGY PREDICTED BY IDOCK:   -1.88 KCAL/MOL
REMARK 922        TOTAL FREE ENERGY PREDICTED BY IDOCK:   -3.54 KCAL/MOL
REMARK 923 INTER-LIGAND FREE ENERGY PREDICTED BY IDOCK:   -4.40 KCAL/MOL
REMARK 924 INTRA-LIGAND FREE ENERGY PREDICTED BY IDOCK:    0.86 KCAL/MOL
REMARK 927      BINDING AFFINITY PREDICTED BY RF-SCORE:    0.00 PKD
ROOT
HETATM    1  C   UNL     1      -8.815  10.552  65.470  1.00  0.00    -0.200 C  
HETATM    2  C   UNL     1      -8.300   9.213  64.939  1.00  0.00    -0.162 C  
HETATM    3  C   UNL     1      -8.360   9.201  63.411  1.00  0.00    -0.192 C  
ENDROOT
BRANCH   2   4
HETATM    4  N   UNL     1      -6.937   9.043  65.449  1.00  0.00    -0.079 NA 
HETATM    5  H   UNL     1      -6.397   9.900  65.323  1.00  0.00     0.000 HD 
BRANCH   4   6
HETATM    6  C   UNL     1      -6.874   8.597  66.837  1.00  0.00    -0.070 C  
BRANCH   6   7
HETATM    7  C   UNL     1      -8.278   8.319  67.374  1.00  0.00    -0.121 C  
BRANCH   7   8
HETATM    8  C   UNL     1      -8.424   8.551  68.892  1.00  0.00    -0.123 C  
BRANCH   8   9
HETATM    9  C   UNL     1      -9.798   8.145  69.485  1.00  0.00    -0.181 C  
HETATM   10  C   UNL     1     -10.714   9.372  69.610  1.00  0.00    -0.251 A  
HETATM   11  C   UNL     1      -9.657   7.722  70.953  1.00  0.00    -0.173 A  
HETATM   12  C   UNL     1      -8.948   6.647  71.473  1.00  0.00    -0.139 A  
HETATM   13  C   UNL     1     -11.199  10.188  68.596  1.00  0.00    -0.223 A  
HETATM   14  C   UNL     1      -8.883   6.514  72.859  1.00  0.00    -0.127 A  
HETATM   15  C   UNL     1      -9.515   7.448  73.698  1.00  0.00    -0.321 A  
HETATM   16  C   UNL     1     -10.240   8.521  73.166  1.00  0.00     0.377 A  
HETATM   17  C   UNL     1     -11.945  11.309  68.958  1.00  0.00    -0.393 A  
HETATM   18  C   UNL     1     -12.193  11.599  70.310  1.00  0.00    -0.401 A  
HETATM   19  C   UNL     1     -11.705  10.768  71.326  1.00  0.00    -0.027 A  
HETATM   20  C   UNL     1     -10.966   9.652  70.971  1.00  0.00    -0.431 A  
HETATM   21  C   UNL     1     -10.317   8.648  71.791  1.00  0.00    -0.386 A  
BRANCH   9  22
HETATM   22  C   UNL     1     -10.451   7.038  68.631  1.00  0.00    -0.204 C  
HETATM   23  H1  UNL     1     -11.540   5.315  68.739  1.00  0.00     0.000 HD 
HETATM   24  N   UNL     1     -11.108   6.046  69.304  1.00  0.00    -0.380 N  
HETATM   25  O   UNL     1     -10.407   7.001  67.403  1.00  0.00    -0.191 OA 
HETATM   26  H2  UNL     1     -11.164   6.037  70.323  1.00  0.00     0.000 HD 
ENDBRANCH   9  22
ENDBRANCH   8   9
ENDBRANCH   7   8
ENDBRANCH   6   7
ENDBRANCH   4   6
ENDBRANCH   2   4
TORSDOF 6
ENDMDL
MODEL      241
REMARK 921   NORMALIZED FREE ENERGY PREDICTED BY IDOCK:   -1.85 KCAL/MOL
REMARK 922        TOTAL FREE ENERGY PREDICTED BY IDOCK:   -3.51 KCAL/MOL
REMARK 923 INTER-LIGAND FREE ENERGY PREDICTED BY IDOCK:   -3.40 KCAL/MOL
REMARK 924 INTRA-LIGAND FREE ENERGY PREDICTED BY IDOCK:   -0.11 KCAL/MOL
REMARK 927      BINDING AFFINITY PREDICTED BY RF-SCORE:    0.00 PKD
ROOT
HETATM    1  C   UNL     1      -8.694   9.432  64.476  1.00  0.00    -0.233 C  
HETATM    2  C   UNL     1      -7.381   8.978  65.115  1.00  0.00    -0.096 C  
HETATM    3  C   UNL     1      -6.920  10.008  66.146  1.00  0.00    -0.107 C  
ENDROOT
BRANCH   2   4
HETATM    4  N   UNL     1      -7.622   7.659  65.707  1.00  0.00    -0.085 NA 
HETATM    5  H   UNL     1      -6.755   7.266  66.073  1.00  0.00     0.000 HD 
BRANCH   4   6
HETATM    6  C   UNL     1      -8.661   7.651  66.733  1.00  0.00    -0.129 C  
BRANCH   6   7
HETATM    7  C   UNL     1      -8.145   6.992  68.012  1.00  0.00    -0.119 C  
BRANCH   7   8
HETATM    8  C   UNL     1      -8.496   7.766  69.299  1.00  0.00    -0.138 C  
BRANCH   8   9
HETATM    9  C   UNL     1      -9.568   7.091  70.194  1.00  0.00    -0.164 C  
HETATM   10  C   UNL     1      -9.160   7.166  71.673  1.00  0.00    -0.141 A  
HETATM   11  C   UNL     1      -9.598   5.574  69.965  1.00  0.00    -0.218 A  
HETATM   12  C   UNL     1      -9.921   4.887  68.802  1.00  0.00    -0.206 A  
HETATM   13  C   UNL     1      -8.970   8.298  72.455  1.00  0.00    -0.305 A  
HETATM   14  C   UNL     1      -9.784   3.500  68.801  1.00  0.00    -0.027 A  
HETATM   15  C   UNL     1      -9.324   2.825  69.945  1.00  0.00    -0.202 A  
HETATM   16  C   UNL     1      -9.013   3.523  71.118  1.00  0.00    -0.158 A  
HETATM   17  C   UNL     1      -8.505   8.123  73.758  1.00  0.00    -0.309 A  
HETATM   18  C   UNL     1      -8.236   6.838  74.257  1.00  0.00    -0.149 A  
HETATM   19  C   UNL     1      -8.434   5.701  73.464  1.00  0.00    -0.115 A  
HETATM   20  C   UNL     1      -8.900   5.870  72.170  1.00  0.00    -0.136 A  
HETATM   21  C   UNL     1      -9.161   4.898  71.126  1.00  0.00    -0.191 A  
BRANCH   9  22
HETATM   22  C   UNL     1     -10.953   7.731  69.958  1.00  0.00    -0.214 C  
HETATM   23  H1  UNL     1     -12.712   8.211  70.876  1.00  0.00     0.000 HD 
HETATM   24  N   UNL     1     -11.797   7.788  71.031  1.00  0.00    -0.315 N  
HETATM   25  O   UNL     1     -11.327   8.179  68.876  1.00  0.00     0.355 OA 
HETATM   26  H2  UNL     1     -11.526   7.423  71.945  1.00  0.00     0.000 HD 
ENDBRANCH   9  22
ENDBRANCH   8   9
ENDBRANCH   7   8
ENDBRANCH   6   7
ENDBRANCH   4   6
ENDBRANCH   2   4
TORSDOF 6
ENDMDL
MODEL      242
REMARK 921   NORMALIZED FREE ENERGY PREDICTED BY IDOCK:   -1.75 KCAL/MOL
REMARK 922        TOTAL FREE ENERGY PREDICTED BY IDOCK:   -3.38 KCAL/MOL
REMARK 923 INTER-LIGAND FREE ENERGY PREDICTED BY IDOCK:   -3.06 KCAL/MOL
REMARK 924 INTRA-LIGAND FREE ENERGY PREDICTED BY IDOCK:   -0.32 KCAL/MOL
REMARK 927      BINDING AFFINITY PREDICTED BY RF-SCORE:    0.00 PKD
ROOT
HETATM    1  C   UNL     1     -11.215   8.590  70.510  1.00  0.00    -0.262 C  
HETATM    2  C   UNL     1     -11.251   9.848  69.641  1.00  0.00    -0.208 C  
HETATM    3  C   UNL     1      -9.934  10.612  69.776  1.00  0.00    -0.002 C  
ENDROOT
BRANCH   2   4
HETATM    4  N   UNL     1     -11.510   9.415  68.265  1.00  0.00    -0.206 NA 
HETATM    5  H   UNL     1     -12.491   9.552  68.024  1.00  0.00     0.000 HD 
BRANCH   4   6
HETATM    6  C   UNL     1     -10.645  10.046  67.272  1.00  0.00    -0.257 C  
BRANCH   6   7
HETATM    7  C   UNL     1      -9.359   9.239  67.093  1.00  0.00    -0.166 C  
BRANCH   7   8
HETATM    8  C   UNL     1      -9.594   7.736  66.841  1.00  0.00    -0.256 C  
BRANCH   8   9
HETATM    9  C   UNL     1      -8.399   6.818  67.209  1.00  0.00    -0.121 C  
HETATM   10  C   UNL     1      -8.740   5.348  66.918  1.00  0.00    -0.112 A  
HETATM   11  C   UNL     1      -8.182   6.784  68.728  1.00  0.00    -0.121 A  
HETATM   12  C   UNL     1      -7.830   7.830  69.569  1.00  0.00    -0.111 A  
HETATM   13  C   UNL     1      -9.036   4.762  65.695  1.00  0.00    -0.145 A  
HETATM   14  C   UNL     1      -7.784   7.582  70.940  1.00  0.00    -0.090 A  
HETATM   15  C   UNL     1      -8.094   6.309  71.447  1.00  0.00    -0.117 A  
HETATM   16  C   UNL     1      -8.435   5.254  70.592  1.00  0.00    -0.118 A  
HETATM   17  C   UNL     1      -9.409   3.419  65.686  1.00  0.00    -0.147 A  
HETATM   18  C   UNL     1      -9.482   2.687  66.883  1.00  0.00     0.030 A  
HETATM   19  C   UNL     1      -9.176   3.284  68.112  1.00  0.00    -0.243 A  
HETATM   20  C   UNL     1      -8.802   4.618  68.125  1.00  0.00    -0.119 A  
HETATM   21  C   UNL     1      -8.468   5.494  69.230  1.00  0.00    -0.101 A  
BRANCH   9  22
HETATM   22  C   UNL     1      -7.124   7.260  66.460  1.00  0.00    -0.078 C  
HETATM   23  H1  UNL     1      -6.367   7.647  64.605  1.00  0.00     0.000 HD 
HETATM   24  N   UNL     1      -7.209   7.355  65.099  1.00  0.00    -0.063 N  
HETATM   25  O   UNL     1      -6.057   7.521  67.014  1.00  0.00    -0.043 OA 
HETATM   26  H2  UNL     1      -8.074   7.143  64.602  1.00  0.00     0.000 HD 
ENDBRANCH   9  22
ENDBRANCH   8   9
ENDBRANCH   7   8
ENDBRANCH   6   7
ENDBRANCH   4   6
ENDBRANCH   2   4
TORSDOF 6
ENDMDL
MODEL      243
REMARK 921   NORMALIZED FREE ENERGY PREDICTED BY IDOCK:   -1.62 KCAL/MOL
REMARK 922        TOTAL FREE ENERGY PREDICTED BY IDOCK:   -3.20 KCAL/MOL
REMARK 923 INTER-LIGAND FREE ENERGY PREDICTED BY IDOCK:   -3.52 KCAL/MOL
REMARK 924 INTRA-LIGAND FREE ENERGY PREDICTED BY IDOCK:    0.33 KCAL/MOL
REMARK 927      BINDING AFFINITY PREDICTED BY RF-SCORE:    0.00 PKD
ROOT
HETATM    1  C   UNL     1     -11.107   8.647  70.467  1.00  0.00    -0.268 C  
HETATM    2  C   UNL     1     -11.136   9.911  69.606  1.00  0.00    -0.241 C  
HETATM    3  C   UNL     1      -9.803  10.650  69.721  1.00  0.00     0.051 C  
ENDROOT
BRANCH   2   4
HETATM    4  N   UNL     1     -11.429   9.491  68.233  1.00  0.00    -0.301 NA 
HETATM    5  H   UNL     1     -12.421   9.605  68.026  1.00  0.00     0.000 HD 
BRANCH   4   6
HETATM    6  C   UNL     1     -10.615  10.159  67.222  1.00  0.00    -0.261 C  
BRANCH   6   7
HETATM    7  C   UNL     1      -9.409   9.297  66.849  1.00  0.00    -0.193 C  
BRANCH   7   8
HETATM    8  C   UNL     1      -9.730   7.793  66.731  1.00  0.00    -0.296 C  
BRANCH   8   9
HETATM    9  C   UNL     1      -8.490   6.861  66.702  1.00  0.00    -0.121 C  
HETATM   10  C   UNL     1      -8.207   6.386  65.268  1.00  0.00    -0.137 A  
HETATM   11  C   UNL     1      -8.787   5.532  67.409  1.00  0.00    -0.105 A  
HETATM   12  C   UNL     1      -9.100   5.321  68.745  1.00  0.00    -0.134 A  
HETATM   13  C   UNL     1      -7.873   7.153  64.160  1.00  0.00    -0.113 A  
HETATM   14  C   UNL     1      -9.428   4.026  69.144  1.00  0.00    -0.249 A  
HETATM   15  C   UNL     1      -9.445   2.973  68.214  1.00  0.00    -0.216 A  
HETATM   16  C   UNL     1      -9.115   3.191  66.871  1.00  0.00    -0.191 A  
HETATM   17  C   UNL     1      -7.753   6.508  62.930  1.00  0.00    -0.097 A  
HETATM   18  C   UNL     1      -7.968   5.124  62.822  1.00  0.00    -0.084 A  
HETATM   19  C   UNL     1      -8.300   4.357  63.945  1.00  0.00    -0.108 A  
HETATM   20  C   UNL     1      -8.417   4.993  65.170  1.00  0.00    -0.143 A  
HETATM   21  C   UNL     1      -8.776   4.472  66.475  1.00  0.00    -0.112 A  
BRANCH   9  22
HETATM   22  C   UNL     1      -7.264   7.572  67.313  1.00  0.00    -0.086 C  
HETATM   23  H1  UNL     1      -5.248   7.410  67.590  1.00  0.00     0.000 HD 
HETATM   24  N   UNL     1      -6.058   6.940  67.187  1.00  0.00    -0.028 N  
HETATM   25  O   UNL     1      -7.317   8.652  67.899  1.00  0.00    -0.089 OA 
HETATM   26  H2  UNL     1      -5.973   6.041  66.711  1.00  0.00     0.000 HD 
ENDBRANCH   9  22
ENDBRANCH   8   9
ENDBRANCH   7   8
ENDBRANCH   6   7
ENDBRANCH   4   6
ENDBRANCH   2   4
TORSDOF 6
ENDMDL
MODEL      244
REMARK 921   NORMALIZED FREE ENERGY PREDICTED BY IDOCK:   -1.58 KCAL/MOL
REMARK 922        TOTAL FREE ENERGY PREDICTED BY IDOCK:   -3.14 KCAL/MOL
REMARK 923 INTER-LIGAND FREE ENERGY PREDICTED BY IDOCK:   -3.68 KCAL/MOL
REMARK 924 INTRA-LIGAND FREE ENERGY PREDICTED BY IDOCK:    0.54 KCAL/MOL
REMARK 927      BINDING AFFINITY PREDICTED BY RF-SCORE:    0.00 PKD
ROOT
HETATM    1  C   UNL     1     -11.058  13.640  68.580  1.00  0.00    -0.301 C  
HETATM    2  C   UNL     1      -9.639  13.462  68.038  1.00  0.00    -0.219 C  
HETATM    3  C   UNL     1      -8.729  14.560  68.590  1.00  0.00    -0.172 C  
ENDROOT
BRANCH   2   4
HETATM    4  N   UNL     1      -9.196  12.119  68.423  1.00  0.00    -0.281 NA 
HETATM    5  H   UNL     1      -9.100  12.050  69.436  1.00  0.00     0.000 HD 
BRANCH   4   6
HETATM    6  C   UNL     1     -10.044  11.046  67.915  1.00  0.00    -0.178 C  
BRANCH   6   7
HETATM    7  C   UNL     1      -9.224   9.775  67.691  1.00  0.00    -0.143 C  
BRANCH   7   8
HETATM    8  C   UNL     1      -9.881   8.499  68.255  1.00  0.00    -0.190 C  
BRANCH   8   9
HETATM    9  C   UNL     1      -9.690   8.286  69.779  1.00  0.00    -0.180 C  
HETATM   10  C   UNL     1      -8.318   8.811  70.229  1.00  0.00    -0.139 A  
HETATM   11  C   UNL     1      -9.568   6.794  70.113  1.00  0.00    -0.165 A  
HETATM   12  C   UNL     1     -10.517   5.795  69.942  1.00  0.00    -0.360 A  
HETATM   13  C   UNL     1      -7.836  10.112  70.175  1.00  0.00    -0.065 A  
HETATM   14  C   UNL     1     -10.145   4.483  70.229  1.00  0.00    -0.230 A  
HETATM   15  C   UNL     1      -8.845   4.187  70.672  1.00  0.00    -0.129 A  
HETATM   16  C   UNL     1      -7.898   5.201  70.855  1.00  0.00    -0.096 A  
HETATM   17  C   UNL     1      -6.514  10.338  70.556  1.00  0.00    -0.104 A  
HETATM   18  C   UNL     1      -5.699   9.275  70.978  1.00  0.00    -0.055 A  
HETATM   19  C   UNL     1      -6.193   7.966  71.034  1.00  0.00    -0.034 A  
HETATM   20  C   UNL     1      -7.507   7.738  70.660  1.00  0.00    -0.070 A  
HETATM   21  C   UNL     1      -8.268   6.506  70.584  1.00  0.00    -0.125 A  
BRANCH   9  22
HETATM   22  C   UNL     1     -10.835   8.957  70.568  1.00  0.00    -0.236 C  
HETATM   23  H1  UNL     1     -11.339   9.719  72.394  1.00  0.00     0.000 HD 
HETATM   24  N   UNL     1     -10.582   9.276  71.873  1.00  0.00    -0.243 N  
HETATM   25  O   UNL     1     -11.942   9.207  70.094  1.00  0.00     0.030 OA 
HETATM   26  H2  UNL     1      -9.679   9.080  72.305  1.00  0.00     0.000 HD 
ENDBRANCH   9  22
ENDBRANCH   8   9
ENDBRANCH   7   8
ENDBRANCH   6   7
ENDBRANCH   4   6
ENDBRANCH   2   4
TORSDOF 6
ENDMDL
MODEL      245
REMARK 921   NORMALIZED FREE ENERGY PREDICTED BY IDOCK:   -1.45 KCAL/MOL
REMARK 922        TOTAL FREE ENERGY PREDICTED BY IDOCK:   -2.96 KCAL/MOL
REMARK 923 INTER-LIGAND FREE ENERGY PREDICTED BY IDOCK:   -3.03 KCAL/MOL
REMARK 924 INTRA-LIGAND FREE ENERGY PREDICTED BY IDOCK:    0.07 KCAL/MOL
REMARK 927      BINDING AFFINITY PREDICTED BY RF-SCORE:    0.00 PKD
ROOT
HETATM    1  C   UNL     1     -10.477   5.337  65.635  1.00  0.00     0.108 C  
HETATM    2  C   UNL     1      -9.036   5.844  65.702  1.00  0.00    -0.087 C  
HETATM    3  C   UNL     1      -9.004   7.242  66.321  1.00  0.00    -0.185 C  
ENDROOT
BRANCH   2   4
HETATM    4  N   UNL     1      -8.270   4.867  66.482  1.00  0.00    -0.107 NA 
HETATM    5  H   UNL     1      -7.880   4.148  65.873  1.00  0.00     0.000 HD 
BRANCH   4   6
HETATM    6  C   UNL     1      -7.225   5.459  67.311  1.00  0.00    -0.075 C  
BRANCH   6   7
HETATM    7  C   UNL     1      -7.101   4.705  68.636  1.00  0.00    -0.053 C  
BRANCH   7   8
HETATM    8  C   UNL     1      -7.554   5.521  69.864  1.00  0.00    -0.074 C  
BRANCH   8   9
HETATM    9  C   UNL     1      -8.943   5.131  70.431  1.00  0.00    -0.157 C  
HETATM   10  C   UNL     1      -9.632   6.353  71.058  1.00  0.00    -0.188 A  
HETATM   11  C   UNL     1      -8.799   4.208  71.648  1.00  0.00    -0.147 A  
HETATM   12  C   UNL     1      -8.254   2.932  71.698  1.00  0.00    -0.064 A  
HETATM   13  C   UNL     1     -10.025   7.530  70.434  1.00  0.00    -0.184 A  
HETATM   14  C   UNL     1      -8.140   2.317  72.944  1.00  0.00    -0.054 A  
HETATM   15  C   UNL     1      -8.559   2.979  74.110  1.00  0.00    -0.076 A  
HETATM   16  C   UNL     1      -9.120   4.261  74.050  1.00  0.00    -0.098 A  
HETATM   17  C   UNL     1     -10.551   8.548  71.229  1.00  0.00    -0.296 A  
HETATM   18  C   UNL     1     -10.675   8.381  72.618  1.00  0.00    -0.312 A  
HETATM   19  C   UNL     1     -10.281   7.189  73.239  1.00  0.00    -0.342 A  
HETATM   20  C   UNL     1      -9.761   6.174  72.452  1.00  0.00    -0.169 A  
HETATM   21  C   UNL     1      -9.247   4.868  72.814  1.00  0.00    -0.145 A  
BRANCH   9  22
HETATM   22  C   UNL     1      -9.819   4.493  69.331  1.00  0.00    -0.190 C  
HETATM   23  H1  UNL     1     -11.427   4.828  68.119  1.00  0.00     0.000 HD 
HETATM   24  N   UNL     1     -10.849   5.249  68.846  1.00  0.00     0.031 N  
HETATM   25  O   UNL     1      -9.643   3.362  68.883  1.00  0.00    -0.163 OA 
HETATM   26  H2  UNL     1     -11.031   6.191  69.194  1.00  0.00     0.000 HD 
ENDBRANCH   9  22
ENDBRANCH   8   9
ENDBRANCH   7   8
ENDBRANCH   6   7
ENDBRANCH   4   6
ENDBRANCH   2   4
TORSDOF 6
ENDMDL
MODEL      246
REMARK 921   NORMALIZED FREE ENERGY PREDICTED BY IDOCK:   -1.14 KCAL/MOL
REMARK 922        TOTAL FREE ENERGY PREDICTED BY IDOCK:   -2.54 KCAL/MOL
REMARK 923 INTER-LIGAND FREE ENERGY PREDICTED BY IDOCK:   -2.59 KCAL/MOL
REMARK 924 INTRA-LIGAND FREE ENERGY PREDICTED BY IDOCK:    0.05 KCAL/MOL
REMARK 927      BINDING AFFINITY PREDICTED BY RF-SCORE:    0.00 PKD
ROOT
HETATM    1  C   UNL     1      -9.064  10.336  64.577  1.00  0.00    -0.270 C  
HETATM    2  C   UNL     1      -7.614   9.882  64.397  1.00  0.00    -0.143 C  
HETATM    3  C   UNL     1      -6.746  10.457  65.517  1.00  0.00    -0.121 C  
ENDROOT
BRANCH   2   4
HETATM    4  N   UNL     1      -7.618   8.417  64.385  1.00  0.00    -0.108 NA 
HETATM    5  H   UNL     1      -6.711   8.058  64.088  1.00  0.00     0.000 HD 
BRANCH   4   6
HETATM    6  C   UNL     1      -8.017   7.815  65.654  1.00  0.00    -0.118 C  
BRANCH   6   7
HETATM    7  C   UNL     1      -7.199   6.552  65.928  1.00  0.00    -0.074 C  
BRANCH   7   8
HETATM    8  C   UNL     1      -6.897   6.316  67.422  1.00  0.00    -0.063 C  
BRANCH   8   9
HETATM    9  C   UNL     1      -7.918   5.411  68.158  1.00  0.00    -0.095 C  
HETATM   10  C   UNL     1      -8.947   6.264  68.916  1.00  0.00    -0.126 A  
HETATM   11  C   UNL     1      -7.246   4.653  69.311  1.00  0.00    -0.052 A  
HETATM   12  C   UNL     1      -6.232   3.707  69.242  1.00  0.00    -0.028 A  
HETATM   13  C   UNL     1      -9.863   7.168  68.393  1.00  0.00    -0.157 A  
HETATM   14  C   UNL     1      -5.708   3.220  70.438  1.00  0.00    -0.017 A  
HETATM   15  C   UNL     1      -6.193   3.683  71.673  1.00  0.00    -0.014 A  
HETATM   16  C   UNL     1      -7.225   4.627  71.735  1.00  0.00    -0.064 A  
HETATM   17  C   UNL     1     -10.639   7.904  69.288  1.00  0.00    -0.195 A  
HETATM   18  C   UNL     1     -10.491   7.733  70.674  1.00  0.00    -0.213 A  
HETATM   19  C   UNL     1      -9.569   6.817  71.193  1.00  0.00    -0.177 A  
HETATM   20  C   UNL     1      -8.798   6.081  70.308  1.00  0.00    -0.144 A  
HETATM   21  C   UNL     1      -7.756   5.102  70.550  1.00  0.00    -0.071 A  
BRANCH   9  22
HETATM   22  C   UNL     1      -8.605   4.448  67.166  1.00  0.00    -0.104 C  
HETATM   23  H1  UNL     1     -10.408   3.644  66.648  1.00  0.00     0.000 HD 
HETATM   24  N   UNL     1      -9.954   4.280  67.303  1.00  0.00    -0.143 N  
HETATM   25  O   UNL     1      -8.011   3.836  66.281  1.00  0.00    -0.089 OA 
HETATM   26  H2  UNL     1     -10.483   4.767  68.028  1.00  0.00     0.000 HD 
ENDBRANCH   9  22
ENDBRANCH   8   9
ENDBRANCH   7   8
ENDBRANCH   6   7
ENDBRANCH   4   6
ENDBRANCH   2   4
TORSDOF 6
ENDMDL
MODEL      247
REMARK 921   NORMALIZED FREE ENERGY PREDICTED BY IDOCK:   -0.28 KCAL/MOL
REMARK 922        TOTAL FREE ENERGY PREDICTED BY IDOCK:   -1.38 KCAL/MOL
REMARK 923 INTER-LIGAND FREE ENERGY PREDICTED BY IDOCK:   -1.42 KCAL/MOL
REMARK 924 INTRA-LIGAND FREE ENERGY PREDICTED BY IDOCK:    0.03 KCAL/MOL
REMARK 927      BINDING AFFINITY PREDICTED BY RF-SCORE:    0.00 PKD
ROOT
HETATM    1  C   UNL     1      -8.735  11.516  64.544  1.00  0.00     0.515 C  
HETATM    2  C   UNL     1      -9.841  11.642  63.494  1.00  0.00    -0.370 C  
HETATM    3  C   UNL     1      -9.610  10.629  62.372  1.00  0.00    -0.181 C  
ENDROOT
BRANCH   2   4
HETATM    4  N   UNL     1     -11.117  11.434  64.184  1.00  0.00    -0.347 NA 
HETATM    5  H   UNL     1     -11.753  10.887  63.604  1.00  0.00     0.000 HD 
BRANCH   4   6
HETATM    6  C   UNL     1     -10.985  10.833  65.507  1.00  0.00     0.113 C  
BRANCH   6   7
HETATM    7  C   UNL     1     -10.114   9.578  65.440  1.00  0.00     0.025 C  
BRANCH   7   8
HETATM    8  C   UNL     1      -9.843   8.931  66.813  1.00  0.00    -0.308 C  
BRANCH   8   9
HETATM    9  C   UNL     1      -8.501   8.161  66.919  1.00  0.00    -0.119 C  
HETATM   10  C   UNL     1      -7.316   9.140  66.896  1.00  0.00    -0.090 A  
HETATM   11  C   UNL     1      -8.239   7.339  65.651  1.00  0.00    -0.138 A  
HETATM   12  C   UNL     1      -8.979   6.277  65.148  1.00  0.00     0.216 A  
HETATM   13  C   UNL     1      -7.013  10.142  67.808  1.00  0.00    -0.084 A  
HETATM   14  C   UNL     1      -8.602   5.742  63.917  1.00  0.00     0.133 A  
HETATM   15  C   UNL     1      -7.509   6.270  63.211  1.00  0.00    -0.071 A  
HETATM   16  C   UNL     1      -6.759   7.332  63.731  1.00  0.00    -0.052 A  
HETATM   17  C   UNL     1      -5.930  10.974  67.530  1.00  0.00    -0.046 A  
HETATM   18  C   UNL     1      -5.174  10.800  66.359  1.00  0.00    -0.080 A  
HETATM   19  C   UNL     1      -5.483   9.784  65.447  1.00  0.00    -0.052 A  
HETATM   20  C   UNL     1      -6.557   8.952  65.721  1.00  0.00    -0.064 A  
HETATM   21  C   UNL     1      -7.122   7.857  64.958  1.00  0.00    -0.060 A  
BRANCH   9  22
HETATM   22  C   UNL     1      -8.479   7.280  68.186  1.00  0.00    -0.123 C  
HETATM   23  H1  UNL     1      -7.347   5.939  69.228  1.00  0.00     0.000 HD 
HETATM   24  N   UNL     1      -7.361   6.521  68.391  1.00  0.00    -0.085 N  
HETATM   25  O   UNL     1      -9.399   7.224  69.000  1.00  0.00    -0.148 OA 
HETATM   26  H2  UNL     1      -6.578   6.535  67.737  1.00  0.00     0.000 HD 
ENDBRANCH   9  22
ENDBRANCH   8   9
ENDBRANCH   7   8
ENDBRANCH   6   7
ENDBRANCH   4   6
ENDBRANCH   2   4
TORSDOF 6
ENDMDL
MODEL      248
REMARK 921   NORMALIZED FREE ENERGY PREDICTED BY IDOCK:   11.36 KCAL/MOL
REMARK 922        TOTAL FREE ENERGY PREDICTED BY IDOCK:   14.34 KCAL/MOL
REMARK 923 INTER-LIGAND FREE ENERGY PREDICTED BY IDOCK:   -0.36 KCAL/MOL
REMARK 924 INTRA-LIGAND FREE ENERGY PREDICTED BY IDOCK:   14.70 KCAL/MOL
REMARK 927      BINDING AFFINITY PREDICTED BY RF-SCORE:    0.00 PKD
ROOT
HETATM    1  C   UNL     1     -10.723  13.342  66.681  1.00  0.00    -0.282 C  
HETATM    2  C   UNL     1     -11.435  14.677  66.907  1.00  0.00    -0.363 C  
HETATM    3  C   UNL     1     -11.379  15.052  68.388  1.00  0.00    -0.323 C  
ENDROOT
BRANCH   2   4
HETATM    4  N   UNL     1     -10.776  15.668  66.052  1.00  0.00    -0.324 NA 
HETATM    5  H   UNL     1     -10.595  16.527  66.572  1.00  0.00     0.000 HD 
BRANCH   4   6
HETATM    6  C   UNL     1      -9.552  15.185  65.419  1.00  0.00    -0.092 C  
BRANCH   6   7
HETATM    7  C   UNL     1      -9.283  13.733  65.813  1.00  0.00     0.275 C  
BRANCH   7   8
HETATM    8  C   UNL     1      -9.689  13.394  67.262  1.00  0.00    -0.232 C  
BRANCH   8   9
HETATM    9  C   UNL     1      -8.943  12.184  67.883  1.00  0.00    -0.184 C  
HETATM   10  C   UNL     1      -8.778  11.063  66.844  1.00  0.00    -0.148 A  
HETATM   11  C   UNL     1      -9.810  11.490  68.941  1.00  0.00    -0.091 A  
HETATM   12  C   UNL     1     -10.278  12.007  70.142  1.00  0.00     2.189 A  
HETATM   13  C   UNL     1      -8.078  11.101  65.645  1.00  0.00     0.085 A  
HETATM   14  C   UNL     1     -11.137  11.217  70.904  1.00  0.00     1.262 A  
HETATM   15  C   UNL     1     -11.518   9.940  70.461  1.00  0.00    -0.391 A  
HETATM   16  C   UNL     1     -11.032   9.419  69.255  1.00  0.00    -0.137 A  
HETATM   17  C   UNL     1      -8.145   9.984  64.813  1.00  0.00    -0.155 A  
HETATM   18  C   UNL     1      -8.902   8.859  65.182  1.00  0.00    -0.209 A  
HETATM   19  C   UNL     1      -9.600   8.827  66.395  1.00  0.00    -0.316 A  
HETATM   20  C   UNL     1      -9.534   9.934  67.226  1.00  0.00    -0.181 A  
HETATM   21  C   UNL     1     -10.168  10.195  68.503  1.00  0.00    -0.194 A  
BRANCH   9  22
HETATM   22  C   UNL     1      -7.580  12.624  68.459  1.00  0.00    -0.121 C  
HETATM   23  H1  UNL     1      -6.313  12.372  70.039  1.00  0.00     0.000 HD 
HETATM   24  N   UNL     1      -7.213  12.081  69.658  1.00  0.00    -0.319 N  
HETATM   25  O   UNL     1      -6.828  13.425  67.908  1.00  0.00    -0.109 OA 
HETATM   26  H2  UNL     1      -7.811  11.416  70.150  1.00  0.00     0.000 HD 
ENDBRANCH   9  22
ENDBRANCH   8   9
ENDBRANCH   7   8
ENDBRANCH   6   7
ENDBRANCH   4   6
ENDBRANCH   2   4
TORSDOF 6
ENDMDL
MODEL      249
REMARK 921   NORMALIZED FREE ENERGY PREDICTED BY IDOCK:   24.03 KCAL/MOL
REMARK 922        TOTAL FREE ENERGY PREDICTED BY IDOCK:   31.45 KCAL/MOL
REMARK 923 INTER-LIGAND FREE ENERGY PREDICTED BY IDOCK:   30.97 KCAL/MOL
REMARK 924 INTRA-LIGAND FREE ENERGY PREDICTED BY IDOCK:    0.48 KCAL/MOL
REMARK 927      BINDING AFFINITY PREDICTED BY RF-SCORE:    0.00 PKD
ROOT
HETATM    1  C   UNL     1      -9.694   9.059  71.647  1.00  0.00    -0.347 C  
HETATM    2  C   UNL     1      -9.994   8.606  70.217  1.00  0.00    -0.186 C  
HETATM    3  C   UNL     1      -9.142   9.403  69.229  1.00  0.00    -0.152 C  
ENDROOT
BRANCH   2   4
HETATM    4  N   UNL     1      -9.726   7.167  70.156  1.00  0.00    -0.172 NA 
HETATM    5  H   UNL     1     -10.483   6.681  69.675  1.00  0.00     0.000 HD 
BRANCH   4   6
HETATM    6  C   UNL     1      -8.439   6.828  69.557  1.00  0.00    -0.133 C  
BRANCH   6   7
HETATM    7  C   UNL     1      -8.604   6.526  68.067  1.00  0.00    -0.118 C  
BRANCH   7   8
HETATM    8  C   UNL     1      -9.723   7.340  67.386  1.00  0.00    -0.191 C  
BRANCH   8   9
HETATM    9  C   UNL     1      -9.941   7.019  65.884  1.00  0.00     0.566 C  
HETATM   10  C   UNL     1     -10.137   5.509  65.679  1.00  0.00     0.212 A  
HETATM   11  C   UNL     1      -8.660   7.269  65.078  1.00  0.00     0.096 A  
HETATM   12  C   UNL     1      -7.992   8.470  64.878  1.00  0.00    -0.137 A  
HETATM   13  C   UNL     1     -11.150   4.700  66.178  1.00  0.00     0.656 A  
HETATM   14  C   UNL     1      -6.783   8.439  64.184  1.00  0.00    -0.071 A  
HETATM   15  C   UNL     1      -6.260   7.224  63.711  1.00  0.00    -0.045 A  
HETATM   16  C   UNL     1      -6.946   6.019  63.905  1.00  0.00    -0.050 A  
HETATM   17  C   UNL     1     -11.071   3.329  65.936  1.00  0.00     3.491 A  
HETATM   18  C   UNL     1      -9.995   2.789  65.213  1.00  0.00     0.383 A  
HETATM   19  C   UNL     1      -8.981   3.612  64.709  1.00  0.00    -0.125 A  
HETATM   20  C   UNL     1      -9.057   4.975  64.944  1.00  0.00    -0.082 A  
HETATM   21  C   UNL     1      -8.152   6.048  64.581  1.00  0.00    -0.132 A  
BRANCH   9  22
HETATM   22  C   UNL     1     -11.134   7.824  65.325  1.00  0.00     7.254 C  
HETATM   23  H1  UNL     1     -12.156   8.260  63.613  1.00  0.00     0.000 HD 
HETATM   24  N   UNL     1     -11.367   7.728  63.982  1.00  0.00    15.006 N  
HETATM   25  O   UNL     1     -11.865   8.534  66.012  1.00  0.00     5.244 OA 
HETATM   26  H2  UNL     1     -10.781   7.153  63.377  1.00  0.00     0.000 HD 
ENDBRANCH   9  22
ENDBRANCH   8   9
ENDBRANCH   7   8
ENDBRANCH   6   7
ENDBRANCH   4   6
ENDBRANCH   2   4
TORSDOF 6
ENDMDL
