MODEL        1
REMARK 921   NORMALIZED FREE ENERGY PREDICTED BY IDOCK:   -8.54 KCAL/MOL
REMARK 922        TOTAL FREE ENERGY PREDICTED BY IDOCK:  -14.50 KCAL/MOL
REMARK 923 INTER-LIGAND FREE ENERGY PREDICTED BY IDOCK:  -12.53 KCAL/MOL
REMARK 924 INTRA-LIGAND FREE ENERGY PREDICTED BY IDOCK:   -1.97 KCAL/MOL
REMARK 927      BINDING AFFINITY PREDICTED BY RF-SCORE:    0.00 PKD
ROOT
HETATM    1  C   UNL     1     -10.486  18.693  68.477  1.00  0.00    -0.187 C  
HETATM    2  C   UNL     1      -9.578  18.767  67.246  1.00  0.00    -0.303 C  
HETATM    3  N   UNL     1      -8.650  17.603  67.083  1.00  0.00    -0.223 N  
HETATM    4  C   UNL     1      -8.691  20.032  67.434  1.00  0.00    -0.417 C  
HETATM    5  C   UNL     1     -10.426  19.017  65.990  1.00  0.00    -0.530 C  
HETATM    6  C   UNL     1      -8.702  16.254  66.856  1.00  0.00    -0.208 C  
HETATM    7  H   UNL     1      -7.681  17.910  67.168  1.00  0.00     0.000 HD 
HETATM    8  O   UNL     1      -7.629  15.748  66.494  1.00  0.00    -0.147 OA 
ENDROOT
BRANCH   6   9
HETATM    9  C   UNL     1      -9.931  15.356  67.080  1.00  0.00    -0.238 C  
HETATM   10  C   UNL     1     -10.301  14.954  68.563  1.00  0.00    -0.237 C  
HETATM   11  N   UNL     1     -11.719  14.480  68.654  1.00  0.00    -0.317 NA 
HETATM   12  N   UNL     1      -9.987  14.181  66.164  1.00  0.00    -0.303 NA 
HETATM   13  C   UNL     1     -12.036  13.522  67.558  1.00  0.00    -0.346 C  
HETATM   14  C   UNL     1     -11.439  13.841  66.158  1.00  0.00    -0.338 C  
BRANCH  11  15
HETATM   15  C   UNL     1     -12.049  13.816  69.938  1.00  0.00    -0.348 C  
BRANCH  15  16
HETATM   16  C   UNL     1     -12.502  14.686  71.083  1.00  0.00    -0.402 A  
HETATM   17  C   UNL     1     -11.581  15.176  72.005  1.00  0.00    -0.412 A  
HETATM   18  N   UNL     1     -11.904  15.837  73.143  1.00  0.00    -0.440 NA 
HETATM   19  C   UNL     1     -14.221  15.581  72.532  1.00  0.00    -0.502 A  
HETATM   20  C   UNL     1     -13.219  16.021  73.381  1.00  0.00    -0.543 A  
HETATM   21  C   UNL     1     -13.853  14.902  71.368  1.00  0.00    -0.537 A  
ENDBRANCH  15  16
ENDBRANCH  11  15
BRANCH  12  22
HETATM   22  C   UNL     1      -9.193  12.949  66.527  1.00  0.00    -0.182 C  
BRANCH  22  23
HETATM   23  C   UNL     1      -9.423  11.615  65.757  1.00  0.00    -0.226 C  
HETATM   24  O   UNL     1      -9.363  11.884  64.346  1.00  0.00    -0.433 OA 
HETATM   25  H   UNL     1      -9.504  11.070  63.876  1.00  0.00     0.000 HD 
BRANCH  23  26
HETATM   26  C   UNL     1      -8.347  10.501  65.912  1.00  0.00    -0.161 C  
HETATM   27  C   UNL     1      -8.586   9.272  66.827  1.00  0.00    -0.134 C  
HETATM   28  C   UNL     1      -7.562   8.143  66.457  1.00  0.00    -0.092 C  
HETATM   29  C   UNL     1      -8.409   9.658  68.311  1.00  0.00    -0.117 C  
HETATM   30  O   UNL     1      -7.710  10.602  68.668  1.00  0.00    -0.096 OA 
HETATM   31  N   UNL     1      -9.091   8.880  69.230  1.00  0.00    -0.143 N  
HETATM   32  H   UNL     1      -9.496   7.993  68.931  1.00  0.00     0.000 HD 
BRANCH  28  33
HETATM   33  C   UNL     1      -7.666   7.541  65.056  1.00  0.00    -0.116 A  
HETATM   34  C   UNL     1      -8.335   6.331  64.831  1.00  0.00    -0.076 A  
HETATM   35  C   UNL     1      -7.052   8.166  63.959  1.00  0.00    -0.087 A  
HETATM   36  C   UNL     1      -7.120   7.607  62.668  1.00  0.00    -0.078 A  
HETATM   37  C   UNL     1      -8.405   5.772  63.542  1.00  0.00    -0.017 A  
HETATM   38  C   UNL     1      -7.799   6.413  62.461  1.00  0.00    -0.102 A  
ENDBRANCH  28  33
BRANCH  31  39
HETATM   39  C   UNL     1      -9.244   9.311  70.635  1.00  0.00    -0.264 C  
HETATM   40  C   UNL     1      -9.950   7.760  72.498  1.00  0.00    -0.284 C  
HETATM   41  C   UNL     1     -11.079   8.603  72.017  1.00  0.00    -0.437 A  
HETATM   42  H   UNL     1      -7.749   6.531  71.782  1.00  0.00     0.000 HD 
HETATM   43  C   UNL     1      -8.736   8.279  71.697  1.00  0.00    -0.163 C  
HETATM   44  O   UNL     1      -8.057   7.157  71.137  1.00  0.00    -0.102 OA 
HETATM   45  C   UNL     1     -12.387   8.589  72.504  1.00  0.00    -0.372 A  
HETATM   46  C   UNL     1     -13.304   9.495  71.972  1.00  0.00    -0.535 A  
HETATM   47  C   UNL     1     -12.909  10.401  70.984  1.00  0.00    -0.494 A  
HETATM   48  C   UNL     1     -11.603  10.397  70.486  1.00  0.00    -0.433 A  
HETATM   49  C   UNL     1     -10.691   9.475  71.008  1.00  0.00    -0.411 A  
ENDBRANCH  31  39
ENDBRANCH  23  26
ENDBRANCH  22  23
ENDBRANCH  12  22
ENDBRANCH   6   9
TORSDOF 8
ENDMDL
MODEL        2
REMARK 921   NORMALIZED FREE ENERGY PREDICTED BY IDOCK:   -8.28 KCAL/MOL
REMARK 922        TOTAL FREE ENERGY PREDICTED BY IDOCK:  -14.12 KCAL/MOL
REMARK 923 INTER-LIGAND FREE ENERGY PREDICTED BY IDOCK:  -11.58 KCAL/MOL
REMARK 924 INTRA-LIGAND FREE ENERGY PREDICTED BY IDOCK:   -2.54 KCAL/MOL
REMARK 927      BINDING AFFINITY PREDICTED BY RF-SCORE:    0.00 PKD
ROOT
HETATM    1  C   UNL     1      -7.695   7.738  64.753  1.00  0.00    -0.119 C  
HETATM    2  C   UNL     1      -8.263   9.124  64.429  1.00  0.00    -0.158 C  
HETATM    3  N   UNL     1      -9.503   9.484  65.187  1.00  0.00    -0.379 N  
HETATM    4  C   UNL     1      -8.644   9.097  62.920  1.00  0.00    -0.203 C  
HETATM    5  C   UNL     1      -7.160  10.183  64.577  1.00  0.00    -0.119 C  
HETATM    6  C   UNL     1      -9.905   9.716  66.475  1.00  0.00    -0.235 C  
HETATM    7  H   UNL     1     -10.290   9.588  64.547  1.00  0.00     0.000 HD 
HETATM    8  O   UNL     1     -11.000  10.290  66.580  1.00  0.00    -0.108 OA 
ENDROOT
BRANCH   6   9
HETATM    9  C   UNL     1      -9.155   9.266  67.741  1.00  0.00    -0.126 C  
HETATM   10  C   UNL     1     -10.006   8.754  68.970  1.00  0.00    -0.191 C  
HETATM   11  N   UNL     1      -9.161   7.956  69.915  1.00  0.00    -0.146 NA 
HETATM   12  N   UNL     1      -8.089  10.215  68.171  1.00  0.00    -0.104 NA 
HETATM   13  C   UNL     1      -7.865   8.642  70.184  1.00  0.00    -0.098 C  
HETATM   14  C   UNL     1      -7.183   9.344  68.976  1.00  0.00    -0.071 C  
BRANCH  11  15
HETATM   15  C   UNL     1      -9.807   7.693  71.223  1.00  0.00    -0.171 C  
BRANCH  15  16
HETATM   16  C   UNL     1     -11.264   8.055  71.372  1.00  0.00    -0.287 A  
HETATM   17  C   UNL     1     -11.636   9.347  71.732  1.00  0.00    -0.363 A  
HETATM   18  N   UNL     1     -12.901   9.730  72.034  1.00  0.00    -0.405 NA 
HETATM   19  C   UNL     1     -13.594   7.459  71.628  1.00  0.00    -0.449 A  
HETATM   20  C   UNL     1     -13.850   8.774  71.978  1.00  0.00    -0.451 A  
HETATM   21  C   UNL     1     -12.280   7.097  71.324  1.00  0.00    -0.403 A  
ENDBRANCH  15  16
ENDBRANCH  11  15
BRANCH  12  22
HETATM   22  C   UNL     1      -8.484  11.414  68.999  1.00  0.00     0.060 C  
BRANCH  22  23
HETATM   23  C   UNL     1      -8.581  12.822  68.341  1.00  0.00    -0.123 C  
HETATM   24  O   UNL     1      -7.753  12.835  67.166  1.00  0.00    -0.290 OA 
HETATM   25  H   UNL     1      -7.812  13.695  66.764  1.00  0.00     0.000 HD 
BRANCH  23  26
HETATM   26  C   UNL     1      -9.961  13.250  67.761  1.00  0.00    -0.223 C  
HETATM   27  C   UNL     1     -10.139  14.599  67.019  1.00  0.00    -0.249 C  
HETATM   28  C   UNL     1     -11.470  14.564  66.190  1.00  0.00    -0.357 C  
HETATM   29  C   UNL     1     -10.193  15.769  68.025  1.00  0.00    -0.229 C  
HETATM   30  O   UNL     1     -10.551  15.621  69.190  1.00  0.00    -0.212 OA 
HETATM   31  N   UNL     1      -9.806  17.007  67.543  1.00  0.00    -0.252 N  
HETATM   32  H   UNL     1      -9.707  17.144  66.538  1.00  0.00     0.000 HD 
BRANCH  28  33
HETATM   33  C   UNL     1     -11.556  13.544  65.054  1.00  0.00    -0.345 A  
HETATM   34  C   UNL     1     -12.776  12.957  64.694  1.00  0.00    -0.403 A  
HETATM   35  C   UNL     1     -10.402  13.135  64.368  1.00  0.00    -0.390 A  
HETATM   36  C   UNL     1     -10.467  12.178  63.337  1.00  0.00    -0.450 A  
HETATM   37  C   UNL     1     -12.842  12.002  63.664  1.00  0.00    -0.472 A  
HETATM   38  C   UNL     1     -11.687  11.615  62.984  1.00  0.00     0.092 A  
ENDBRANCH  28  33
BRANCH  31  39
HETATM   39  C   UNL     1      -9.533  18.134  68.460  1.00  0.00    -0.329 C  
HETATM   40  C   UNL     1      -9.050  20.483  67.670  1.00  0.00    -0.346 C  
HETATM   41  C   UNL     1      -7.806  19.754  68.043  1.00  0.00    -0.342 A  
HETATM   42  H   UNL     1     -11.456  20.223  66.666  1.00  0.00     0.000 HD 
HETATM   43  C   UNL     1     -10.179  19.495  68.037  1.00  0.00    -0.437 C  
HETATM   44  O   UNL     1     -11.064  19.396  66.922  1.00  0.00    -0.388 OA 
HETATM   45  C   UNL     1      -6.506  20.259  67.994  1.00  0.00    -0.312 A  
HETATM   46  C   UNL     1      -5.461  19.450  68.440  1.00  0.00    -0.209 A  
HETATM   47  C   UNL     1      -5.723  18.170  68.938  1.00  0.00    -0.202 A  
HETATM   48  C   UNL     1      -7.025  17.663  68.967  1.00  0.00    -0.233 A  
HETATM   49  C   UNL     1      -8.068  18.469  68.500  1.00  0.00    -0.354 A  
ENDBRANCH  31  39
ENDBRANCH  23  26
ENDBRANCH  22  23
ENDBRANCH  12  22
ENDBRANCH   6   9
TORSDOF 8
ENDMDL
MODEL        3
REMARK 921   NORMALIZED FREE ENERGY PREDICTED BY IDOCK:   -8.06 KCAL/MOL
REMARK 922        TOTAL FREE ENERGY PREDICTED BY IDOCK:  -13.79 KCAL/MOL
REMARK 923 INTER-LIGAND FREE ENERGY PREDICTED BY IDOCK:  -11.81 KCAL/MOL
REMARK 924 INTRA-LIGAND FREE ENERGY PREDICTED BY IDOCK:   -1.98 KCAL/MOL
REMARK 927      BINDING AFFINITY PREDICTED BY RF-SCORE:    0.00 PKD
ROOT
HETATM    1  C   UNL     1      -8.142  19.344  68.608  1.00  0.00    -0.402 C  
HETATM    2  C   UNL     1      -6.817  18.593  68.438  1.00  0.00    -0.249 C  
HETATM    3  N   UNL     1      -6.750  17.276  69.147  1.00  0.00    -0.238 N  
HETATM    4  C   UNL     1      -5.718  19.501  69.061  1.00  0.00    -0.247 C  
HETATM    5  C   UNL     1      -6.480  18.469  66.944  1.00  0.00    -0.202 C  
HETATM    6  C   UNL     1      -7.350  16.045  69.118  1.00  0.00    -0.209 C  
HETATM    7  H   UNL     1      -6.037  17.304  69.876  1.00  0.00     0.000 HD 
HETATM    8  O   UNL     1      -6.734  15.154  69.721  1.00  0.00    -0.162 OA 
ENDROOT
BRANCH   6   9
HETATM    9  C   UNL     1      -8.713  15.731  68.476  1.00  0.00    -0.184 C  
HETATM   10  C   UNL     1      -9.921  15.370  69.430  1.00  0.00    -0.272 C  
HETATM   11  N   UNL     1     -11.231  15.531  68.722  1.00  0.00    -0.293 NA 
HETATM   12  N   UNL     1      -8.627  14.791  67.322  1.00  0.00    -0.199 NA 
HETATM   13  C   UNL     1     -11.187  14.915  67.365  1.00  0.00    -0.338 C  
HETATM   14  C   UNL     1      -9.870  15.097  66.559  1.00  0.00    -0.262 C  
BRANCH  11  15
HETATM   15  C   UNL     1     -12.381  14.937  69.445  1.00  0.00    -0.133 C  
BRANCH  15  16
HETATM   16  C   UNL     1     -12.399  15.050  70.949  1.00  0.00    -0.393 A  
HETATM   17  C   UNL     1     -13.272  14.271  71.705  1.00  0.00    -0.356 A  
HETATM   18  N   UNL     1     -13.467  14.405  73.040  1.00  0.00    -0.625 NA 
HETATM   19  C   UNL     1     -11.857  16.197  73.009  1.00  0.00    -0.510 A  
HETATM   20  C   UNL     1     -12.756  15.368  73.659  1.00  0.00    -0.576 A  
HETATM   21  C   UNL     1     -11.680  16.034  71.633  1.00  0.00    -0.583 A  
ENDBRANCH  15  16
ENDBRANCH  11  15
BRANCH  12  22
HETATM   22  C   UNL     1      -8.573  13.309  67.605  1.00  0.00    -0.196 C  
BRANCH  22  23
HETATM   23  C   UNL     1      -7.201  12.575  67.680  1.00  0.00    -0.136 C  
HETATM   24  O   UNL     1      -6.788  12.515  69.055  1.00  0.00    -0.101 OA 
HETATM   25  H   UNL     1      -5.951  12.068  69.100  1.00  0.00     0.000 HD 
BRANCH  23  26
HETATM   26  C   UNL     1      -7.167  11.073  67.273  1.00  0.00    -0.102 C  
HETATM   27  C   UNL     1      -8.362  10.131  67.566  1.00  0.00    -0.118 C  
HETATM   28  C   UNL     1      -8.235   8.841  66.685  1.00  0.00    -0.107 C  
HETATM   29  C   UNL     1      -8.386   9.733  69.057  1.00  0.00    -0.127 C  
HETATM   30  O   UNL     1      -7.375   9.730  69.755  1.00  0.00    -0.084 OA 
HETATM   31  N   UNL     1      -9.619   9.381  69.576  1.00  0.00    -0.170 N  
HETATM   32  H   UNL     1     -10.395   9.198  68.941  1.00  0.00     0.000 HD 
BRANCH  28  33
HETATM   33  C   UNL     1      -8.318   9.022  65.169  1.00  0.00    -0.165 A  
HETATM   34  C   UNL     1      -7.367   8.449  64.314  1.00  0.00    -0.096 A  
HETATM   35  C   UNL     1      -9.329   9.809  64.594  1.00  0.00    -0.318 A  
HETATM   36  C   UNL     1      -9.399  10.003  63.201  1.00  0.00    -0.297 A  
HETATM   37  C   UNL     1      -7.437   8.642  62.922  1.00  0.00    -0.104 A  
HETATM   38  C   UNL     1      -8.455   9.416  62.367  1.00  0.00    -0.201 A  
ENDBRANCH  28  33
BRANCH  31  39
HETATM   39  C   UNL     1      -9.832   9.265  71.034  1.00  0.00    -0.285 C  
HETATM   40  C   UNL     1     -10.975   7.293  72.121  1.00  0.00    -0.274 C  
HETATM   41  C   UNL     1     -11.889   8.461  71.985  1.00  0.00    -0.417 A  
HETATM   42  H   UNL     1      -8.961   6.021  71.030  1.00  0.00     0.000 HD 
HETATM   43  C   UNL     1      -9.617   7.827  71.617  1.00  0.00    -0.155 C  
HETATM   44  O   UNL     1      -9.091   6.893  70.676  1.00  0.00    -0.154 OA 
HETATM   45  C   UNL     1     -13.220   8.522  72.398  1.00  0.00    -0.319 A  
HETATM   46  C   UNL     1     -13.910   9.724  72.244  1.00  0.00    -0.227 A  
HETATM   47  C   UNL     1     -13.269  10.841  71.701  1.00  0.00    -0.487 A  
HETATM   48  C   UNL     1     -11.941  10.769  71.271  1.00  0.00    -0.286 A  
HETATM   49  C   UNL     1     -11.258   9.557  71.409  1.00  0.00    -0.452 A  
ENDBRANCH  31  39
ENDBRANCH  23  26
ENDBRANCH  22  23
ENDBRANCH  12  22
ENDBRANCH   6   9
TORSDOF 8
ENDMDL
MODEL        4
REMARK 921   NORMALIZED FREE ENERGY PREDICTED BY IDOCK:   -7.88 KCAL/MOL
REMARK 922        TOTAL FREE ENERGY PREDICTED BY IDOCK:  -13.54 KCAL/MOL
REMARK 923 INTER-LIGAND FREE ENERGY PREDICTED BY IDOCK:  -11.78 KCAL/MOL
REMARK 924 INTRA-LIGAND FREE ENERGY PREDICTED BY IDOCK:   -1.75 KCAL/MOL
REMARK 927      BINDING AFFINITY PREDICTED BY RF-SCORE:    0.00 PKD
ROOT
HETATM    1  C   UNL     1      -7.451  19.769  68.567  1.00  0.00    -0.347 C  
HETATM    2  C   UNL     1      -6.101  19.056  68.691  1.00  0.00    -0.219 C  
HETATM    3  N   UNL     1      -6.142  17.769  69.457  1.00  0.00    -0.242 N  
HETATM    4  C   UNL     1      -5.168  20.022  69.476  1.00  0.00    -0.239 C  
HETATM    5  C   UNL     1      -5.475  18.886  67.299  1.00  0.00    -0.156 C  
HETATM    6  C   UNL     1      -6.696  16.520  69.366  1.00  0.00    -0.213 C  
HETATM    7  H   UNL     1      -5.587  17.848  70.309  1.00  0.00     0.000 HD 
HETATM    8  O   UNL     1      -6.188  15.673  70.115  1.00  0.00    -0.153 OA 
ENDROOT
BRANCH   6   9
HETATM    9  C   UNL     1      -7.898  16.138  68.485  1.00  0.00    -0.172 C  
HETATM   10  C   UNL     1      -9.349  16.314  69.087  1.00  0.00    -0.236 C  
HETATM   11  N   UNL     1     -10.382  16.335  68.002  1.00  0.00    -0.270 NA 
HETATM   12  N   UNL     1      -7.745  14.820  67.805  1.00  0.00    -0.141 NA 
HETATM   13  C   UNL     1     -10.149  15.240  67.018  1.00  0.00    -0.248 C  
HETATM   14  C   UNL     1      -8.669  14.944  66.642  1.00  0.00    -0.227 C  
BRANCH  11  15
HETATM   15  C   UNL     1     -11.774  16.203  68.495  1.00  0.00    -0.170 C  
BRANCH  15  16
HETATM   16  C   UNL     1     -12.025  15.261  69.646  1.00  0.00    -0.364 A  
HETATM   17  C   UNL     1     -11.972  13.883  69.454  1.00  0.00    -0.354 A  
HETATM   18  N   UNL     1     -12.326  12.960  70.382  1.00  0.00    -0.299 NA 
HETATM   19  C   UNL     1     -12.848  14.781  71.870  1.00  0.00    -0.395 A  
HETATM   20  C   UNL     1     -12.759  13.433  71.568  1.00  0.00    -0.293 A  
HETATM   21  C   UNL     1     -12.477  15.706  70.891  1.00  0.00    -0.497 A  
ENDBRANCH  15  16
ENDBRANCH  11  15
BRANCH  12  22
HETATM   22  C   UNL     1      -8.087  13.568  68.577  1.00  0.00    -0.108 C  
BRANCH  22  23
HETATM   23  C   UNL     1      -7.451  12.204  68.178  1.00  0.00    -0.114 C  
HETATM   24  O   UNL     1      -7.609  11.288  69.274  1.00  0.00    -0.273 OA 
HETATM   25  H   UNL     1      -7.221  10.455  69.031  1.00  0.00     0.000 HD 
BRANCH  23  26
HETATM   26  C   UNL     1      -8.113  11.417  67.010  1.00  0.00    -0.157 C  
HETATM   27  C   UNL     1      -9.220  10.364  67.272  1.00  0.00    -0.157 C  
HETATM   28  C   UNL     1      -9.982  10.067  65.934  1.00  0.00    -0.339 C  
HETATM   29  C   UNL     1      -8.606   9.055  67.813  1.00  0.00    -0.121 C  
HETATM   30  O   UNL     1      -7.445   8.728  67.584  1.00  0.00    -0.091 OA 
HETATM   31  N   UNL     1      -9.439   8.262  68.582  1.00  0.00    -0.147 N  
HETATM   32  H   UNL     1     -10.441   8.450  68.591  1.00  0.00     0.000 HD 
BRANCH  28  33
HETATM   33  C   UNL     1     -10.763  11.223  65.307  1.00  0.00    -0.302 A  
HETATM   34  C   UNL     1     -11.595  12.043  66.080  1.00  0.00    -0.371 A  
HETATM   35  C   UNL     1     -10.700  11.465  63.925  1.00  0.00    -0.462 A  
HETATM   36  C   UNL     1     -11.434  12.511  63.334  1.00  0.00    -0.523 A  
HETATM   37  C   UNL     1     -12.328  13.089  65.490  1.00  0.00    -0.527 A  
HETATM   38  C   UNL     1     -12.245  13.324  64.118  1.00  0.00    -0.465 A  
ENDBRANCH  28  33
BRANCH  31  39
HETATM   39  C   UNL     1      -8.902   7.149  69.393  1.00  0.00    -0.136 C  
HETATM   40  C   UNL     1     -10.248   5.104  70.010  1.00  0.00    -0.354 C  
HETATM   41  C   UNL     1     -10.173   6.081  71.132  1.00  0.00    -0.257 A  
HETATM   42  H   UNL     1     -10.328   4.848  67.404  1.00  0.00     0.000 HD 
HETATM   43  C   UNL     1      -9.344   5.722  68.923  1.00  0.00    -0.123 C  
HETATM   44  O   UNL     1     -10.061   5.714  67.689  1.00  0.00    -0.145 OA 
HETATM   45  C   UNL     1     -10.748   5.934  72.395  1.00  0.00    -0.274 A  
HETATM   46  C   UNL     1     -10.524   6.929  73.346  1.00  0.00    -0.360 A  
HETATM   47  C   UNL     1      -9.729   8.036  73.036  1.00  0.00    -0.348 A  
HETATM   48  C   UNL     1      -9.172   8.187  71.763  1.00  0.00    -0.232 A  
HETATM   49  C   UNL     1      -9.415   7.198  70.805  1.00  0.00    -0.164 A  
ENDBRANCH  31  39
ENDBRANCH  23  26
ENDBRANCH  22  23
ENDBRANCH  12  22
ENDBRANCH   6   9
TORSDOF 8
ENDMDL
MODEL        5
REMARK 921   NORMALIZED FREE ENERGY PREDICTED BY IDOCK:   -7.80 KCAL/MOL
REMARK 922        TOTAL FREE ENERGY PREDICTED BY IDOCK:  -13.42 KCAL/MOL
REMARK 923 INTER-LIGAND FREE ENERGY PREDICTED BY IDOCK:  -11.41 KCAL/MOL
REMARK 924 INTRA-LIGAND FREE ENERGY PREDICTED BY IDOCK:   -2.01 KCAL/MOL
REMARK 927      BINDING AFFINITY PREDICTED BY RF-SCORE:    0.00 PKD
ROOT
HETATM    1  C   UNL     1      -7.947  16.671  68.948  1.00  0.00    -0.236 C  
HETATM    2  C   UNL     1      -7.003  16.188  67.842  1.00  0.00    -0.135 C  
HETATM    3  N   UNL     1      -6.981  14.704  67.643  1.00  0.00    -0.176 N  
HETATM    4  C   UNL     1      -5.570  16.610  68.277  1.00  0.00    -0.118 C  
HETATM    5  C   UNL     1      -7.300  16.947  66.540  1.00  0.00    -0.317 C  
HETATM    6  C   UNL     1      -7.818  13.694  67.250  1.00  0.00    -0.093 C  
HETATM    7  H   UNL     1      -6.059  14.331  67.870  1.00  0.00     0.000 HD 
HETATM    8  O   UNL     1      -7.246  12.635  66.950  1.00  0.00    -0.001 OA 
ENDROOT
BRANCH   6   9
HETATM    9  C   UNL     1      -9.355  13.764  67.228  1.00  0.00    -0.239 C  
HETATM   10  C   UNL     1     -10.132  13.505  68.579  1.00  0.00    -0.215 C  
HETATM   11  N   UNL     1     -11.532  14.034  68.505  1.00  0.00    -0.282 NA 
HETATM   12  N   UNL     1      -9.970  13.020  66.092  1.00  0.00    -0.275 NA 
HETATM   13  C   UNL     1     -12.185  13.645  67.223  1.00  0.00    -0.275 C  
HETATM   14  C   UNL     1     -11.297  13.686  65.947  1.00  0.00    -0.309 C  
BRANCH  11  15
HETATM   15  C   UNL     1     -12.407  13.575  69.610  1.00  0.00    -0.165 C  
BRANCH  15  16
HETATM   16  C   UNL     1     -12.354  14.337  70.911  1.00  0.00    -0.429 A  
HETATM   17  C   UNL     1     -13.151  13.953  71.986  1.00  0.00    -0.393 A  
HETATM   18  N   UNL     1     -13.285  14.656  73.138  1.00  0.00    -0.572 NA 
HETATM   19  C   UNL     1     -11.762  16.282  72.221  1.00  0.00    -0.530 A  
HETATM   20  C   UNL     1     -12.588  15.807  73.226  1.00  0.00    -0.511 A  
HETATM   21  C   UNL     1     -11.647  15.535  71.046  1.00  0.00    -0.424 A  
ENDBRANCH  15  16
ENDBRANCH  11  15
BRANCH  12  22
HETATM   22  C   UNL     1     -10.177  11.531  66.235  1.00  0.00    -0.230 C  
BRANCH  22  23
HETATM   23  C   UNL     1      -9.713  10.565  65.106  1.00  0.00    -0.282 C  
HETATM   24  O   UNL     1      -8.965  11.318  64.137  1.00  0.00    -0.387 OA 
HETATM   25  H   UNL     1      -8.682  10.728  63.448  1.00  0.00     0.000 HD 
BRANCH  23  26
HETATM   26  C   UNL     1      -8.699   9.447  65.489  1.00  0.00    -0.190 C  
HETATM   27  C   UNL     1      -8.982   8.469  66.658  1.00  0.00    -0.178 C  
HETATM   28  C   UNL     1      -8.037   7.224  66.533  1.00  0.00    -0.114 C  
HETATM   29  C   UNL     1      -8.740   9.162  68.016  1.00  0.00    -0.129 C  
HETATM   30  O   UNL     1      -7.978  10.116  68.142  1.00  0.00    -0.102 OA 
HETATM   31  N   UNL     1      -9.439   8.651  69.095  1.00  0.00    -0.157 N  
HETATM   32  H   UNL     1      -9.903   7.747  69.008  1.00  0.00     0.000 HD 
BRANCH  28  33
HETATM   33  C   UNL     1      -8.216   6.334  65.302  1.00  0.00    -0.138 A  
HETATM   34  C   UNL     1      -9.056   5.213  65.331  1.00  0.00    -0.145 A  
HETATM   35  C   UNL     1      -7.506   6.594  64.119  1.00  0.00    -0.097 A  
HETATM   36  C   UNL     1      -7.645   5.767  62.988  1.00  0.00    -0.082 A  
HETATM   37  C   UNL     1      -9.196   4.386  64.201  1.00  0.00    -0.140 A  
HETATM   38  C   UNL     1      -8.492   4.666  63.030  1.00  0.00    -0.111 A  
ENDBRANCH  28  33
BRANCH  31  39
HETATM   39  C   UNL     1      -9.526   9.392  70.371  1.00  0.00    -0.268 C  
HETATM   40  C   UNL     1      -9.863   8.272  72.609  1.00  0.00    -0.357 C  
HETATM   41  C   UNL     1     -11.129   8.850  72.079  1.00  0.00    -0.421 A  
HETATM   42  H   UNL     1      -7.590   7.146  71.950  1.00  0.00     0.000 HD 
HETATM   43  C   UNL     1      -8.800   8.707  71.578  1.00  0.00    -0.219 C  
HETATM   44  O   UNL     1      -8.031   7.561  71.218  1.00  0.00    -0.093 OA 
HETATM   45  C   UNL     1     -12.377   8.816  72.702  1.00  0.00    -0.254 A  
HETATM   46  C   UNL     1     -13.446   9.464  72.083  1.00  0.00    -0.543 A  
HETATM   47  C   UNL     1     -13.258  10.141  70.875  1.00  0.00    -0.360 A  
HETATM   48  C   UNL     1     -12.009  10.154  70.246  1.00  0.00    -0.315 A  
HETATM   49  C   UNL     1     -10.944   9.487  70.858  1.00  0.00    -0.407 A  
ENDBRANCH  31  39
ENDBRANCH  23  26
ENDBRANCH  22  23
ENDBRANCH  12  22
ENDBRANCH   6   9
TORSDOF 8
ENDMDL
MODEL        6
REMARK 921   NORMALIZED FREE ENERGY PREDICTED BY IDOCK:   -7.75 KCAL/MOL
REMARK 922        TOTAL FREE ENERGY PREDICTED BY IDOCK:  -13.34 KCAL/MOL
REMARK 923 INTER-LIGAND FREE ENERGY PREDICTED BY IDOCK:  -10.61 KCAL/MOL
REMARK 924 INTRA-LIGAND FREE ENERGY PREDICTED BY IDOCK:   -2.73 KCAL/MOL
REMARK 927      BINDING AFFINITY PREDICTED BY RF-SCORE:    0.00 PKD
ROOT
HETATM    1  C   UNL     1     -11.166  14.603  67.004  1.00  0.00    -0.348 C  
HETATM    2  C   UNL     1     -11.313  14.328  65.504  1.00  0.00    -0.325 C  
HETATM    3  N   UNL     1     -10.356  13.313  64.958  1.00  0.00    -0.384 N  
HETATM    4  C   UNL     1     -11.009  15.673  64.783  1.00  0.00    -0.418 C  
HETATM    5  C   UNL     1     -12.775  13.985  65.180  1.00  0.00    -0.419 C  
HETATM    6  C   UNL     1     -10.067  11.981  65.085  1.00  0.00    -0.266 C  
HETATM    7  H   UNL     1      -9.726  13.749  64.285  1.00  0.00     0.000 HD 
HETATM    8  O   UNL     1      -9.359  11.516  64.180  1.00  0.00    -0.129 OA 
ENDROOT
BRANCH   6   9
HETATM    9  C   UNL     1     -10.486  11.084  66.263  1.00  0.00    -0.254 C  
HETATM   10  C   UNL     1     -10.529  11.722  67.708  1.00  0.00    -0.194 C  
HETATM   11  N   UNL     1     -11.357  10.890  68.640  1.00  0.00    -0.272 NA 
HETATM   12  N   UNL     1      -9.808   9.756  66.272  1.00  0.00    -0.232 NA 
HETATM   13  C   UNL     1     -11.019   9.445  68.511  1.00  0.00    -0.030 C  
HETATM   14  C   UNL     1     -10.745   8.917  67.074  1.00  0.00    -0.110 C  
BRANCH  11  15
HETATM   15  C   UNL     1     -11.208  11.259  70.068  1.00  0.00    -0.132 C  
BRANCH  15  16
HETATM   16  C   UNL     1     -12.169  12.274  70.635  1.00  0.00    -0.378 A  
HETATM   17  C   UNL     1     -12.139  13.596  70.198  1.00  0.00    -0.361 A  
HETATM   18  N   UNL     1     -12.854  14.607  70.748  1.00  0.00    -0.350 NA 
HETATM   19  C   UNL     1     -13.754  13.007  72.309  1.00  0.00    -0.608 A  
HETATM   20  C   UNL     1     -13.643  14.288  71.794  1.00  0.00    -0.395 A  
HETATM   21  C   UNL     1     -13.002  11.988  71.720  1.00  0.00    -0.445 A  
ENDBRANCH  15  16
ENDBRANCH  11  15
BRANCH  12  22
HETATM   22  C   UNL     1      -8.425   9.658  66.869  1.00  0.00    -0.120 C  
BRANCH  22  23
HETATM   23  C   UNL     1      -7.903   8.297  67.417  1.00  0.00    -0.106 C  
HETATM   24  O   UNL     1      -6.589   8.063  66.883  1.00  0.00    -0.055 OA 
HETATM   25  H   UNL     1      -6.270   7.232  67.217  1.00  0.00     0.000 HD 
BRANCH  23  26
HETATM   26  C   UNL     1      -7.646   8.190  68.948  1.00  0.00    -0.098 C  
HETATM   27  C   UNL     1      -7.799   9.420  69.879  1.00  0.00    -0.126 C  
HETATM   28  C   UNL     1      -7.909   8.936  71.366  1.00  0.00    -0.141 C  
HETATM   29  C   UNL     1      -6.586  10.364  69.736  1.00  0.00    -0.103 C  
HETATM   30  O   UNL     1      -5.484   9.969  69.364  1.00  0.00    -0.038 OA 
HETATM   31  N   UNL     1      -6.806  11.694  70.045  1.00  0.00    -0.331 N  
HETATM   32  H   UNL     1      -7.660  11.958  70.537  1.00  0.00     0.000 HD 
BRANCH  28  33
HETATM   33  C   UNL     1      -9.125   8.086  71.734  1.00  0.00    -0.207 A  
HETATM   34  C   UNL     1     -10.324   8.675  72.156  1.00  0.00    -0.403 A  
HETATM   35  C   UNL     1      -9.058   6.684  71.699  1.00  0.00    -0.142 A  
HETATM   36  C   UNL     1     -10.165   5.892  72.059  1.00  0.00    -0.237 A  
HETATM   37  C   UNL     1     -11.431   7.884  72.515  1.00  0.00    -0.455 A  
HETATM   38  C   UNL     1     -11.351   6.493  72.464  1.00  0.00    -0.299 A  
ENDBRANCH  28  33
BRANCH  31  39
HETATM   39  C   UNL     1      -5.828  12.739  69.676  1.00  0.00    -0.113 C  
HETATM   40  C   UNL     1      -5.613  14.938  70.898  1.00  0.00    -0.118 C  
HETATM   41  C   UNL     1      -6.384  15.077  69.631  1.00  0.00    -0.142 A  
HETATM   42  H   UNL     1      -5.057  13.330  72.891  1.00  0.00     0.000 HD 
HETATM   43  C   UNL     1      -5.153  13.464  70.888  1.00  0.00    -0.126 C  
HETATM   44  O   UNL     1      -5.467  12.890  72.155  1.00  0.00    -0.390 OA 
HETATM   45  C   UNL     1      -6.935  16.255  69.124  1.00  0.00    -0.206 A  
HETATM   46  C   UNL     1      -7.577  16.210  67.887  1.00  0.00    -0.146 A  
HETATM   47  C   UNL     1      -7.647  15.011  67.171  1.00  0.00    -0.174 A  
HETATM   48  C   UNL     1      -7.110  13.831  67.693  1.00  0.00    -0.187 A  
HETATM   49  C   UNL     1      -6.485  13.875  68.943  1.00  0.00    -0.098 A  
ENDBRANCH  31  39
ENDBRANCH  23  26
ENDBRANCH  22  23
ENDBRANCH  12  22
ENDBRANCH   6   9
TORSDOF 8
ENDMDL
MODEL        7
REMARK 921   NORMALIZED FREE ENERGY PREDICTED BY IDOCK:   -7.72 KCAL/MOL
REMARK 922        TOTAL FREE ENERGY PREDICTED BY IDOCK:  -13.30 KCAL/MOL
REMARK 923 INTER-LIGAND FREE ENERGY PREDICTED BY IDOCK:  -10.95 KCAL/MOL
REMARK 924 INTRA-LIGAND FREE ENERGY PREDICTED BY IDOCK:   -2.35 KCAL/MOL
REMARK 927      BINDING AFFINITY PREDICTED BY RF-SCORE:    0.00 PKD
ROOT
HETATM    1  C   UNL     1      -7.763   7.328  65.725  1.00  0.00    -0.099 C  
HETATM    2  C   UNL     1      -8.169   8.656  65.078  1.00  0.00    -0.157 C  
HETATM    3  N   UNL     1      -9.555   9.115  65.411  1.00  0.00    -0.457 N  
HETATM    4  C   UNL     1      -8.124   8.424  63.541  1.00  0.00    -0.143 C  
HETATM    5  C   UNL     1      -7.111   9.726  65.385  1.00  0.00    -0.113 C  
HETATM    6  C   UNL     1     -10.286   9.519  66.497  1.00  0.00    -0.237 C  
HETATM    7  H   UNL     1     -10.133   9.130  64.571  1.00  0.00     0.000 HD 
HETATM    8  O   UNL     1     -11.345  10.102  66.220  1.00  0.00     0.384 OA 
ENDROOT
BRANCH   6   9
HETATM    9  C   UNL     1      -9.927   9.246  67.968  1.00  0.00    -0.182 C  
HETATM   10  C   UNL     1     -10.875   8.296  68.803  1.00  0.00     0.058 C  
HETATM   11  N   UNL     1     -10.180   7.782  70.026  1.00  0.00    -0.206 NA 
HETATM   12  N   UNL     1      -9.571  10.475  68.734  1.00  0.00    -0.171 NA 
HETATM   13  C   UNL     1      -9.467   8.879  70.738  1.00  0.00    -0.228 C  
HETATM   14  C   UNL     1      -8.746   9.934  69.852  1.00  0.00    -0.201 C  
BRANCH  11  15
HETATM   15  C   UNL     1     -11.085   7.130  71.002  1.00  0.00    -0.260 C  
BRANCH  15  16
HETATM   16  C   UNL     1     -10.663   5.798  71.572  1.00  0.00    -0.319 A  
HETATM   17  C   UNL     1     -10.989   5.457  72.882  1.00  0.00    -0.287 A  
HETATM   18  N   UNL     1     -10.531   4.357  73.529  1.00  0.00    -0.180 NA 
HETATM   19  C   UNL     1      -9.313   3.792  71.529  1.00  0.00    -0.203 A  
HETATM   20  C   UNL     1      -9.700   3.552  72.837  1.00  0.00    -0.135 A  
HETATM   21  C   UNL     1      -9.801   4.934  70.891  1.00  0.00    -0.277 A  
ENDBRANCH  15  16
ENDBRANCH  11  15
BRANCH  12  22
HETATM   22  C   UNL     1     -10.689  11.314  69.306  1.00  0.00    -0.179 C  
BRANCH  22  23
HETATM   23  C   UNL     1     -10.634  12.867  69.200  1.00  0.00     0.049 C  
HETATM   24  O   UNL     1      -9.272  13.262  68.967  1.00  0.00    -0.365 OA 
HETATM   25  H   UNL     1      -9.239  14.209  68.902  1.00  0.00     0.000 HD 
BRANCH  23  26
HETATM   26  C   UNL     1     -11.367  13.530  67.997  1.00  0.00    -0.318 C  
HETATM   27  C   UNL     1     -10.701  14.660  67.172  1.00  0.00    -0.292 C  
HETATM   28  C   UNL     1     -11.457  14.822  65.807  1.00  0.00    -0.322 C  
HETATM   29  C   UNL     1     -10.747  15.996  67.944  1.00  0.00    -0.316 C  
HETATM   30  O   UNL     1     -11.597  16.235  68.797  1.00  0.00    -0.342 OA 
HETATM   31  N   UNL     1      -9.767  16.919  67.628  1.00  0.00    -0.246 N  
HETATM   32  H   UNL     1      -9.203  16.782  66.788  1.00  0.00     0.000 HD 
BRANCH  28  33
HETATM   33  C   UNL     1     -11.415  13.635  64.844  1.00  0.00    -0.352 A  
HETATM   34  C   UNL     1     -12.590  13.011  64.407  1.00  0.00    -0.356 A  
HETATM   35  C   UNL     1     -10.189  13.111  64.405  1.00  0.00    -0.319 A  
HETATM   36  C   UNL     1     -10.139  12.003  63.537  1.00  0.00    -0.448 A  
HETATM   37  C   UNL     1     -12.541  11.904  63.539  1.00  0.00    -0.579 A  
HETATM   38  C   UNL     1     -11.315  11.403  63.103  1.00  0.00     0.033 A  
ENDBRANCH  28  33
BRANCH  31  39
HETATM   39  C   UNL     1      -9.520  18.099  68.483  1.00  0.00    -0.329 C  
HETATM   40  C   UNL     1      -9.063  20.408  67.570  1.00  0.00    -0.447 C  
HETATM   41  C   UNL     1      -7.813  19.720  67.996  1.00  0.00    -0.342 A  
HETATM   42  H   UNL     1     -11.454  20.056  66.556  1.00  0.00     0.000 HD 
HETATM   43  C   UNL     1     -10.181  19.425  67.978  1.00  0.00    -0.423 C  
HETATM   44  O   UNL     1     -11.052  19.251  66.862  1.00  0.00    -0.350 OA 
HETATM   45  C   UNL     1      -6.520  20.241  67.932  1.00  0.00    -0.299 A  
HETATM   46  C   UNL     1      -5.469  19.474  68.432  1.00  0.00    -0.218 A  
HETATM   47  C   UNL     1      -5.717  18.220  68.998  1.00  0.00    -0.210 A  
HETATM   48  C   UNL     1      -7.012  17.695  69.041  1.00  0.00    -0.233 A  
HETATM   49  C   UNL     1      -8.061  18.458  68.520  1.00  0.00    -0.340 A  
ENDBRANCH  31  39
ENDBRANCH  23  26
ENDBRANCH  22  23
ENDBRANCH  12  22
ENDBRANCH   6   9
TORSDOF 8
ENDMDL
MODEL        8
REMARK 921   NORMALIZED FREE ENERGY PREDICTED BY IDOCK:   -7.63 KCAL/MOL
REMARK 922        TOTAL FREE ENERGY PREDICTED BY IDOCK:  -13.16 KCAL/MOL
REMARK 923 INTER-LIGAND FREE ENERGY PREDICTED BY IDOCK:   -9.89 KCAL/MOL
REMARK 924 INTRA-LIGAND FREE ENERGY PREDICTED BY IDOCK:   -3.27 KCAL/MOL
REMARK 927      BINDING AFFINITY PREDICTED BY RF-SCORE:    0.00 PKD
ROOT
HETATM    1  C   UNL     1      -7.530   7.786  64.514  1.00  0.00    -0.097 C  
HETATM    2  C   UNL     1      -8.134   8.898  63.651  1.00  0.00    -0.167 C  
HETATM    3  N   UNL     1      -9.279   9.628  64.282  1.00  0.00    -0.385 N  
HETATM    4  C   UNL     1      -8.687   8.206  62.372  1.00  0.00     0.063 C  
HETATM    5  C   UNL     1      -7.023   9.850  63.181  1.00  0.00    -0.124 C  
HETATM    6  C   UNL     1      -9.530  10.443  65.354  1.00  0.00    -0.232 C  
HETATM    7  H   UNL     1     -10.135   9.469  63.751  1.00  0.00     0.000 HD 
HETATM    8  O   UNL     1     -10.606  11.058  65.296  1.00  0.00    -0.268 OA 
ENDROOT
BRANCH   6   9
HETATM    9  C   UNL     1      -8.638  10.582  66.600  1.00  0.00    -0.131 C  
HETATM   10  C   UNL     1      -9.249  10.186  68.002  1.00  0.00    -0.138 C  
HETATM   11  N   UNL     1      -8.168   9.949  69.012  1.00  0.00    -0.115 NA 
HETATM   12  N   UNL     1      -7.908  11.880  66.669  1.00  0.00    -0.068 NA 
HETATM   13  C   UNL     1      -7.143  11.029  68.963  1.00  0.00    -0.106 C  
HETATM   14  C   UNL     1      -6.752  11.557  67.554  1.00  0.00    -0.087 C  
BRANCH  11  15
HETATM   15  C   UNL     1      -8.659   9.861  70.408  1.00  0.00     0.086 C  
BRANCH  15  16
HETATM   16  C   UNL     1      -8.888   8.487  70.987  1.00  0.00    -0.212 A  
HETATM   17  C   UNL     1      -8.603   7.349  70.238  1.00  0.00    -0.145 A  
HETATM   18  N   UNL     1      -8.911   6.082  70.610  1.00  0.00    -0.145 NA 
HETATM   19  C   UNL     1      -9.869   6.998  72.622  1.00  0.00    -0.186 A  
HETATM   20  C   UNL     1      -9.541   5.938  71.793  1.00  0.00    -0.151 A  
HETATM   21  C   UNL     1      -9.539   8.291  72.208  1.00  0.00    -0.355 A  
ENDBRANCH  15  16
ENDBRANCH  11  15
BRANCH  12  22
HETATM   22  C   UNL     1      -8.632  13.084  67.222  1.00  0.00    -0.206 C  
BRANCH  22  23
HETATM   23  C   UNL     1      -9.039  14.255  66.279  1.00  0.00    -0.068 C  
HETATM   24  O   UNL     1     -10.346  13.981  65.748  1.00  0.00    -0.296 OA 
HETATM   25  H   UNL     1     -10.594  14.695  65.172  1.00  0.00     0.000 HD 
BRANCH  23  26
HETATM   26  C   UNL     1      -9.245  15.657  66.922  1.00  0.00    -0.257 C  
HETATM   27  C   UNL     1      -9.617  15.810  68.418  1.00  0.00    -0.200 C  
HETATM   28  C   UNL     1      -9.334  17.283  68.876  1.00  0.00    -0.191 C  
HETATM   29  C   UNL     1     -11.109  15.482  68.642  1.00  0.00    -0.297 C  
HETATM   30  O   UNL     1     -11.949  15.592  67.754  1.00  0.00    -0.101 OA 
HETATM   31  N   UNL     1     -11.455  15.047  69.909  1.00  0.00    -0.271 N  
HETATM   32  H   UNL     1     -10.789  15.155  70.674  1.00  0.00     0.000 HD 
BRANCH  28  33
HETATM   33  C   UNL     1      -7.880  17.755  68.844  1.00  0.00    -0.186 A  
HETATM   34  C   UNL     1      -7.524  18.978  68.262  1.00  0.00    -0.325 A  
HETATM   35  C   UNL     1      -6.853  16.949  69.361  1.00  0.00    -0.195 A  
HETATM   36  C   UNL     1      -5.508  17.363  69.314  1.00  0.00    -0.183 A  
HETATM   37  C   UNL     1      -6.181  19.393  68.215  1.00  0.00    -0.254 A  
HETATM   38  C   UNL     1      -5.174  18.586  68.744  1.00  0.00    -0.185 A  
ENDBRANCH  28  33
BRANCH  31  39
HETATM   39  C   UNL     1     -12.771  14.428  70.174  1.00  0.00    -0.207 C  
HETATM   40  C   UNL     1     -13.538  13.718  72.472  1.00  0.00    -0.680 C  
HETATM   41  C   UNL     1     -13.051  12.564  71.666  1.00  0.00    -0.414 A  
HETATM   42  H   UNL     1     -13.224  16.277  72.941  1.00  0.00     0.000 HD 
HETATM   43  C   UNL     1     -13.469  14.907  71.491  1.00  0.00    -0.410 C  
HETATM   44  O   UNL     1     -12.800  15.986  72.142  1.00  0.00    -0.453 OA 
HETATM   45  C   UNL     1     -13.010  11.230  72.073  1.00  0.00    -0.379 A  
HETATM   46  C   UNL     1     -12.577  10.269  71.160  1.00  0.00    -0.501 A  
HETATM   47  C   UNL     1     -12.209  10.642  69.864  1.00  0.00    -0.346 A  
HETATM   48  C   UNL     1     -12.234  11.983  69.468  1.00  0.00    -0.176 A  
HETATM   49  C   UNL     1     -12.650  12.946  70.392  1.00  0.00    -0.145 A  
ENDBRANCH  31  39
ENDBRANCH  23  26
ENDBRANCH  22  23
ENDBRANCH  12  22
ENDBRANCH   6   9
TORSDOF 8
ENDMDL
MODEL        9
REMARK 921   NORMALIZED FREE ENERGY PREDICTED BY IDOCK:   -7.55 KCAL/MOL
REMARK 922        TOTAL FREE ENERGY PREDICTED BY IDOCK:  -13.05 KCAL/MOL
REMARK 923 INTER-LIGAND FREE ENERGY PREDICTED BY IDOCK:  -10.80 KCAL/MOL
REMARK 924 INTRA-LIGAND FREE ENERGY PREDICTED BY IDOCK:   -2.25 KCAL/MOL
REMARK 927      BINDING AFFINITY PREDICTED BY RF-SCORE:    0.00 PKD
ROOT
HETATM    1  C   UNL     1     -10.037  18.454  68.581  1.00  0.00    -0.407 C  
HETATM    2  C   UNL     1      -8.617  18.217  68.057  1.00  0.00    -0.265 C  
HETATM    3  N   UNL     1      -7.950  16.988  68.593  1.00  0.00    -0.249 N  
HETATM    4  C   UNL     1      -7.770  19.435  68.526  1.00  0.00    -0.380 C  
HETATM    5  C   UNL     1      -8.618  18.257  66.521  1.00  0.00    -0.283 C  
HETATM    6  C   UNL     1      -8.096  15.627  68.562  1.00  0.00    -0.147 C  
HETATM    7  H   UNL     1      -7.138  17.243  69.155  1.00  0.00     0.000 HD 
HETATM    8  O   UNL     1      -7.095  14.990  68.924  1.00  0.00    -0.104 OA 
ENDROOT
BRANCH   6   9
HETATM    9  C   UNL     1      -9.386  14.874  68.193  1.00  0.00    -0.193 C  
HETATM   10  C   UNL     1     -10.461  14.635  69.327  1.00  0.00    -0.209 C  
HETATM   11  N   UNL     1     -11.800  14.309  68.739  1.00  0.00    -0.334 NA 
HETATM   12  N   UNL     1      -9.148  13.636  67.396  1.00  0.00    -0.211 NA 
HETATM   13  C   UNL     1     -11.677  13.298  67.652  1.00  0.00    -0.366 C  
HETATM   14  C   UNL     1     -10.453  13.439  66.702  1.00  0.00    -0.280 C  
BRANCH  11  15
HETATM   15  C   UNL     1     -12.778  13.790  69.724  1.00  0.00     0.139 C  
BRANCH  15  16
HETATM   16  C   UNL     1     -12.909  14.522  71.037  1.00  0.00    -0.418 A  
HETATM   17  C   UNL     1     -12.582  15.872  71.127  1.00  0.00    -0.333 A  
HETATM   18  N   UNL     1     -12.523  16.577  72.284  1.00  0.00    -0.060 NA 
HETATM   19  C   UNL     1     -13.145  14.558  73.444  1.00  0.00    -0.282 A  
HETATM   20  C   UNL     1     -12.804  15.900  73.416  1.00  0.00    -0.576 A  
HETATM   21  C   UNL     1     -13.195  13.861  72.234  1.00  0.00    -0.568 A  
ENDBRANCH  15  16
ENDBRANCH  11  15
BRANCH  12  22
HETATM   22  C   UNL     1      -8.782  12.368  68.129  1.00  0.00    -0.190 C  
BRANCH  22  23
HETATM   23  C   UNL     1      -7.314  11.849  68.109  1.00  0.00    -0.092 C  
HETATM   24  O   UNL     1      -6.833  11.784  69.462  1.00  0.00    -0.235 OA 
HETATM   25  H   UNL     1      -5.937  11.467  69.449  1.00  0.00     0.000 HD 
BRANCH  23  26
HETATM   26  C   UNL     1      -7.074  10.391  67.617  1.00  0.00    -0.085 C  
HETATM   27  C   UNL     1      -8.194   9.322  67.692  1.00  0.00    -0.115 C  
HETATM   28  C   UNL     1      -7.826   8.118  66.756  1.00  0.00    -0.095 C  
HETATM   29  C   UNL     1      -8.362   8.812  69.139  1.00  0.00    -0.125 C  
HETATM   30  O   UNL     1      -7.451   8.852  69.962  1.00  0.00    -0.050 OA 
HETATM   31  N   UNL     1      -9.607   8.308  69.469  1.00  0.00    -0.169 N  
HETATM   32  H   UNL     1     -10.275   8.101  68.726  1.00  0.00     0.000 HD 
BRANCH  28  33
HETATM   33  C   UNL     1      -7.737   8.405  65.257  1.00  0.00    -0.098 A  
HETATM   34  C   UNL     1      -8.698   9.191  64.608  1.00  0.00    -0.199 A  
HETATM   35  C   UNL     1      -6.709   7.848  64.480  1.00  0.00    -0.056 A  
HETATM   36  C   UNL     1      -6.632   8.086  63.094  1.00  0.00    -0.080 A  
HETATM   37  C   UNL     1      -8.622   9.429  63.223  1.00  0.00    -0.218 A  
HETATM   38  C   UNL     1      -7.587   8.878  62.468  1.00  0.00    -0.110 A  
ENDBRANCH  28  33
BRANCH  31  39
HETATM   39  C   UNL     1      -9.987   8.063  70.876  1.00  0.00    -0.186 C  
HETATM   40  C   UNL     1     -11.759   6.405  71.571  1.00  0.00    -0.369 C  
HETATM   41  C   UNL     1     -12.272   7.803  71.576  1.00  0.00    -0.344 A  
HETATM   42  H   UNL     1     -10.109   4.741  70.397  1.00  0.00     0.000 HD 
HETATM   43  C   UNL     1     -10.262   6.563  71.231  1.00  0.00    -0.198 C  
HETATM   44  O   UNL     1      -9.943   5.651  70.181  1.00  0.00    -0.180 OA 
HETATM   45  C   UNL     1     -13.562   8.209  71.923  1.00  0.00    -0.370 A  
HETATM   46  C   UNL     1     -13.850   9.573  71.927  1.00  0.00    -0.338 A  
HETATM   47  C   UNL     1     -12.859  10.505  71.605  1.00  0.00    -0.581 A  
HETATM   48  C   UNL     1     -11.575  10.091  71.240  1.00  0.00    -0.430 A  
HETATM   49  C   UNL     1     -11.295   8.722  71.217  1.00  0.00    -0.357 A  
ENDBRANCH  31  39
ENDBRANCH  23  26
ENDBRANCH  22  23
ENDBRANCH  12  22
ENDBRANCH   6   9
TORSDOF 8
ENDMDL
MODEL       10
REMARK 921   NORMALIZED FREE ENERGY PREDICTED BY IDOCK:   -7.18 KCAL/MOL
REMARK 922        TOTAL FREE ENERGY PREDICTED BY IDOCK:  -12.51 KCAL/MOL
REMARK 923 INTER-LIGAND FREE ENERGY PREDICTED BY IDOCK:  -10.09 KCAL/MOL
REMARK 924 INTRA-LIGAND FREE ENERGY PREDICTED BY IDOCK:   -2.41 KCAL/MOL
REMARK 927      BINDING AFFINITY PREDICTED BY RF-SCORE:    0.00 PKD
ROOT
HETATM    1  C   UNL     1      -5.334  11.331  66.557  1.00  0.00    -0.131 C  
HETATM    2  C   UNL     1      -6.048  10.640  67.724  1.00  0.00    -0.047 C  
HETATM    3  N   UNL     1      -5.977  11.379  69.025  1.00  0.00    -0.048 N  
HETATM    4  C   UNL     1      -5.325   9.279  67.934  1.00  0.00    -0.034 C  
HETATM    5  C   UNL     1      -7.492  10.305  67.321  1.00  0.00    -0.094 C  
HETATM    6  C   UNL     1      -6.401  12.558  69.577  1.00  0.00    -0.112 C  
HETATM    7  H   UNL     1      -5.452  10.836  69.710  1.00  0.00     0.000 HD 
HETATM    8  O   UNL     1      -6.352  12.597  70.816  1.00  0.00    -0.016 OA 
ENDROOT
BRANCH   6   9
HETATM    9  C   UNL     1      -6.844  13.804  68.792  1.00  0.00    -0.106 C  
HETATM   10  C   UNL     1      -6.768  15.208  69.515  1.00  0.00    -0.171 C  
HETATM   11  N   UNL     1      -6.796  16.328  68.519  1.00  0.00    -0.133 NA 
HETATM   12  N   UNL     1      -8.140  13.629  68.075  1.00  0.00    -0.148 NA 
HETATM   13  C   UNL     1      -7.859  16.111  67.498  1.00  0.00    -0.147 C  
HETATM   14  C   UNL     1      -8.056  14.653  66.995  1.00  0.00    -0.120 C  
BRANCH  11  15
HETATM   15  C   UNL     1      -7.021  17.662  69.124  1.00  0.00    -0.217 C  
BRANCH  15  16
HETATM   16  C   UNL     1      -8.003  18.585  68.445  1.00  0.00    -0.337 A  
HETATM   17  C   UNL     1      -7.552  19.680  67.714  1.00  0.00    -0.278 A  
HETATM   18  N   UNL     1      -8.351  20.645  67.195  1.00  0.00    -0.278 NA 
HETATM   19  C   UNL     1     -10.234  19.464  68.127  1.00  0.00    -0.537 A  
HETATM   20  C   UNL     1      -9.675  20.514  67.418  1.00  0.00    -0.446 A  
HETATM   21  C   UNL     1      -9.382  18.488  68.649  1.00  0.00    -0.352 A  
ENDBRANCH  15  16
ENDBRANCH  11  15
BRANCH  12  22
HETATM   22  C   UNL     1      -9.422  13.829  68.847  1.00  0.00     0.089 C  
BRANCH  22  23
HETATM   23  C   UNL     1     -10.797  13.576  68.161  1.00  0.00    -0.254 C  
HETATM   24  O   UNL     1     -10.675  12.430  67.301  1.00  0.00    -0.224 OA 
HETATM   25  H   UNL     1     -11.514  12.277  66.882  1.00  0.00     0.000 HD 
BRANCH  23  26
HETATM   26  C   UNL     1     -11.990  13.164  69.072  1.00  0.00    -0.329 C  
HETATM   27  C   UNL     1     -11.794  12.196  70.266  1.00  0.00    -0.339 C  
HETATM   28  C   UNL     1     -13.025  12.308  71.232  1.00  0.00    -0.299 C  
HETATM   29  C   UNL     1     -11.664  10.741  69.769  1.00  0.00    -0.324 C  
HETATM   30  O   UNL     1     -12.142  10.363  68.704  1.00  0.00    -0.219 OA 
HETATM   31  N   UNL     1     -10.967   9.874  70.592  1.00  0.00    -0.318 N  
HETATM   32  H   UNL     1     -10.757  10.155  71.550  1.00  0.00     0.000 HD 
BRANCH  28  33
HETATM   33  C   UNL     1     -13.246  13.653  71.925  1.00  0.00    -0.497 A  
HETATM   34  C   UNL     1     -14.201  14.565  71.456  1.00  0.00    -0.497 A  
HETATM   35  C   UNL     1     -12.463  14.029  73.028  1.00  0.00     0.013 A  
HETATM   36  C   UNL     1     -12.642  15.276  73.657  1.00  0.00    -0.712 A  
HETATM   37  C   UNL     1     -14.381  15.810  72.086  1.00  0.00    -0.353 A  
HETATM   38  C   UNL     1     -13.603  16.163  73.187  1.00  0.00    -0.389 A  
ENDBRANCH  28  33
BRANCH  31  39
HETATM   39  C   UNL     1     -10.522   8.550  70.109  1.00  0.00    -0.220 C  
HETATM   40  C   UNL     1     -10.695   6.438  71.482  1.00  0.00    -0.282 C  
HETATM   41  C   UNL     1      -9.316   7.001  71.498  1.00  0.00    -0.154 A  
HETATM   42  H   UNL     1     -13.243   7.036  71.367  1.00  0.00     0.000 HD 
HETATM   43  C   UNL     1     -11.457   7.359  70.505  1.00  0.00    -0.255 C  
HETATM   44  O   UNL     1     -12.676   7.760  71.128  1.00  0.00    -0.273 OA 
HETATM   45  C   UNL     1      -8.212   6.466  72.163  1.00  0.00    -0.108 A  
HETATM   46  C   UNL     1      -6.978   7.099  72.018  1.00  0.00    -0.060 A  
HETATM   47  C   UNL     1      -6.857   8.233  71.210  1.00  0.00    -0.059 A  
HETATM   48  C   UNL     1      -7.970   8.776  70.562  1.00  0.00    -0.117 A  
HETATM   49  C   UNL     1      -9.210   8.151  70.726  1.00  0.00    -0.165 A  
ENDBRANCH  31  39
ENDBRANCH  23  26
ENDBRANCH  22  23
ENDBRANCH  12  22
ENDBRANCH   6   9
TORSDOF 8
ENDMDL
MODEL       11
REMARK 921   NORMALIZED FREE ENERGY PREDICTED BY IDOCK:   -7.15 KCAL/MOL
REMARK 922        TOTAL FREE ENERGY PREDICTED BY IDOCK:  -12.46 KCAL/MOL
REMARK 923 INTER-LIGAND FREE ENERGY PREDICTED BY IDOCK:  -10.07 KCAL/MOL
REMARK 924 INTRA-LIGAND FREE ENERGY PREDICTED BY IDOCK:   -2.39 KCAL/MOL
REMARK 927      BINDING AFFINITY PREDICTED BY RF-SCORE:    0.00 PKD
ROOT
HETATM    1  C   UNL     1     -10.573   3.648  72.624  1.00  0.00    -0.140 C  
HETATM    2  C   UNL     1      -9.575   3.505  71.470  1.00  0.00    -0.162 C  
HETATM    3  N   UNL     1      -9.969   4.214  70.211  1.00  0.00    -0.161 N  
HETATM    4  C   UNL     1      -9.510   1.987  71.135  1.00  0.00    -0.209 C  
HETATM    5  C   UNL     1      -8.170   3.902  71.949  1.00  0.00    -0.083 C  
HETATM    6  C   UNL     1     -10.179   5.488  69.756  1.00  0.00    -0.265 C  
HETATM    7  H   UNL     1     -10.130   3.540  69.463  1.00  0.00     0.000 HD 
HETATM    8  O   UNL     1     -10.204   5.600  68.521  1.00  0.00    -0.164 OA 
ENDROOT
BRANCH   6   9
HETATM    9  C   UNL     1     -10.444   6.720  70.639  1.00  0.00    -0.215 C  
HETATM   10  C   UNL     1     -11.780   7.531  70.404  1.00  0.00    -0.092 C  
HETATM   11  N   UNL     1     -12.103   8.391  71.589  1.00  0.00    -0.297 NA 
HETATM   12  N   UNL     1      -9.268   7.628  70.767  1.00  0.00    -0.157 NA 
HETATM   13  C   UNL     1     -10.896   9.128  72.060  1.00  0.00    -0.182 C  
HETATM   14  C   UNL     1      -9.551   8.349  72.041  1.00  0.00    -0.274 C  
BRANCH  11  15
HETATM   15  C   UNL     1     -13.166   9.391  71.333  1.00  0.00    -0.344 C  
BRANCH  15  16
HETATM   16  C   UNL     1     -12.747  10.825  71.124  1.00  0.00    -0.532 A  
HETATM   17  C   UNL     1     -13.184  11.821  71.994  1.00  0.00    -0.355 A  
HETATM   18  N   UNL     1     -12.986  13.149  71.809  1.00  0.00    -0.360 NA 
HETATM   19  C   UNL     1     -11.836  12.605  69.763  1.00  0.00    -0.379 A  
HETATM   20  C   UNL     1     -12.319  13.509  70.694  1.00  0.00    -0.358 A  
HETATM   21  C   UNL     1     -12.057  11.243  69.984  1.00  0.00    -0.425 A  
ENDBRANCH  15  16
ENDBRANCH  11  15
BRANCH  12  22
HETATM   22  C   UNL     1      -9.017   8.637  69.673  1.00  0.00    -0.145 C  
BRANCH  22  23
HETATM   23  C   UNL     1      -7.954   8.350  68.572  1.00  0.00    -0.121 C  
HETATM   24  O   UNL     1      -7.269   7.131  68.905  1.00  0.00    -0.085 OA 
HETATM   25  H   UNL     1      -6.620   6.956  68.233  1.00  0.00     0.000 HD 
BRANCH  23  26
HETATM   26  C   UNL     1      -8.471   8.041  67.137  1.00  0.00    -0.124 C  
HETATM   27  C   UNL     1      -8.588   9.155  66.065  1.00  0.00    -0.162 C  
HETATM   28  C   UNL     1      -8.708   8.499  64.646  1.00  0.00    -0.023 C  
HETATM   29  C   UNL     1      -9.829  10.034  66.329  1.00  0.00    -0.236 C  
HETATM   30  O   UNL     1     -10.810   9.622  66.942  1.00  0.00    -0.167 OA 
HETATM   31  N   UNL     1      -9.777  11.327  65.841  1.00  0.00    -0.215 N  
HETATM   32  H   UNL     1      -9.050  11.580  65.172  1.00  0.00     0.000 HD 
BRANCH  28  33
HETATM   33  C   UNL     1      -7.511   7.685  64.152  1.00  0.00    -0.102 A  
HETATM   34  C   UNL     1      -6.226   8.240  64.099  1.00  0.00    -0.066 A  
HETATM   35  C   UNL     1      -7.678   6.368  63.696  1.00  0.00    -0.114 A  
HETATM   36  C   UNL     1      -6.587   5.619  63.216  1.00  0.00    -0.032 A  
HETATM   37  C   UNL     1      -5.135   7.492  63.620  1.00  0.00    -0.033 A  
HETATM   38  C   UNL     1      -5.316   6.181  63.182  1.00  0.00    -0.018 A  
ENDBRANCH  28  33
BRANCH  31  39
HETATM   39  C   UNL     1     -10.755  12.348  66.270  1.00  0.00    -0.256 C  
HETATM   40  C   UNL     1     -11.833  13.995  64.689  1.00  0.00    -0.433 C  
HETATM   41  C   UNL     1     -10.713  14.609  65.454  1.00  0.00    -0.382 A  
HETATM   42  H   UNL     1     -12.712  11.779  63.600  1.00  0.00     0.000 HD 
HETATM   43  C   UNL     1     -11.947  12.574  65.281  1.00  0.00    -0.438 C  
HETATM   44  O   UNL     1     -11.988  11.642  64.201  1.00  0.00    -0.269 OA 
HETATM   45  C   UNL     1     -10.273  15.931  65.358  1.00  0.00    -0.354 A  
HETATM   46  C   UNL     1      -9.243  16.351  66.199  1.00  0.00    -0.365 A  
HETATM   47  C   UNL     1      -8.681  15.465  67.123  1.00  0.00    -0.243 A  
HETATM   48  C   UNL     1      -9.112  14.138  67.200  1.00  0.00    -0.240 A  
HETATM   49  C   UNL     1     -10.131  13.714  66.342  1.00  0.00    -0.295 A  
ENDBRANCH  31  39
ENDBRANCH  23  26
ENDBRANCH  22  23
ENDBRANCH  12  22
ENDBRANCH   6   9
TORSDOF 8
ENDMDL
MODEL       12
REMARK 921   NORMALIZED FREE ENERGY PREDICTED BY IDOCK:   -7.08 KCAL/MOL
REMARK 922        TOTAL FREE ENERGY PREDICTED BY IDOCK:  -12.35 KCAL/MOL
REMARK 923 INTER-LIGAND FREE ENERGY PREDICTED BY IDOCK:   -9.35 KCAL/MOL
REMARK 924 INTRA-LIGAND FREE ENERGY PREDICTED BY IDOCK:   -3.00 KCAL/MOL
REMARK 927      BINDING AFFINITY PREDICTED BY RF-SCORE:    0.00 PKD
ROOT
HETATM    1  C   UNL     1      -7.323   7.877  67.471  1.00  0.00    -0.092 C  
HETATM    2  C   UNL     1      -6.274   8.036  68.577  1.00  0.00    -0.045 C  
HETATM    3  N   UNL     1      -6.792   8.635  69.849  1.00  0.00    -0.042 N  
HETATM    4  C   UNL     1      -5.198   9.013  68.021  1.00  0.00    -0.034 C  
HETATM    5  C   UNL     1      -5.561   6.696  68.811  1.00  0.00    -0.017 C  
HETATM    6  C   UNL     1      -7.679   8.343  70.851  1.00  0.00    -0.088 C  
HETATM    7  H   UNL     1      -6.349   9.537  70.020  1.00  0.00     0.000 HD 
HETATM    8  O   UNL     1      -7.545   9.028  71.876  1.00  0.00    -0.334 OA 
ENDROOT
BRANCH   6   9
HETATM    9  C   UNL     1      -8.822   7.318  70.763  1.00  0.00    -0.150 C  
HETATM   10  C   UNL     1      -8.557   5.971  69.980  1.00  0.00    -0.131 C  
HETATM   11  N   UNL     1      -9.563   4.925  70.353  1.00  0.00    -0.173 NA 
HETATM   12  N   UNL     1     -10.135   7.918  70.389  1.00  0.00    -0.193 NA 
HETATM   13  C   UNL     1     -10.944   5.486  70.356  1.00  0.00    -0.129 C  
HETATM   14  C   UNL     1     -11.111   6.925  70.921  1.00  0.00    -0.272 C  
BRANCH  11  15
HETATM   15  C   UNL     1      -9.562   3.744  69.457  1.00  0.00    -0.160 C  
BRANCH  15  16
HETATM   16  C   UNL     1      -9.182   3.958  68.013  1.00  0.00    -0.212 A  
HETATM   17  C   UNL     1      -7.917   3.596  67.556  1.00  0.00    -0.082 A  
HETATM   18  N   UNL     1      -7.432   3.882  66.323  1.00  0.00    -0.082 NA 
HETATM   19  C   UNL     1      -9.526   4.973  65.845  1.00  0.00    -0.171 A  
HETATM   20  C   UNL     1      -8.249   4.567  65.497  1.00  0.00    -0.110 A  
HETATM   21  C   UNL     1      -9.996   4.664  67.124  1.00  0.00    -0.215 A  
ENDBRANCH  15  16
ENDBRANCH  11  15
BRANCH  12  22
HETATM   22  C   UNL     1     -10.424   8.161  68.927  1.00  0.00    -0.185 C  
BRANCH  22  23
HETATM   23  C   UNL     1     -10.514   9.616  68.378  1.00  0.00    -0.223 C  
HETATM   24  O   UNL     1      -9.371  10.352  68.845  1.00  0.00    -0.168 OA 
HETATM   25  H   UNL     1      -9.426  11.240  68.510  1.00  0.00     0.000 HD 
BRANCH  23  26
HETATM   26  C   UNL     1     -10.409   9.810  66.837  1.00  0.00    -0.301 C  
HETATM   27  C   UNL     1      -9.866  11.127  66.226  1.00  0.00    -0.253 C  
HETATM   28  C   UNL     1      -9.472  10.881  64.728  1.00  0.00    -0.279 C  
HETATM   29  C   UNL     1     -10.934  12.239  66.298  1.00  0.00    -0.291 C  
HETATM   30  O   UNL     1     -12.137  11.996  66.344  1.00  0.00    -0.610 OA 
HETATM   31  N   UNL     1     -10.462  13.539  66.316  1.00  0.00    -0.285 N  
HETATM   32  H   UNL     1      -9.487  13.720  66.077  1.00  0.00     0.000 HD 
BRANCH  28  33
HETATM   33  C   UNL     1      -8.334   9.895  64.461  1.00  0.00    -0.168 A  
HETATM   34  C   UNL     1      -6.999  10.243  64.701  1.00  0.00    -0.079 A  
HETATM   35  C   UNL     1      -8.597   8.625  63.924  1.00  0.00    -0.019 A  
HETATM   36  C   UNL     1      -7.554   7.719  63.651  1.00  0.00    -0.126 A  
HETATM   37  C   UNL     1      -5.956   9.338  64.429  1.00  0.00    -0.071 A  
HETATM   38  C   UNL     1      -6.235   8.076  63.907  1.00  0.00    -0.062 A  
ENDBRANCH  28  33
BRANCH  31  39
HETATM   39  C   UNL     1     -11.343  14.670  66.675  1.00  0.00    -0.356 C  
HETATM   40  C   UNL     1     -10.483  16.917  67.441  1.00  0.00    -0.310 C  
HETATM   41  C   UNL     1     -10.939  16.076  68.583  1.00  0.00    -0.323 A  
HETATM   42  H   UNL     1      -9.385  16.872  65.062  1.00  0.00     0.000 HD 
HETATM   43  C   UNL     1     -10.838  16.073  66.198  1.00  0.00    -0.179 C  
HETATM   44  O   UNL     1      -9.691  16.020  65.352  1.00  0.00    -0.427 OA 
HETATM   45  C   UNL     1     -10.926  16.435  69.931  1.00  0.00    -0.339 A  
HETATM   46  C   UNL     1     -11.449  15.540  70.863  1.00  0.00    -0.410 A  
HETATM   47  C   UNL     1     -11.986  14.319  70.444  1.00  0.00    -0.402 A  
HETATM   48  C   UNL     1     -11.978  13.956  69.094  1.00  0.00    -0.404 A  
HETATM   49  C   UNL     1     -11.435  14.847  68.165  1.00  0.00    -0.348 A  
ENDBRANCH  31  39
ENDBRANCH  23  26
ENDBRANCH  22  23
ENDBRANCH  12  22
ENDBRANCH   6   9
TORSDOF 8
ENDMDL
MODEL       13
REMARK 921   NORMALIZED FREE ENERGY PREDICTED BY IDOCK:   -7.07 KCAL/MOL
REMARK 922        TOTAL FREE ENERGY PREDICTED BY IDOCK:  -12.34 KCAL/MOL
REMARK 923 INTER-LIGAND FREE ENERGY PREDICTED BY IDOCK:  -10.30 KCAL/MOL
REMARK 924 INTRA-LIGAND FREE ENERGY PREDICTED BY IDOCK:   -2.03 KCAL/MOL
REMARK 927      BINDING AFFINITY PREDICTED BY RF-SCORE:    0.00 PKD
ROOT
HETATM    1  C   UNL     1      -5.330  11.757  68.422  1.00  0.00    -0.042 C  
HETATM    2  C   UNL     1      -6.197  11.758  69.685  1.00  0.00    -0.128 C  
HETATM    3  N   UNL     1      -5.996  12.943  70.579  1.00  0.00    -0.334 N  
HETATM    4  C   UNL     1      -5.782  10.499  70.500  1.00  0.00    -0.097 C  
HETATM    5  C   UNL     1      -7.671  11.560  69.303  1.00  0.00     0.105 C  
HETATM    6  C   UNL     1      -6.170  14.301  70.563  1.00  0.00    -0.157 C  
HETATM    7  H   UNL     1      -5.610  12.647  71.476  1.00  0.00     0.000 HD 
HETATM    8  O   UNL     1      -6.137  14.841  71.679  1.00  0.00     0.154 OA 
ENDROOT
BRANCH   6   9
HETATM    9  C   UNL     1      -6.324  15.167  69.301  1.00  0.00    -0.117 C  
HETATM   10  C   UNL     1      -6.346  16.738  69.473  1.00  0.00    -0.229 C  
HETATM   11  N   UNL     1      -6.054  17.426  68.174  1.00  0.00    -0.156 NA 
HETATM   12  N   UNL     1      -7.406  14.702  68.386  1.00  0.00    -0.107 NA 
HETATM   13  C   UNL     1      -6.838  16.821  67.060  1.00  0.00    -0.211 C  
HETATM   14  C   UNL     1      -6.991  15.274  67.073  1.00  0.00     0.180 C  
BRANCH  11  15
HETATM   15  C   UNL     1      -6.342  18.880  68.186  1.00  0.00    -0.218 C  
BRANCH  15  16
HETATM   16  C   UNL     1      -7.776  19.314  68.009  1.00  0.00    -0.323 A  
HETATM   17  C   UNL     1      -8.692  19.161  69.047  1.00  0.00    -0.203 A  
HETATM   18  N   UNL     1     -10.026  19.381  68.937  1.00  0.00    -0.451 NA 
HETATM   19  C   UNL     1      -9.654  19.959  66.628  1.00  0.00    -0.527 A  
HETATM   20  C   UNL     1     -10.475  19.772  67.728  1.00  0.00    -0.416 A  
HETATM   21  C   UNL     1      -8.285  19.723  66.774  1.00  0.00    -0.344 A  
ENDBRANCH  15  16
ENDBRANCH  11  15
BRANCH  12  22
HETATM   22  C   UNL     1      -8.827  15.122  68.681  1.00  0.00    -0.186 C  
BRANCH  22  23
HETATM   23  C   UNL     1      -9.978  14.724  67.710  1.00  0.00    -0.223 C  
HETATM   24  O   UNL     1      -9.588  13.534  67.003  1.00  0.00    -0.232 OA 
HETATM   25  H   UNL     1     -10.291  13.291  66.411  1.00  0.00     0.000 HD 
BRANCH  23  26
HETATM   26  C   UNL     1     -11.332  14.288  68.342  1.00  0.00    -0.309 C  
HETATM   27  C   UNL     1     -11.458  12.969  69.146  1.00  0.00    -0.353 C  
HETATM   28  C   UNL     1     -12.770  13.008  70.005  1.00  0.00     0.186 C  
HETATM   29  C   UNL     1     -11.506  11.755  68.194  1.00  0.00    -0.316 C  
HETATM   30  O   UNL     1     -11.896  11.843  67.033  1.00  0.00    -0.585 OA 
HETATM   31  N   UNL     1     -11.077  10.549  68.719  1.00  0.00    -0.249 N  
HETATM   32  H   UNL     1     -10.951  10.459  69.727  1.00  0.00     0.000 HD 
BRANCH  28  33
HETATM   33  C   UNL     1     -12.854  14.074  71.098  1.00  0.00    -0.427 A  
HETATM   34  C   UNL     1     -14.090  14.540  71.566  1.00  0.00    -0.493 A  
HETATM   35  C   UNL     1     -11.690  14.649  71.631  1.00  0.00    -0.250 A  
HETATM   36  C   UNL     1     -11.758  15.650  72.620  1.00  0.00    -0.555 A  
HETATM   37  C   UNL     1     -14.159  15.539  72.555  1.00  0.00    -0.595 A  
HETATM   38  C   UNL     1     -12.992  16.091  73.082  1.00  0.00    -0.627 A  
ENDBRANCH  28  33
BRANCH  31  39
HETATM   39  C   UNL     1     -10.796   9.390  67.845  1.00  0.00    -0.154 C  
HETATM   40  C   UNL     1      -9.152   7.568  68.437  1.00  0.00    -0.133 C  
HETATM   41  C   UNL     1      -8.574   8.550  67.478  1.00  0.00    -0.128 A  
HETATM   42  H   UNL     1     -10.803   7.268  70.449  1.00  0.00     0.000 HD 
HETATM   43  C   UNL     1     -10.616   8.030  68.599  1.00  0.00    -0.109 C  
HETATM   44  O   UNL     1     -10.912   8.094  69.992  1.00  0.00    -0.248 OA 
HETATM   45  C   UNL     1      -7.290   8.515  66.931  1.00  0.00    -0.083 A  
HETATM   46  C   UNL     1      -6.938   9.489  65.999  1.00  0.00    -0.091 A  
HETATM   47  C   UNL     1      -7.861  10.467  65.616  1.00  0.00    -0.154 A  
HETATM   48  C   UNL     1      -9.139  10.509  66.182  1.00  0.00    -0.184 A  
HETATM   49  C   UNL     1      -9.482   9.542  67.131  1.00  0.00    -0.187 A  
ENDBRANCH  31  39
ENDBRANCH  23  26
ENDBRANCH  22  23
ENDBRANCH  12  22
ENDBRANCH   6   9
TORSDOF 8
ENDMDL
MODEL       14
REMARK 921   NORMALIZED FREE ENERGY PREDICTED BY IDOCK:   -6.98 KCAL/MOL
REMARK 922        TOTAL FREE ENERGY PREDICTED BY IDOCK:  -12.22 KCAL/MOL
REMARK 923 INTER-LIGAND FREE ENERGY PREDICTED BY IDOCK:   -9.96 KCAL/MOL
REMARK 924 INTRA-LIGAND FREE ENERGY PREDICTED BY IDOCK:   -2.26 KCAL/MOL
REMARK 927      BINDING AFFINITY PREDICTED BY RF-SCORE:    0.00 PKD
ROOT
HETATM    1  C   UNL     1     -13.453   8.521  71.526  1.00  0.00    -0.325 C  
HETATM    2  C   UNL     1     -12.549   9.723  71.235  1.00  0.00    -0.365 C  
HETATM    3  N   UNL     1     -11.118   9.541  71.640  1.00  0.00    -0.347 N  
HETATM    4  C   UNL     1     -13.112  10.905  72.076  1.00  0.00    -0.462 C  
HETATM    5  C   UNL     1     -12.691  10.134  69.762  1.00  0.00     0.334 C  
HETATM    6  C   UNL     1     -10.038   8.762  71.323  1.00  0.00    -0.266 C  
HETATM    7  H   UNL     1     -10.874  10.200  72.379  1.00  0.00     0.000 HD 
HETATM    8  O   UNL     1      -8.950   9.193  71.734  1.00  0.00    -0.345 OA 
ENDROOT
BRANCH   6   9
HETATM    9  C   UNL     1     -10.094   7.412  70.586  1.00  0.00    -0.190 C  
HETATM   10  C   UNL     1      -8.743   6.619  70.377  1.00  0.00    -0.151 C  
HETATM   11  N   UNL     1      -9.008   5.177  70.066  1.00  0.00    -0.119 NA 
HETATM   12  N   UNL     1     -10.907   7.448  69.336  1.00  0.00    -0.210 NA 
HETATM   13  C   UNL     1     -10.080   5.039  69.040  1.00  0.00    -0.168 C  
HETATM   14  C   UNL     1     -11.284   6.017  69.151  1.00  0.00    -0.267 C  
BRANCH  11  15
HETATM   15  C   UNL     1      -7.820   4.441  69.574  1.00  0.00    -0.057 C  
BRANCH  15  16
HETATM   16  C   UNL     1      -7.414   4.644  68.135  1.00  0.00    -0.066 A  
HETATM   17  C   UNL     1      -7.517   3.600  67.219  1.00  0.00    -0.071 A  
HETATM   18  N   UNL     1      -7.042   3.637  65.950  1.00  0.00    -0.062 NA 
HETATM   19  C   UNL     1      -6.274   5.877  66.394  1.00  0.00    -0.034 A  
HETATM   20  C   UNL     1      -6.429   4.776  65.568  1.00  0.00    -0.040 A  
HETATM   21  C   UNL     1      -6.773   5.806  67.696  1.00  0.00    -0.059 A  
ENDBRANCH  15  16
ENDBRANCH  11  15
BRANCH  12  22
HETATM   22  C   UNL     1     -10.257   7.954  68.071  1.00  0.00    -0.208 C  
BRANCH  22  23
HETATM   23  C   UNL     1     -10.411   9.447  67.655  1.00  0.00    -0.268 C  
HETATM   24  O   UNL     1      -9.301  10.188  68.189  1.00  0.00    -0.134 OA 
HETATM   25  H   UNL     1      -9.395  11.099  67.936  1.00  0.00     0.000 HD 
BRANCH  23  26
HETATM   26  C   UNL     1     -10.318   9.784  66.139  1.00  0.00    -0.215 C  
HETATM   27  C   UNL     1      -9.802  11.162  65.649  1.00  0.00    -0.280 C  
HETATM   28  C   UNL     1      -9.412  11.062  64.134  1.00  0.00    -0.274 C  
HETATM   29  C   UNL     1     -10.890  12.242  65.828  1.00  0.00    -0.278 C  
HETATM   30  O   UNL     1     -12.087  11.974  65.856  1.00  0.00    -0.546 OA 
HETATM   31  N   UNL     1     -10.441  13.544  65.963  1.00  0.00    -0.293 N  
HETATM   32  H   UNL     1      -9.471  13.764  65.738  1.00  0.00     0.000 HD 
BRANCH  28  33
HETATM   33  C   UNL     1      -8.258  10.126  63.772  1.00  0.00    -0.163 A  
HETATM   34  C   UNL     1      -8.345   9.251  62.681  1.00  0.00    -0.185 A  
HETATM   35  C   UNL     1      -7.093  10.087  64.555  1.00  0.00    -0.139 A  
HETATM   36  C   UNL     1      -6.035   9.211  64.245  1.00  0.00    -0.071 A  
HETATM   37  C   UNL     1      -7.288   8.376  62.371  1.00  0.00    -0.100 A  
HETATM   38  C   UNL     1      -6.132   8.359  63.152  1.00  0.00    -0.081 A  
ENDBRANCH  28  33
BRANCH  31  39
HETATM   39  C   UNL     1     -11.341  14.621  66.427  1.00  0.00    -0.348 C  
HETATM   40  C   UNL     1     -10.518  16.772  67.461  1.00  0.00    -0.319 C  
HETATM   41  C   UNL     1     -10.990  15.805  68.490  1.00  0.00    -0.312 A  
HETATM   42  H   UNL     1      -9.370  17.004  65.117  1.00  0.00     0.000 HD 
HETATM   43  C   UNL     1     -10.839  16.072  66.123  1.00  0.00    -0.179 C  
HETATM   44  O   UNL     1      -9.674  16.123  65.302  1.00  0.00    -0.419 OA 
HETATM   45  C   UNL     1     -11.009  16.009  69.871  1.00  0.00    -0.353 A  
HETATM   46  C   UNL     1     -11.543  15.010  70.684  1.00  0.00    -0.358 A  
HETATM   47  C   UNL     1     -12.059  13.841  70.118  1.00  0.00    -0.429 A  
HETATM   48  C   UNL     1     -12.019  13.633  68.736  1.00  0.00    -0.394 A  
HETATM   49  C   UNL     1     -11.465  14.628  67.926  1.00  0.00    -0.350 A  
ENDBRANCH  31  39
ENDBRANCH  23  26
ENDBRANCH  22  23
ENDBRANCH  12  22
ENDBRANCH   6   9
TORSDOF 8
ENDMDL
MODEL       15
REMARK 921   NORMALIZED FREE ENERGY PREDICTED BY IDOCK:   -6.92 KCAL/MOL
REMARK 922        TOTAL FREE ENERGY PREDICTED BY IDOCK:  -12.12 KCAL/MOL
REMARK 923 INTER-LIGAND FREE ENERGY PREDICTED BY IDOCK:  -10.02 KCAL/MOL
REMARK 924 INTRA-LIGAND FREE ENERGY PREDICTED BY IDOCK:   -2.09 KCAL/MOL
REMARK 927      BINDING AFFINITY PREDICTED BY RF-SCORE:    0.00 PKD
ROOT
HETATM    1  C   UNL     1     -11.169   5.436  72.481  1.00  0.00    -0.305 C  
HETATM    2  C   UNL     1     -10.263   6.610  72.867  1.00  0.00    -0.195 C  
HETATM    3  N   UNL     1      -8.906   6.586  72.234  1.00  0.00    -0.134 N  
HETATM    4  C   UNL     1     -10.048   6.508  74.405  1.00  0.00    -0.371 C  
HETATM    5  C   UNL     1     -10.999   7.936  72.621  1.00  0.00    -0.440 C  
HETATM    6  C   UNL     1      -8.335   6.667  70.992  1.00  0.00    -0.125 C  
HETATM    7  H   UNL     1      -8.186   6.476  72.948  1.00  0.00     0.000 HD 
HETATM    8  O   UNL     1      -7.118   6.904  70.996  1.00  0.00    -0.068 OA 
ENDROOT
BRANCH   6   9
HETATM    9  C   UNL     1      -9.060   6.423  69.657  1.00  0.00    -0.143 C  
HETATM   10  C   UNL     1      -8.183   6.174  68.367  1.00  0.00    -0.115 C  
HETATM   11  N   UNL     1      -8.991   5.526  67.283  1.00  0.00    -0.112 NA 
HETATM   12  N   UNL     1     -10.163   7.390  69.391  1.00  0.00    -0.196 NA 
HETATM   13  C   UNL     1     -10.312   6.197  67.127  1.00  0.00    -0.230 C  
HETATM   14  C   UNL     1     -11.028   6.643  68.433  1.00  0.00    -0.239 C  
BRANCH  11  15
HETATM   15  C   UNL     1      -8.328   5.528  65.958  1.00  0.00    -0.122 C  
BRANCH  15  16
HETATM   16  C   UNL     1      -8.670   4.415  64.999  1.00  0.00    -0.133 A  
HETATM   17  C   UNL     1      -9.158   3.200  65.475  1.00  0.00    -0.151 A  
HETATM   18  N   UNL     1      -9.353   2.095  64.714  1.00  0.00    -0.131 NA 
HETATM   19  C   UNL     1      -8.554   3.361  62.825  1.00  0.00    -0.081 A  
HETATM   20  C   UNL     1      -9.043   2.202  63.406  1.00  0.00    -0.093 A  
HETATM   21  C   UNL     1      -8.364   4.481  63.638  1.00  0.00    -0.109 A  
ENDBRANCH  15  16
ENDBRANCH  11  15
BRANCH  12  22
HETATM   22  C   UNL     1      -9.813   8.733  68.797  1.00  0.00    -0.171 C  
BRANCH  22  23
HETATM   23  C   UNL     1     -10.891   9.554  68.029  1.00  0.00    -0.168 C  
HETATM   24  O   UNL     1     -10.959  10.870  68.604  1.00  0.00    -0.193 OA 
HETATM   25  H   UNL     1     -11.618  11.371  68.135  1.00  0.00     0.000 HD 
BRANCH  23  26
HETATM   26  C   UNL     1     -10.617   9.876  66.531  1.00  0.00    -0.156 C  
HETATM   27  C   UNL     1      -9.945  11.206  66.103  1.00  0.00    -0.273 C  
HETATM   28  C   UNL     1      -9.412  11.069  64.634  1.00  0.00    -0.270 C  
HETATM   29  C   UNL     1     -10.955  12.371  66.174  1.00  0.00    -0.286 C  
HETATM   30  O   UNL     1     -12.167  12.200  66.078  1.00  0.00    -0.609 OA 
HETATM   31  N   UNL     1     -10.419  13.633  66.359  1.00  0.00    -0.284 N  
HETATM   32  H   UNL     1      -9.417  13.774  66.236  1.00  0.00     0.000 HD 
BRANCH  28  33
HETATM   33  C   UNL     1      -8.306  10.042  64.389  1.00  0.00    -0.169 A  
HETATM   34  C   UNL     1      -8.518   8.925  63.570  1.00  0.00    -0.146 A  
HETATM   35  C   UNL     1      -7.056  10.169  65.016  1.00  0.00    -0.135 A  
HETATM   36  C   UNL     1      -6.039   9.215  64.816  1.00  0.00    -0.066 A  
HETATM   37  C   UNL     1      -7.503   7.972  63.369  1.00  0.00    -0.122 A  
HETATM   38  C   UNL     1      -6.263   8.120  63.990  1.00  0.00    -0.066 A  
ENDBRANCH  28  33
BRANCH  31  39
HETATM   39  C   UNL     1     -11.273  14.780  66.734  1.00  0.00    -0.344 C  
HETATM   40  C   UNL     1     -10.363  16.950  67.651  1.00  0.00    -0.317 C  
HETATM   41  C   UNL     1     -10.904  16.074  68.727  1.00  0.00    -0.302 A  
HETATM   42  H   UNL     1      -9.157  16.975  65.324  1.00  0.00     0.000 HD 
HETATM   43  C   UNL     1     -10.692  16.183  66.352  1.00  0.00    -0.211 C  
HETATM   44  O   UNL     1      -9.509  16.124  65.557  1.00  0.00    -0.428 OA 
HETATM   45  C   UNL     1     -10.941  16.367  70.091  1.00  0.00    -0.291 A  
HETATM   46  C   UNL     1     -11.542  15.450  70.952  1.00  0.00    -0.396 A  
HETATM   47  C   UNL     1     -12.105  14.273  70.448  1.00  0.00    -0.409 A  
HETATM   48  C   UNL     1     -12.048  13.976  69.084  1.00  0.00    -0.375 A  
HETATM   49  C   UNL     1     -11.427  14.889  68.226  1.00  0.00    -0.343 A  
ENDBRANCH  31  39
ENDBRANCH  23  26
ENDBRANCH  22  23
ENDBRANCH  12  22
ENDBRANCH   6   9
TORSDOF 8
ENDMDL
MODEL       16
REMARK 921   NORMALIZED FREE ENERGY PREDICTED BY IDOCK:   -6.83 KCAL/MOL
REMARK 922        TOTAL FREE ENERGY PREDICTED BY IDOCK:  -11.99 KCAL/MOL
REMARK 923 INTER-LIGAND FREE ENERGY PREDICTED BY IDOCK:  -10.58 KCAL/MOL
REMARK 924 INTRA-LIGAND FREE ENERGY PREDICTED BY IDOCK:   -1.41 KCAL/MOL
REMARK 927      BINDING AFFINITY PREDICTED BY RF-SCORE:    0.00 PKD
ROOT
HETATM    1  C   UNL     1      -8.781   9.238  69.919  1.00  0.00    -0.189 C  
HETATM    2  C   UNL     1     -10.282   9.088  70.188  1.00  0.00    -0.197 C  
HETATM    3  N   UNL     1     -11.121  10.227  69.696  1.00  0.00    -0.257 N  
HETATM    4  C   UNL     1     -10.445   9.038  71.734  1.00  0.00    -0.418 C  
HETATM    5  C   UNL     1     -10.770   7.732  69.657  1.00  0.00    -0.223 C  
HETATM    6  C   UNL     1     -11.481  10.823  68.517  1.00  0.00    -0.292 C  
HETATM    7  H   UNL     1     -11.561  10.706  70.482  1.00  0.00     0.000 HD 
HETATM    8  O   UNL     1     -12.463  11.575  68.595  1.00  0.00    -0.335 OA 
ENDROOT
BRANCH   6   9
HETATM    9  C   UNL     1     -10.733  10.680  67.180  1.00  0.00    -0.272 C  
HETATM   10  C   UNL     1      -9.168  10.463  67.219  1.00  0.00    -0.142 C  
HETATM   11  N   UNL     1      -8.669   9.908  65.920  1.00  0.00    -0.135 NA 
HETATM   12  N   UNL     1     -11.117  11.706  66.168  1.00  0.00    -0.300 NA 
HETATM   13  C   UNL     1      -9.256  10.642  64.763  1.00  0.00    -0.220 C  
HETATM   14  C   UNL     1     -10.752  11.048  64.881  1.00  0.00    -0.208 C  
BRANCH  11  15
HETATM   15  C   UNL     1      -7.194   9.952  65.776  1.00  0.00    -0.110 C  
BRANCH  15  16
HETATM   16  C   UNL     1      -6.361   9.415  66.913  1.00  0.00    -0.066 A  
HETATM   17  C   UNL     1      -6.206   8.042  67.087  1.00  0.00    -0.055 A  
HETATM   18  N   UNL     1      -5.606   7.462  68.155  1.00  0.00    -0.025 NA 
HETATM   19  C   UNL     1      -5.227   9.674  69.034  1.00  0.00    -0.036 A  
HETATM   20  C   UNL     1      -5.133   8.294  69.106  1.00  0.00    -0.027 A  
HETATM   21  C   UNL     1      -5.853  10.239  67.921  1.00  0.00    -0.041 A  
ENDBRANCH  15  16
ENDBRANCH  11  15
BRANCH  12  22
HETATM   22  C   UNL     1     -10.458  13.063  66.235  1.00  0.00    -0.276 C  
BRANCH  22  23
HETATM   23  C   UNL     1     -11.074  14.191  67.114  1.00  0.00    -0.307 C  
HETATM   24  O   UNL     1     -12.493  13.980  67.199  1.00  0.00    -0.533 OA 
HETATM   25  H   UNL     1     -12.870  14.668  67.736  1.00  0.00     0.000 HD 
BRANCH  23  26
HETATM   26  C   UNL     1     -10.669  14.232  68.617  1.00  0.00    -0.256 C  
HETATM   27  C   UNL     1     -10.075  15.512  69.256  1.00  0.00    -0.256 C  
HETATM   28  C   UNL     1     -10.174  15.407  70.818  1.00  0.00     0.348 C  
HETATM   29  C   UNL     1      -8.597  15.688  68.848  1.00  0.00    -0.211 C  
HETATM   30  O   UNL     1      -7.887  14.742  68.519  1.00  0.00    -0.117 OA 
HETATM   31  N   UNL     1      -8.108  16.982  68.864  1.00  0.00    -0.241 N  
HETATM   32  H   UNL     1      -8.647  17.714  69.326  1.00  0.00     0.000 HD 
BRANCH  28  33
HETATM   33  C   UNL     1     -11.576  15.350  71.424  1.00  0.00    -0.461 A  
HETATM   34  C   UNL     1     -11.989  16.276  72.391  1.00  0.00    -0.630 A  
HETATM   35  C   UNL     1     -12.476  14.337  71.058  1.00  0.00    -0.432 A  
HETATM   36  C   UNL     1     -13.762  14.262  71.629  1.00  0.00    -0.466 A  
HETATM   37  C   UNL     1     -13.273  16.202  72.962  1.00  0.00    -0.463 A  
HETATM   38  C   UNL     1     -14.159  15.196  72.577  1.00  0.00    -0.535 A  
ENDBRANCH  28  33
BRANCH  31  39
HETATM   39  C   UNL     1      -6.820  17.322  68.224  1.00  0.00    -0.184 C  
HETATM   40  C   UNL     1      -5.143  18.916  69.234  1.00  0.00    -0.185 C  
HETATM   41  C   UNL     1      -5.953  19.564  68.166  1.00  0.00    -0.234 A  
HETATM   42  H   UNL     1      -5.173  17.121  71.144  1.00  0.00     0.000 HD 
HETATM   43  C   UNL     1      -5.610  17.445  69.209  1.00  0.00    -0.193 C  
HETATM   44  O   UNL     1      -5.908  17.047  70.546  1.00  0.00    -0.130 OA 
HETATM   45  C   UNL     1      -5.838  20.884  67.727  1.00  0.00    -0.353 A  
HETATM   46  C   UNL     1      -6.644  21.305  66.670  1.00  0.00    -0.265 A  
HETATM   47  C   UNL     1      -7.532  20.414  66.061  1.00  0.00    -0.175 A  
HETATM   48  C   UNL     1      -7.657  19.099  66.518  1.00  0.00    -0.264 A  
HETATM   49  C   UNL     1      -6.862  18.685  67.591  1.00  0.00    -0.210 A  
ENDBRANCH  31  39
ENDBRANCH  23  26
ENDBRANCH  22  23
ENDBRANCH  12  22
ENDBRANCH   6   9
TORSDOF 8
ENDMDL
MODEL       17
REMARK 921   NORMALIZED FREE ENERGY PREDICTED BY IDOCK:   -6.79 KCAL/MOL
REMARK 922        TOTAL FREE ENERGY PREDICTED BY IDOCK:  -11.94 KCAL/MOL
REMARK 923 INTER-LIGAND FREE ENERGY PREDICTED BY IDOCK:   -9.03 KCAL/MOL
REMARK 924 INTRA-LIGAND FREE ENERGY PREDICTED BY IDOCK:   -2.91 KCAL/MOL
REMARK 927      BINDING AFFINITY PREDICTED BY RF-SCORE:    0.00 PKD
ROOT
HETATM    1  C   UNL     1      -7.130   7.456  70.069  1.00  0.00    -0.065 C  
HETATM    2  C   UNL     1      -6.208   7.734  71.260  1.00  0.00    -0.035 C  
HETATM    3  N   UNL     1      -6.890   8.336  72.450  1.00  0.00    -0.085 N  
HETATM    4  C   UNL     1      -5.159   8.771  70.766  1.00  0.00    -0.021 C  
HETATM    5  C   UNL     1      -5.425   6.462  71.618  1.00  0.00    -0.027 C  
HETATM    6  C   UNL     1      -7.846   8.012  73.376  1.00  0.00    -0.175 C  
HETATM    7  H   UNL     1      -6.533   9.275  72.624  1.00  0.00     0.000 HD 
HETATM    8  O   UNL     1      -7.863   8.742  74.379  1.00  0.00    -0.399 OA 
ENDROOT
BRANCH   6   9
HETATM    9  C   UNL     1      -8.897   6.899  73.225  1.00  0.00    -0.127 C  
HETATM   10  C   UNL     1      -8.469   5.563  72.497  1.00  0.00    -0.118 C  
HETATM   11  N   UNL     1      -9.418   4.448  72.817  1.00  0.00    -0.130 NA 
HETATM   12  N   UNL     1     -10.218   7.388  72.737  1.00  0.00    -0.215 NA 
HETATM   13  C   UNL     1     -10.833   4.899  72.700  1.00  0.00    -0.199 C  
HETATM   14  C   UNL     1     -11.154   6.331  73.216  1.00  0.00    -0.116 C  
BRANCH  11  15
HETATM   15  C   UNL     1      -9.255   3.255  71.952  1.00  0.00    -0.117 C  
BRANCH  15  16
HETATM   16  C   UNL     1      -8.789   3.473  70.534  1.00  0.00    -0.142 A  
HETATM   17  C   UNL     1      -7.431   3.441  70.226  1.00  0.00    -0.041 A  
HETATM   18  N   UNL     1      -6.906   3.769  69.020  1.00  0.00    -0.045 NA 
HETATM   19  C   UNL     1      -9.148   4.220  68.262  1.00  0.00    -0.172 A  
HETATM   20  C   UNL     1      -7.778   4.154  68.067  1.00  0.00    -0.071 A  
HETATM   21  C   UNL     1      -9.657   3.876  69.516  1.00  0.00    -0.248 A  
ENDBRANCH  15  16
ENDBRANCH  11  15
BRANCH  12  22
HETATM   22  C   UNL     1     -10.410   7.582  71.252  1.00  0.00    -0.192 C  
BRANCH  22  23
HETATM   23  C   UNL     1     -10.531   9.016  70.658  1.00  0.00    -0.230 C  
HETATM   24  O   UNL     1      -9.448   9.814  71.167  1.00  0.00    -0.305 OA 
HETATM   25  H   UNL     1      -9.522  10.690  70.805  1.00  0.00     0.000 HD 
BRANCH  23  26
HETATM   26  C   UNL     1     -10.347   9.176  69.121  1.00  0.00    -0.223 C  
HETATM   27  C   UNL     1      -9.981  10.543  68.491  1.00  0.00    -0.181 C  
HETATM   28  C   UNL     1      -9.445  10.317  67.034  1.00  0.00    -0.191 C  
HETATM   29  C   UNL     1     -11.215  11.468  68.444  1.00  0.00    -0.255 C  
HETATM   30  O   UNL     1     -12.364  11.034  68.421  1.00  0.00    -0.528 OA 
HETATM   31  N   UNL     1     -10.961  12.828  68.437  1.00  0.00    -0.242 N  
HETATM   32  H   UNL     1     -10.013  13.158  68.255  1.00  0.00     0.000 HD 
BRANCH  28  33
HETATM   33  C   UNL     1      -8.148   9.522  66.885  1.00  0.00    -0.109 A  
HETATM   34  C   UNL     1      -8.138   8.248  66.303  1.00  0.00    -0.109 A  
HETATM   35  C   UNL     1      -6.933  10.033  67.370  1.00  0.00    -0.083 A  
HETATM   36  C   UNL     1      -5.737   9.298  67.260  1.00  0.00    -0.041 A  
HETATM   37  C   UNL     1      -6.943   7.513  66.192  1.00  0.00    -0.065 A  
HETATM   38  C   UNL     1      -5.743   8.041  66.668  1.00  0.00    -0.043 A  
ENDBRANCH  28  33
BRANCH  31  39
HETATM   39  C   UNL     1     -12.036  13.810  68.687  1.00  0.00    -0.366 C  
HETATM   40  C   UNL     1     -11.603  16.199  69.383  1.00  0.00    -0.261 C  
HETATM   41  C   UNL     1     -11.987  15.342  70.540  1.00  0.00    -0.394 A  
HETATM   42  H   UNL     1     -10.365  16.237  67.074  1.00  0.00     0.000 HD 
HETATM   43  C   UNL     1     -11.737  15.257  68.168  1.00  0.00    -0.279 C  
HETATM   44  O   UNL     1     -10.546  15.360  67.390  1.00  0.00    -0.276 OA 
HETATM   45  C   UNL     1     -12.118  15.755  71.867  1.00  0.00    -0.548 A  
HETATM   46  C   UNL     1     -12.546  14.824  72.813  1.00  0.00    -0.457 A  
HETATM   47  C   UNL     1     -12.849  13.515  72.428  1.00  0.00    -0.292 A  
HETATM   48  C   UNL     1     -12.697  13.102  71.101  1.00  0.00    -0.386 A  
HETATM   49  C   UNL     1     -12.249  14.032  70.159  1.00  0.00    -0.425 A  
ENDBRANCH  31  39
ENDBRANCH  23  26
ENDBRANCH  22  23
ENDBRANCH  12  22
ENDBRANCH   6   9
TORSDOF 8
ENDMDL
MODEL       18
REMARK 921   NORMALIZED FREE ENERGY PREDICTED BY IDOCK:   -6.76 KCAL/MOL
REMARK 922        TOTAL FREE ENERGY PREDICTED BY IDOCK:  -11.88 KCAL/MOL
REMARK 923 INTER-LIGAND FREE ENERGY PREDICTED BY IDOCK:  -10.70 KCAL/MOL
REMARK 924 INTRA-LIGAND FREE ENERGY PREDICTED BY IDOCK:   -1.18 KCAL/MOL
REMARK 927      BINDING AFFINITY PREDICTED BY RF-SCORE:    0.00 PKD
ROOT
HETATM    1  C   UNL     1     -12.401  13.189  69.715  1.00  0.00    -0.164 C  
HETATM    2  C   UNL     1     -12.076  14.390  70.609  1.00  0.00    -0.334 C  
HETATM    3  N   UNL     1     -10.663  14.877  70.511  1.00  0.00    -0.511 N  
HETATM    4  C   UNL     1     -12.292  13.914  72.074  1.00  0.00    -0.102 C  
HETATM    5  C   UNL     1     -13.098  15.510  70.363  1.00  0.00    -0.160 C  
HETATM    6  C   UNL     1      -9.817  15.441  69.593  1.00  0.00    -0.258 C  
HETATM    7  H   UNL     1     -10.183  14.749  71.401  1.00  0.00     0.000 HD 
HETATM    8  O   UNL     1      -8.798  15.957  70.076  1.00  0.00     0.186 OA 
ENDROOT
BRANCH   6   9
HETATM    9  C   UNL     1     -10.008  15.413  68.067  1.00  0.00    -0.221 C  
HETATM   10  C   UNL     1     -11.118  14.459  67.471  1.00  0.00    -0.302 C  
HETATM   11  N   UNL     1     -11.481  14.862  66.074  1.00  0.00    -0.318 NA 
HETATM   12  N   UNL     1      -8.729  15.306  67.307  1.00  0.00    -0.185 NA 
HETATM   13  C   UNL     1     -10.262  15.131  65.260  1.00  0.00    -0.368 C  
HETATM   14  C   UNL     1      -9.093  15.866  65.974  1.00  0.00    -0.328 C  
BRANCH  11  15
HETATM   15  C   UNL     1     -12.290  13.854  65.349  1.00  0.00    -0.470 C  
BRANCH  15  16
HETATM   16  C   UNL     1     -11.588  12.615  64.851  1.00  0.00    -0.376 A  
HETATM   17  C   UNL     1     -11.044  11.703  65.752  1.00  0.00    -0.256 A  
HETATM   18  N   UNL     1     -10.271  10.644  65.406  1.00  0.00    -0.281 NA 
HETATM   19  C   UNL     1     -10.513  11.328  63.108  1.00  0.00    -0.293 A  
HETATM   20  C   UNL     1     -10.021  10.485  64.090  1.00  0.00    -0.318 A  
HETATM   21  C   UNL     1     -11.306  12.410  63.498  1.00  0.00    -0.553 A  
ENDBRANCH  15  16
ENDBRANCH  11  15
BRANCH  12  22
HETATM   22  C   UNL     1      -8.118  13.938  67.118  1.00  0.00    -0.083 C  
BRANCH  22  23
HETATM   23  C   UNL     1      -7.726  13.077  68.355  1.00  0.00    -0.137 C  
HETATM   24  O   UNL     1      -8.925  12.527  68.928  1.00  0.00    -0.376 OA 
HETATM   25  H   UNL     1      -8.685  12.002  69.683  1.00  0.00     0.000 HD 
BRANCH  23  26
HETATM   26  C   UNL     1      -6.880  11.796  68.100  1.00  0.00    -0.066 C  
HETATM   27  C   UNL     1      -7.510  10.383  68.191  1.00  0.00    -0.090 C  
HETATM   28  C   UNL     1      -6.570   9.349  67.479  1.00  0.00    -0.064 C  
HETATM   29  C   UNL     1      -7.702   9.969  69.665  1.00  0.00    -0.156 C  
HETATM   30  O   UNL     1      -7.019  10.430  70.575  1.00  0.00    -0.305 OA 
HETATM   31  N   UNL     1      -8.701   9.044  69.915  1.00  0.00    -0.145 N  
HETATM   32  H   UNL     1      -9.114   8.532  69.135  1.00  0.00     0.000 HD 
BRANCH  28  33
HETATM   33  C   UNL     1      -6.357   9.523  65.975  1.00  0.00    -0.069 A  
HETATM   34  C   UNL     1      -7.095   8.781  65.044  1.00  0.00    -0.080 A  
HETATM   35  C   UNL     1      -5.380  10.405  65.486  1.00  0.00    -0.095 A  
HETATM   36  C   UNL     1      -5.159  10.554  64.103  1.00  0.00    -0.157 A  
HETATM   37  C   UNL     1      -6.875   8.930  63.663  1.00  0.00    -0.088 A  
HETATM   38  C   UNL     1      -5.909   9.819  63.194  1.00  0.00    -0.107 A  
ENDBRANCH  28  33
BRANCH  31  39
HETATM   39  C   UNL     1      -9.181   8.786  71.289  1.00  0.00    -0.241 C  
HETATM   40  C   UNL     1     -10.303   6.636  71.990  1.00  0.00    -0.218 C  
HETATM   41  C   UNL     1     -11.289   7.726  71.749  1.00  0.00    -0.302 A  
HETATM   42  H   UNL     1      -7.994   5.644  71.248  1.00  0.00     0.000 HD 
HETATM   43  C   UNL     1      -8.936   7.329  71.807  1.00  0.00    -0.127 C  
HETATM   44  O   UNL     1      -8.143   6.528  70.933  1.00  0.00    -0.119 OA 
HETATM   45  C   UNL     1     -12.675   7.633  71.887  1.00  0.00    -0.320 A  
HETATM   46  C   UNL     1     -13.442   8.777  71.675  1.00  0.00    -0.411 A  
HETATM   47  C   UNL     1     -12.827   9.989  71.348  1.00  0.00    -0.519 A  
HETATM   48  C   UNL     1     -11.440  10.072  71.192  1.00  0.00    -0.432 A  
HETATM   49  C   UNL     1     -10.675   8.918  71.385  1.00  0.00    -0.382 A  
ENDBRANCH  31  39
ENDBRANCH  23  26
ENDBRANCH  22  23
ENDBRANCH  12  22
ENDBRANCH   6   9
TORSDOF 8
ENDMDL
MODEL       19
REMARK 921   NORMALIZED FREE ENERGY PREDICTED BY IDOCK:   -6.68 KCAL/MOL
REMARK 922        TOTAL FREE ENERGY PREDICTED BY IDOCK:  -11.77 KCAL/MOL
REMARK 923 INTER-LIGAND FREE ENERGY PREDICTED BY IDOCK:  -11.56 KCAL/MOL
REMARK 924 INTRA-LIGAND FREE ENERGY PREDICTED BY IDOCK:   -0.21 KCAL/MOL
REMARK 927      BINDING AFFINITY PREDICTED BY RF-SCORE:    0.00 PKD
ROOT
HETATM    1  C   UNL     1      -9.732  18.745  68.917  1.00  0.00    -0.393 C  
HETATM    2  C   UNL     1      -8.305  18.509  68.414  1.00  0.00    -0.332 C  
HETATM    3  N   UNL     1      -7.686  17.224  68.871  1.00  0.00    -0.249 N  
HETATM    4  C   UNL     1      -7.440  19.663  68.997  1.00  0.00    -0.345 C  
HETATM    5  C   UNL     1      -8.261  18.666  66.886  1.00  0.00    -0.268 C  
HETATM    6  C   UNL     1      -7.866  15.874  68.731  1.00  0.00    -0.185 C  
HETATM    7  H   UNL     1      -6.883  17.413  69.471  1.00  0.00     0.000 HD 
HETATM    8  O   UNL     1      -6.893  15.183  69.069  1.00  0.00    -0.107 OA 
ENDROOT
BRANCH   6   9
HETATM    9  C   UNL     1      -9.164  15.188  68.271  1.00  0.00    -0.188 C  
HETATM   10  C   UNL     1     -10.453  15.353  69.170  1.00  0.00    -0.239 C  
HETATM   11  N   UNL     1     -11.695  15.028  68.396  1.00  0.00    -0.330 NA 
HETATM   12  N   UNL     1      -8.973  13.773  67.843  1.00  0.00    -0.183 NA 
HETATM   13  C   UNL     1     -11.527  13.769  67.617  1.00  0.00    -0.323 C  
HETATM   14  C   UNL     1     -10.142  13.542  66.947  1.00  0.00    -0.256 C  
BRANCH  11  15
HETATM   15  C   UNL     1     -12.905  14.876  69.238  1.00  0.00     0.494 C  
BRANCH  15  16
HETATM   16  C   UNL     1     -12.728  14.912  70.736  1.00  0.00    -0.421 A  
HETATM   17  C   UNL     1     -13.395  13.998  71.547  1.00  0.00    -0.350 A  
HETATM   18  N   UNL     1     -13.418  14.042  72.902  1.00  0.00    -0.663 NA 
HETATM   19  C   UNL     1     -12.043  16.016  72.776  1.00  0.00    -0.635 A  
HETATM   20  C   UNL     1     -12.743  15.054  73.484  1.00  0.00    -0.536 A  
HETATM   21  C   UNL     1     -12.039  15.943  71.381  1.00  0.00    -0.508 A  
ENDBRANCH  15  16
ENDBRANCH  11  15
BRANCH  12  22
HETATM   22  C   UNL     1      -8.944  12.699  68.904  1.00  0.00     0.327 C  
BRANCH  22  23
HETATM   23  C   UNL     1      -7.915  11.533  68.810  1.00  0.00    -0.107 C  
HETATM   24  O   UNL     1      -7.962  10.782  70.035  1.00  0.00    -0.333 OA 
HETATM   25  H   UNL     1      -7.334  10.071  69.978  1.00  0.00     0.000 HD 
BRANCH  23  26
HETATM   26  C   UNL     1      -8.179  10.426  67.749  1.00  0.00    -0.110 C  
HETATM   27  C   UNL     1      -9.555   9.721  67.646  1.00  0.00    -0.169 C  
HETATM   28  C   UNL     1      -9.666   8.999  66.258  1.00  0.00    -0.345 C  
HETATM   29  C   UNL     1      -9.720   8.683  68.777  1.00  0.00    -0.166 C  
HETATM   30  O   UNL     1      -8.761   8.149  69.326  1.00  0.00    -0.138 OA 
HETATM   31  N   UNL     1     -11.019   8.387  69.149  1.00  0.00    -0.430 N  
HETATM   32  H   UNL     1     -11.791   8.686  68.553  1.00  0.00     0.000 HD 
BRANCH  28  33
HETATM   33  C   UNL     1      -9.649   9.882  65.010  1.00  0.00    -0.364 A  
HETATM   34  C   UNL     1      -8.626   9.777  64.058  1.00  0.00    -0.208 A  
HETATM   35  C   UNL     1     -10.638  10.857  64.808  1.00  0.00    -0.316 A  
HETATM   36  C   UNL     1     -10.618  11.693  63.674  1.00  0.00    -0.493 A  
HETATM   37  C   UNL     1      -8.605  10.612  62.925  1.00  0.00    -0.208 A  
HETATM   38  C   UNL     1      -9.603  11.567  62.733  1.00  0.00    -0.212 A  
ENDBRANCH  28  33
BRANCH  31  39
HETATM   39  C   UNL     1     -11.309   7.647  70.396  1.00  0.00    -0.219 C  
HETATM   40  C   UNL     1      -9.835   7.741  72.444  1.00  0.00    -0.264 C  
HETATM   41  C   UNL     1      -9.607   6.502  71.649  1.00  0.00    -0.167 A  
HETATM   42  H   UNL     1     -10.466  10.280  72.303  1.00  0.00     0.000 HD 
HETATM   43  C   UNL     1     -11.004   8.436  71.713  1.00  0.00    -0.291 C  
HETATM   44  O   UNL     1     -10.650   9.802  71.504  1.00  0.00    -0.163 OA 
HETATM   45  C   UNL     1      -8.709   5.477  71.955  1.00  0.00    -0.135 A  
HETATM   46  C   UNL     1      -8.671   4.358  71.125  1.00  0.00    -0.136 A  
HETATM   47  C   UNL     1      -9.526   4.267  70.023  1.00  0.00    -0.254 A  
HETATM   48  C   UNL     1     -10.409   5.305  69.711  1.00  0.00    -0.369 A  
HETATM   49  C   UNL     1     -10.431   6.434  70.533  1.00  0.00    -0.270 A  
ENDBRANCH  31  39
ENDBRANCH  23  26
ENDBRANCH  22  23
ENDBRANCH  12  22
ENDBRANCH   6   9
TORSDOF 8
ENDMDL
MODEL       20
REMARK 921   NORMALIZED FREE ENERGY PREDICTED BY IDOCK:   -6.66 KCAL/MOL
REMARK 922        TOTAL FREE ENERGY PREDICTED BY IDOCK:  -11.74 KCAL/MOL
REMARK 923 INTER-LIGAND FREE ENERGY PREDICTED BY IDOCK:   -9.81 KCAL/MOL
REMARK 924 INTRA-LIGAND FREE ENERGY PREDICTED BY IDOCK:   -1.93 KCAL/MOL
REMARK 927      BINDING AFFINITY PREDICTED BY RF-SCORE:    0.00 PKD
ROOT
HETATM    1  C   UNL     1     -10.419  13.502  65.390  1.00  0.00    -0.322 C  
HETATM    2  C   UNL     1     -10.802  12.147  64.787  1.00  0.00    -0.307 C  
HETATM    3  N   UNL     1     -10.435  10.962  65.627  1.00  0.00    -0.235 N  
HETATM    4  C   UNL     1     -10.007  12.022  63.455  1.00  0.00    -0.384 C  
HETATM    5  C   UNL     1     -12.289  12.152  64.403  1.00  0.00    -0.422 C  
HETATM    6  C   UNL     1     -10.746  10.411  66.841  1.00  0.00    -0.207 C  
HETATM    7  H   UNL     1      -9.741  10.390  65.147  1.00  0.00     0.000 HD 
HETATM    8  O   UNL     1     -10.394   9.230  66.979  1.00  0.00    -0.243 OA 
ENDROOT
BRANCH   6   9
HETATM    9  C   UNL     1     -11.408  11.152  68.016  1.00  0.00    -0.312 C  
HETATM   10  C   UNL     1     -10.909  12.614  68.352  1.00  0.00    -0.245 C  
HETATM   11  N   UNL     1     -11.914  13.346  69.188  1.00  0.00    -0.327 NA 
HETATM   12  N   UNL     1     -11.538  10.322  69.248  1.00  0.00    -0.169 NA 
HETATM   13  C   UNL     1     -12.410  12.490  70.302  1.00  0.00    -0.190 C  
HETATM   14  C   UNL     1     -12.656  10.991  69.975  1.00  0.00    -0.175 C  
BRANCH  11  15
HETATM   15  C   UNL     1     -11.398  14.602  69.783  1.00  0.00    -0.275 C  
BRANCH  15  16
HETATM   16  C   UNL     1     -12.126  15.163  70.980  1.00  0.00    -0.389 A  
HETATM   17  C   UNL     1     -11.452  15.370  72.181  1.00  0.00    -0.433 A  
HETATM   18  N   UNL     1     -12.045  15.727  73.347  1.00  0.00    -0.470 NA 
HETATM   19  C   UNL     1     -14.153  15.708  72.181  1.00  0.00    -0.546 A  
HETATM   20  C   UNL     1     -13.384  15.884  73.319  1.00  0.00    -0.564 A  
HETATM   21  C   UNL     1     -13.512  15.339  70.996  1.00  0.00    -0.516 A  
ENDBRANCH  15  16
ENDBRANCH  11  15
BRANCH  12  22
HETATM   22  C   UNL     1     -10.347  10.211  70.169  1.00  0.00    -0.224 C  
BRANCH  22  23
HETATM   23  C   UNL     1      -9.659   8.832  70.395  1.00  0.00    -0.182 C  
HETATM   24  O   UNL     1     -10.485   7.808  69.816  1.00  0.00    -0.223 OA 
HETATM   25  H   UNL     1     -10.065   6.967  69.954  1.00  0.00     0.000 HD 
BRANCH  23  26
HETATM   26  C   UNL     1      -8.298   8.583  69.680  1.00  0.00    -0.121 C  
HETATM   27  C   UNL     1      -7.877   7.163  69.222  1.00  0.00    -0.117 C  
HETATM   28  C   UNL     1      -6.711   7.279  68.179  1.00  0.00    -0.058 C  
HETATM   29  C   UNL     1      -7.404   6.322  70.427  1.00  0.00    -0.089 C  
HETATM   30  O   UNL     1      -6.954   6.831  71.450  1.00  0.00    -0.068 OA 
HETATM   31  N   UNL     1      -7.521   4.950  70.298  1.00  0.00    -0.057 N  
HETATM   32  H   UNL     1      -7.706   4.548  69.379  1.00  0.00     0.000 HD 
BRANCH  28  33
HETATM   33  C   UNL     1      -7.028   7.976  66.856  1.00  0.00    -0.074 A  
HETATM   34  C   UNL     1      -7.623   7.285  65.793  1.00  0.00    -0.091 A  
HETATM   35  C   UNL     1      -6.689   9.324  66.656  1.00  0.00    -0.076 A  
HETATM   36  C   UNL     1      -6.954   9.968  65.432  1.00  0.00    -0.127 A  
HETATM   37  C   UNL     1      -7.889   7.928  64.570  1.00  0.00    -0.134 A  
HETATM   38  C   UNL     1      -7.556   9.271  64.393  1.00  0.00    -0.115 A  
ENDBRANCH  28  33
BRANCH  31  39
HETATM   39  C   UNL     1      -7.384   4.056  71.467  1.00  0.00    -0.054 C  
HETATM   40  C   UNL     1      -8.054   1.621  71.442  1.00  0.00    -0.046 C  
HETATM   41  C   UNL     1      -9.084   2.476  72.096  1.00  0.00    -0.135 A  
HETATM   42  H   UNL     1      -6.228   1.540  69.564  1.00  0.00     0.000 HD 
HETATM   43  C   UNL     1      -6.905   2.604  71.130  1.00  0.00    -0.032 C  
HETATM   44  O   UNL     1      -6.519   2.421  69.769  1.00  0.00    -0.028 OA 
HETATM   45  C   UNL     1     -10.286   2.040  72.656  1.00  0.00    -0.219 A  
HETATM   46  C   UNL     1     -11.105   2.977  73.283  1.00  0.00    -0.232 A  
HETATM   47  C   UNL     1     -10.716   4.318  73.358  1.00  0.00    -0.310 A  
HETATM   48  C   UNL     1      -9.520   4.751  72.779  1.00  0.00    -0.154 A  
HETATM   49  C   UNL     1      -8.710   3.813  72.133  1.00  0.00    -0.115 A  
ENDBRANCH  31  39
ENDBRANCH  23  26
ENDBRANCH  22  23
ENDBRANCH  12  22
ENDBRANCH   6   9
TORSDOF 8
ENDMDL
MODEL       21
REMARK 921   NORMALIZED FREE ENERGY PREDICTED BY IDOCK:   -6.59 KCAL/MOL
REMARK 922        TOTAL FREE ENERGY PREDICTED BY IDOCK:  -11.64 KCAL/MOL
REMARK 923 INTER-LIGAND FREE ENERGY PREDICTED BY IDOCK:   -8.63 KCAL/MOL
REMARK 924 INTRA-LIGAND FREE ENERGY PREDICTED BY IDOCK:   -3.01 KCAL/MOL
REMARK 927      BINDING AFFINITY PREDICTED BY RF-SCORE:    0.00 PKD
ROOT
HETATM    1  C   UNL     1     -11.749  14.821  65.695  1.00  0.00    -0.257 C  
HETATM    2  C   UNL     1     -10.554  15.458  66.411  1.00  0.00    -0.307 C  
HETATM    3  N   UNL     1     -10.755  15.690  67.876  1.00  0.00    -0.286 N  
HETATM    4  C   UNL     1     -10.345  16.852  65.754  1.00  0.00    -0.298 C  
HETATM    5  C   UNL     1      -9.282  14.647  66.118  1.00  0.00    -0.210 C  
HETATM    6  C   UNL     1     -10.951  14.974  69.027  1.00  0.00    -0.249 C  
HETATM    7  H   UNL     1     -10.741  16.689  68.080  1.00  0.00     0.000 HD 
HETATM    8  O   UNL     1     -10.762  15.613  70.073  1.00  0.00    -0.289 OA 
ENDROOT
BRANCH   6   9
HETATM    9  C   UNL     1     -11.440  13.517  69.100  1.00  0.00    -0.295 C  
HETATM   10  C   UNL     1     -11.939  12.968  70.496  1.00  0.00    -0.212 C  
HETATM   11  N   UNL     1     -12.775  11.736  70.321  1.00  0.00    -0.013 NA 
HETATM   12  N   UNL     1     -10.531  12.548  68.424  1.00  0.00    -0.235 NA 
HETATM   13  C   UNL     1     -12.135  10.784  69.369  1.00  0.00    -0.244 C  
HETATM   14  C   UNL     1     -11.440  11.404  68.124  1.00  0.00    -0.305 C  
BRANCH  11  15
HETATM   15  C   UNL     1     -13.033  11.002  71.582  1.00  0.00    -0.456 C  
BRANCH  15  16
HETATM   16  C   UNL     1     -13.008   9.494  71.536  1.00  0.00    -0.471 A  
HETATM   17  C   UNL     1     -14.194   8.772  71.436  1.00  0.00    -0.223 A  
HETATM   18  N   UNL     1     -14.287   7.423  71.536  1.00  0.00    -0.462 NA 
HETATM   19  C   UNL     1     -11.900   7.369  71.861  1.00  0.00    -0.332 A  
HETATM   20  C   UNL     1     -13.136   6.754  71.750  1.00  0.00    -0.183 A  
HETATM   21  C   UNL     1     -11.839   8.760  71.755  1.00  0.00    -0.414 A  
ENDBRANCH  15  16
ENDBRANCH  11  15
BRANCH  12  22
HETATM   22  C   UNL     1      -9.330  12.038  69.184  1.00  0.00     0.494 C  
BRANCH  22  23
HETATM   23  C   UNL     1      -7.894  12.277  68.629  1.00  0.00    -0.063 C  
HETATM   24  O   UNL     1      -6.945  11.824  69.609  1.00  0.00    -0.317 OA 
HETATM   25  H   UNL     1      -6.069  11.970  69.271  1.00  0.00     0.000 HD 
BRANCH  23  26
HETATM   26  C   UNL     1      -7.466  11.463  67.374  1.00  0.00    -0.120 C  
HETATM   27  C   UNL     1      -7.819   9.961  67.227  1.00  0.00    -0.102 C  
HETATM   28  C   UNL     1      -7.656   9.533  65.727  1.00  0.00    -0.100 C  
HETATM   29  C   UNL     1      -6.893   9.097  68.109  1.00  0.00    -0.068 C  
HETATM   30  O   UNL     1      -5.772   9.466  68.448  1.00  0.00    -0.041 OA 
HETATM   31  N   UNL     1      -7.399   7.873  68.510  1.00  0.00    -0.095 N  
HETATM   32  H   UNL     1      -8.237   7.506  68.058  1.00  0.00     0.000 HD 
BRANCH  28  33
HETATM   33  C   UNL     1      -8.585  10.196  64.709  1.00  0.00    -0.191 A  
HETATM   34  C   UNL     1      -9.811  10.753  65.097  1.00  0.00    -0.333 A  
HETATM   35  C   UNL     1      -8.252  10.225  63.346  1.00  0.00    -0.164 A  
HETATM   36  C   UNL     1      -9.113  10.811  62.397  1.00  0.00    -0.332 A  
HETATM   37  C   UNL     1     -10.671  11.339  64.150  1.00  0.00    -0.436 A  
HETATM   38  C   UNL     1     -10.319  11.370  62.801  1.00  0.00    -0.000 A  
ENDBRANCH  28  33
BRANCH  31  39
HETATM   39  C   UNL     1      -6.748   7.088  69.580  1.00  0.00    -0.049 C  
HETATM   40  C   UNL     1      -7.684   4.925  70.484  1.00  0.00    -0.063 C  
HETATM   41  C   UNL     1      -7.980   6.077  71.379  1.00  0.00    -0.113 A  
HETATM   42  H   UNL     1      -7.348   4.190  67.991  1.00  0.00     0.000 HD 
HETATM   43  C   UNL     1      -6.797   5.537  69.378  1.00  0.00    -0.061 C  
HETATM   44  O   UNL     1      -7.318   5.132  68.113  1.00  0.00    -0.072 OA 
HETATM   45  C   UNL     1      -8.677   6.028  72.588  1.00  0.00    -0.121 A  
HETATM   46  C   UNL     1      -8.810   7.202  73.327  1.00  0.00    -0.168 A  
HETATM   47  C   UNL     1      -8.241   8.394  72.867  1.00  0.00    -0.181 A  
HETATM   48  C   UNL     1      -7.562   8.441  71.647  1.00  0.00    -0.126 A  
HETATM   49  C   UNL     1      -7.448   7.267  70.898  1.00  0.00    -0.075 A  
ENDBRANCH  31  39
ENDBRANCH  23  26
ENDBRANCH  22  23
ENDBRANCH  12  22
ENDBRANCH   6   9
TORSDOF 8
ENDMDL
MODEL       22
REMARK 921   NORMALIZED FREE ENERGY PREDICTED BY IDOCK:   -6.59 KCAL/MOL
REMARK 922        TOTAL FREE ENERGY PREDICTED BY IDOCK:  -11.64 KCAL/MOL
REMARK 923 INTER-LIGAND FREE ENERGY PREDICTED BY IDOCK:  -11.00 KCAL/MOL
REMARK 924 INTRA-LIGAND FREE ENERGY PREDICTED BY IDOCK:   -0.64 KCAL/MOL
REMARK 927      BINDING AFFINITY PREDICTED BY RF-SCORE:    0.00 PKD
ROOT
HETATM    1  C   UNL     1      -8.661  16.358  68.666  1.00  0.00    -0.234 C  
HETATM    2  C   UNL     1      -7.659  15.986  67.568  1.00  0.00    -0.155 C  
HETATM    3  N   UNL     1      -7.224  14.553  67.578  1.00  0.00    -0.187 N  
HETATM    4  C   UNL     1      -6.390  16.848  67.827  1.00  0.00    -0.160 C  
HETATM    5  C   UNL     1      -8.205  16.421  66.200  1.00  0.00    -0.250 C  
HETATM    6  C   UNL     1      -7.753  13.303  67.397  1.00  0.00    -0.140 C  
HETATM    7  H   UNL     1      -6.227  14.489  67.783  1.00  0.00     0.000 HD 
HETATM    8  O   UNL     1      -6.915  12.409  67.205  1.00  0.00    -0.143 OA 
ENDROOT
BRANCH   6   9
HETATM    9  C   UNL     1      -9.246  12.943  67.486  1.00  0.00    -0.192 C  
HETATM   10  C   UNL     1      -9.900  12.822  68.920  1.00  0.00     0.156 C  
HETATM   11  N   UNL     1     -11.394  12.914  68.839  1.00  0.00    -0.271 NA 
HETATM   12  N   UNL     1      -9.639  11.804  66.608  1.00  0.00    -0.200 NA 
HETATM   13  C   UNL     1     -11.925  12.058  67.740  1.00  0.00    -0.106 C  
HETATM   14  C   UNL     1     -11.102  12.025  66.422  1.00  0.00    -0.318 C  
BRANCH  11  15
HETATM   15  C   UNL     1     -12.088  12.520  70.088  1.00  0.00    -0.292 C  
BRANCH  15  16
HETATM   16  C   UNL     1     -12.464  13.613  71.058  1.00  0.00    -0.456 A  
HETATM   17  C   UNL     1     -13.373  13.364  72.082  1.00  0.00    -0.520 A  
HETATM   18  N   UNL     1     -13.884  14.311  72.907  1.00  0.00    -0.573 NA 
HETATM   19  C   UNL     1     -12.566  15.938  71.715  1.00  0.00    -0.489 A  
HETATM   20  C   UNL     1     -13.470  15.578  72.701  1.00  0.00    -0.547 A  
HETATM   21  C   UNL     1     -12.060  14.939  70.881  1.00  0.00    -0.377 A  
ENDBRANCH  15  16
ENDBRANCH  11  15
BRANCH  12  22
HETATM   22  C   UNL     1      -9.411  10.398  67.109  1.00  0.00    -0.159 C  
BRANCH  22  23
HETATM   23  C   UNL     1      -9.984   9.183  66.321  1.00  0.00    -0.282 C  
HETATM   24  O   UNL     1      -9.579   9.299  64.946  1.00  0.00    -0.447 OA 
HETATM   25  H   UNL     1      -9.929   8.558  64.465  1.00  0.00     0.000 HD 
BRANCH  23  26
HETATM   26  C   UNL     1      -9.449   7.770  66.691  1.00  0.00    -0.263 C  
HETATM   27  C   UNL     1     -10.341   6.737  67.427  1.00  0.00    -0.286 C  
HETATM   28  C   UNL     1      -9.712   5.308  67.278  1.00  0.00    -0.163 C  
HETATM   29  C   UNL     1     -10.458   7.091  68.925  1.00  0.00    -0.203 C  
HETATM   30  O   UNL     1      -9.603   7.743  69.517  1.00  0.00    -0.160 OA 
HETATM   31  N   UNL     1     -11.592   6.637  69.573  1.00  0.00    -0.640 N  
HETATM   32  H   UNL     1     -12.181   5.937  69.120  1.00  0.00     0.000 HD 
BRANCH  28  33
HETATM   33  C   UNL     1      -9.627   4.729  65.865  1.00  0.00    -0.188 A  
HETATM   34  C   UNL     1     -10.781   4.381  65.151  1.00  0.00    -0.144 A  
HETATM   35  C   UNL     1      -8.383   4.490  65.261  1.00  0.00    -0.121 A  
HETATM   36  C   UNL     1      -8.293   3.934  63.970  1.00  0.00    -0.092 A  
HETATM   37  C   UNL     1     -10.693   3.826  63.861  1.00  0.00    -0.257 A  
HETATM   38  C   UNL     1      -9.448   3.606  63.271  1.00  0.00    -0.118 A  
ENDBRANCH  28  33
BRANCH  31  39
HETATM   39  C   UNL     1     -11.967   7.146  70.909  1.00  0.00    -0.334 C  
HETATM   40  C   UNL     1     -11.058   9.289  71.886  1.00  0.00    -0.308 C  
HETATM   41  C   UNL     1     -10.366   8.089  72.434  1.00  0.00    -0.355 A  
HETATM   42  H   UNL     1     -12.232  10.295  69.771  1.00  0.00     0.000 HD 
HETATM   43  C   UNL     1     -12.165   8.697  70.988  1.00  0.00    -0.179 C  
HETATM   44  O   UNL     1     -12.112   9.354  69.723  1.00  0.00     0.296 OA 
HETATM   45  C   UNL     1      -9.341   8.086  73.381  1.00  0.00    -0.323 A  
HETATM   46  C   UNL     1      -8.849   6.859  73.824  1.00  0.00    -0.179 A  
HETATM   47  C   UNL     1      -9.388   5.665  73.337  1.00  0.00    -0.134 A  
HETATM   48  C   UNL     1     -10.401   5.674  72.374  1.00  0.00    -0.245 A  
HETATM   49  C   UNL     1     -10.878   6.906  71.916  1.00  0.00    -0.258 A  
ENDBRANCH  31  39
ENDBRANCH  23  26
ENDBRANCH  22  23
ENDBRANCH  12  22
ENDBRANCH   6   9
TORSDOF 8
ENDMDL
MODEL       23
REMARK 921   NORMALIZED FREE ENERGY PREDICTED BY IDOCK:   -6.58 KCAL/MOL
REMARK 922        TOTAL FREE ENERGY PREDICTED BY IDOCK:  -11.62 KCAL/MOL
REMARK 923 INTER-LIGAND FREE ENERGY PREDICTED BY IDOCK:   -9.31 KCAL/MOL
REMARK 924 INTRA-LIGAND FREE ENERGY PREDICTED BY IDOCK:   -2.32 KCAL/MOL
REMARK 927      BINDING AFFINITY PREDICTED BY RF-SCORE:    0.00 PKD
ROOT
HETATM    1  C   UNL     1      -8.332  11.319  62.408  1.00  0.00    -0.165 C  
HETATM    2  C   UNL     1      -7.807  10.131  63.221  1.00  0.00    -0.155 C  
HETATM    3  N   UNL     1      -7.360  10.472  64.609  1.00  0.00    -0.344 N  
HETATM    4  C   UNL     1      -6.558   9.599  62.459  1.00  0.00    -0.098 C  
HETATM    5  C   UNL     1      -8.840   8.994  63.203  1.00  0.00    -0.034 C  
HETATM    6  C   UNL     1      -7.883  10.934  65.787  1.00  0.00    -0.057 C  
HETATM    7  H   UNL     1      -6.358  10.309  64.707  1.00  0.00     0.000 HD 
HETATM    8  O   UNL     1      -7.155  10.770  66.777  1.00  0.00    -0.111 OA 
ENDROOT
BRANCH   6   9
HETATM    9  C   UNL     1      -9.223  11.676  65.940  1.00  0.00    -0.196 C  
HETATM   10  C   UNL     1      -9.297  12.879  66.961  1.00  0.00    -0.235 C  
HETATM   11  N   UNL     1     -10.480  13.754  66.678  1.00  0.00    -0.270 NA 
HETATM   12  N   UNL     1     -10.396  10.767  66.080  1.00  0.00    -0.251 NA 
HETATM   13  C   UNL     1     -11.706  12.940  66.449  1.00  0.00    -0.395 C  
HETATM   14  C   UNL     1     -11.530  11.627  65.635  1.00  0.00    -0.105 C  
BRANCH  11  15
HETATM   15  C   UNL     1     -10.782  14.724  67.757  1.00  0.00    -0.268 C  
BRANCH  15  16
HETATM   16  C   UNL     1     -10.648  16.193  67.440  1.00  0.00    -0.311 A  
HETATM   17  C   UNL     1     -10.422  16.614  66.132  1.00  0.00    -0.285 A  
HETATM   18  N   UNL     1     -10.141  17.890  65.770  1.00  0.00    -0.582 NA 
HETATM   19  C   UNL     1     -10.291  18.493  68.098  1.00  0.00    -0.391 A  
HETATM   20  C   UNL     1     -10.079  18.799  66.764  1.00  0.00    -0.369 A  
HETATM   21  C   UNL     1     -10.577  17.169  68.438  1.00  0.00    -0.371 A  
ENDBRANCH  15  16
ENDBRANCH  11  15
BRANCH  12  22
HETATM   22  C   UNL     1     -10.710  10.203  67.445  1.00  0.00    -0.277 C  
BRANCH  22  23
HETATM   23  C   UNL     1      -9.846   9.048  68.033  1.00  0.00    -0.166 C  
HETATM   24  O   UNL     1      -9.055   9.572  69.112  1.00  0.00    -0.140 OA 
HETATM   25  H   UNL     1      -8.527   8.867  69.470  1.00  0.00     0.000 HD 
BRANCH  23  26
HETATM   26  C   UNL     1     -10.595   7.875  68.729  1.00  0.00    -0.154 C  
HETATM   27  C   UNL     1     -10.005   6.441  68.749  1.00  0.00    -0.165 C  
HETATM   28  C   UNL     1     -10.727   5.598  69.857  1.00  0.00    -0.399 C  
HETATM   29  C   UNL     1     -10.196   5.757  67.379  1.00  0.00    -0.200 C  
HETATM   30  O   UNL     1     -11.092   6.076  66.602  1.00  0.00    -0.263 OA 
HETATM   31  N   UNL     1      -9.292   4.758  67.063  1.00  0.00    -0.127 N  
HETATM   32  H   UNL     1      -8.692   4.378  67.794  1.00  0.00     0.000 HD 
BRANCH  28  33
HETATM   33  C   UNL     1     -10.548   6.053  71.305  1.00  0.00    -0.302 A  
HETATM   34  C   UNL     1      -9.686   5.376  72.179  1.00  0.00    -0.196 A  
HETATM   35  C   UNL     1     -11.278   7.139  71.812  1.00  0.00    -0.278 A  
HETATM   36  C   UNL     1     -11.139   7.550  73.152  1.00  0.00    -0.378 A  
HETATM   37  C   UNL     1      -9.546   5.787  73.517  1.00  0.00    -0.140 A  
HETATM   38  C   UNL     1     -10.270   6.876  74.001  1.00  0.00    -0.384 A  
ENDBRANCH  28  33
BRANCH  31  39
HETATM   39  C   UNL     1      -9.181   4.233  65.686  1.00  0.00    -0.148 C  
HETATM   40  C   UNL     1      -7.665   2.318  65.046  1.00  0.00    -0.076 C  
HETATM   41  C   UNL     1      -7.074   3.638  64.692  1.00  0.00    -0.061 A  
HETATM   42  H   UNL     1      -9.185   1.052  66.765  1.00  0.00     0.000 HD 
HETATM   43  C   UNL     1      -9.067   2.675  65.585  1.00  0.00    -0.121 C  
HETATM   44  O   UNL     1      -9.254   1.998  66.827  1.00  0.00    -0.097 OA 
HETATM   45  C   UNL     1      -5.842   3.852  64.072  1.00  0.00    -0.014 A  
HETATM   46  C   UNL     1      -5.474   5.161  63.760  1.00  0.00    -0.013 A  
HETATM   47  C   UNL     1      -6.332   6.224  64.053  1.00  0.00    -0.030 A  
HETATM   48  C   UNL     1      -7.556   6.005  64.692  1.00  0.00    -0.091 A  
HETATM   49  C   UNL     1      -7.914   4.694  65.021  1.00  0.00    -0.096 A  
ENDBRANCH  31  39
ENDBRANCH  23  26
ENDBRANCH  22  23
ENDBRANCH  12  22
ENDBRANCH   6   9
TORSDOF 8
ENDMDL
MODEL       24
REMARK 921   NORMALIZED FREE ENERGY PREDICTED BY IDOCK:   -6.56 KCAL/MOL
REMARK 922        TOTAL FREE ENERGY PREDICTED BY IDOCK:  -11.59 KCAL/MOL
REMARK 923 INTER-LIGAND FREE ENERGY PREDICTED BY IDOCK:   -9.00 KCAL/MOL
REMARK 924 INTRA-LIGAND FREE ENERGY PREDICTED BY IDOCK:   -2.60 KCAL/MOL
REMARK 927      BINDING AFFINITY PREDICTED BY RF-SCORE:    0.00 PKD
ROOT
HETATM    1  C   UNL     1     -10.540  13.762  65.599  1.00  0.00    -0.302 C  
HETATM    2  C   UNL     1     -11.055  12.444  65.012  1.00  0.00    -0.304 C  
HETATM    3  N   UNL     1     -10.751  11.231  65.836  1.00  0.00    -0.256 N  
HETATM    4  C   UNL     1     -10.329  12.261  63.648  1.00  0.00    -0.463 C  
HETATM    5  C   UNL     1     -12.552  12.570  64.691  1.00  0.00    -0.507 C  
HETATM    6  C   UNL     1     -11.054  10.703  67.062  1.00  0.00    -0.145 C  
HETATM    7  H   UNL     1     -10.125  10.607  65.327  1.00  0.00     0.000 HD 
HETATM    8  O   UNL     1     -10.793   9.497  67.186  1.00  0.00    -0.224 OA 
ENDROOT
BRANCH   6   9
HETATM    9  C   UNL     1     -11.604  11.491  68.264  1.00  0.00    -0.308 C  
HETATM   10  C   UNL     1     -10.905  12.857  68.643  1.00  0.00    -0.258 C  
HETATM   11  N   UNL     1     -11.797  13.695  69.508  1.00  0.00    -0.318 NA 
HETATM   12  N   UNL     1     -11.848  10.648  69.469  1.00  0.00    -0.287 NA 
HETATM   13  C   UNL     1     -12.407  12.882  70.597  1.00  0.00    -0.302 C  
HETATM   14  C   UNL     1     -12.861  11.443  70.223  1.00  0.00     0.066 C  
BRANCH  11  15
HETATM   15  C   UNL     1     -11.110  14.847  70.140  1.00  0.00    -0.213 C  
BRANCH  15  16
HETATM   16  C   UNL     1     -10.412  15.832  69.235  1.00  0.00    -0.247 A  
HETATM   17  C   UNL     1      -9.034  16.012  69.320  1.00  0.00    -0.228 A  
HETATM   18  N   UNL     1      -8.339  16.972  68.660  1.00  0.00    -0.259 NA 
HETATM   19  C   UNL     1     -10.427  17.710  67.711  1.00  0.00    -0.379 A  
HETATM   20  C   UNL     1      -9.055  17.801  67.873  1.00  0.00    -0.259 A  
HETATM   21  C   UNL     1     -11.113  16.711  68.406  1.00  0.00    -0.305 A  
ENDBRANCH  15  16
ENDBRANCH  11  15
BRANCH  12  22
HETATM   22  C   UNL     1     -10.684  10.341  70.380  1.00  0.00    -0.205 C  
BRANCH  22  23
HETATM   23  C   UNL     1     -10.076   8.908  70.417  1.00  0.00    -0.196 C  
HETATM   24  O   UNL     1     -10.911   8.037  69.637  1.00  0.00    -0.381 OA 
HETATM   25  H   UNL     1     -10.540   7.162  69.660  1.00  0.00     0.000 HD 
BRANCH  23  26
HETATM   26  C   UNL     1      -8.687   8.699  69.747  1.00  0.00    -0.132 C  
HETATM   27  C   UNL     1      -8.212   7.294  69.296  1.00  0.00    -0.131 C  
HETATM   28  C   UNL     1      -7.016   7.447  68.293  1.00  0.00    -0.079 C  
HETATM   29  C   UNL     1      -7.757   6.459  70.512  1.00  0.00    -0.105 C  
HETATM   30  O   UNL     1      -7.355   6.973  71.552  1.00  0.00    -0.078 OA 
HETATM   31  N   UNL     1      -7.833   5.085  70.372  1.00  0.00    -0.072 N  
HETATM   32  H   UNL     1      -7.976   4.684  69.445  1.00  0.00     0.000 HD 
BRANCH  28  33
HETATM   33  C   UNL     1      -7.308   8.144  66.964  1.00  0.00    -0.088 A  
HETATM   34  C   UNL     1      -7.065   9.513  66.791  1.00  0.00    -0.086 A  
HETATM   35  C   UNL     1      -7.870   7.435  65.890  1.00  0.00    -0.104 A  
HETATM   36  C   UNL     1      -8.165   8.073  64.670  1.00  0.00    -0.109 A  
HETATM   37  C   UNL     1      -7.359  10.151  65.572  1.00  0.00    -0.143 A  
HETATM   38  C   UNL     1      -7.906   9.429  64.512  1.00  0.00    -0.121 A  
ENDBRANCH  28  33
BRANCH  31  39
HETATM   39  C   UNL     1      -7.711   4.188  71.540  1.00  0.00    -0.065 C  
HETATM   40  C   UNL     1      -8.422   1.765  71.513  1.00  0.00    -0.070 C  
HETATM   41  C   UNL     1      -9.436   2.636  72.169  1.00  0.00    -0.178 A  
HETATM   42  H   UNL     1      -6.597   1.655  69.636  1.00  0.00     0.000 HD 
HETATM   43  C   UNL     1      -7.256   2.728  71.202  1.00  0.00    -0.033 C  
HETATM   44  O   UNL     1      -6.873   2.540  69.841  1.00  0.00    -0.033 OA 
HETATM   45  C   UNL     1     -10.646   2.220  72.728  1.00  0.00    -0.213 A  
HETATM   46  C   UNL     1     -11.450   3.170  73.356  1.00  0.00    -0.135 A  
HETATM   47  C   UNL     1     -11.037   4.504  73.432  1.00  0.00    -0.408 A  
HETATM   48  C   UNL     1      -9.834   4.918  72.853  1.00  0.00    -0.181 A  
HETATM   49  C   UNL     1      -9.040   3.967  72.207  1.00  0.00    -0.154 A  
ENDBRANCH  31  39
ENDBRANCH  23  26
ENDBRANCH  22  23
ENDBRANCH  12  22
ENDBRANCH   6   9
TORSDOF 8
ENDMDL
MODEL       25
REMARK 921   NORMALIZED FREE ENERGY PREDICTED BY IDOCK:   -6.54 KCAL/MOL
REMARK 922        TOTAL FREE ENERGY PREDICTED BY IDOCK:  -11.56 KCAL/MOL
REMARK 923 INTER-LIGAND FREE ENERGY PREDICTED BY IDOCK:   -9.06 KCAL/MOL
REMARK 924 INTRA-LIGAND FREE ENERGY PREDICTED BY IDOCK:   -2.50 KCAL/MOL
REMARK 927      BINDING AFFINITY PREDICTED BY RF-SCORE:    0.00 PKD
ROOT
HETATM    1  C   UNL     1      -8.852   2.392  64.618  1.00  0.00    -0.114 C  
HETATM    2  C   UNL     1      -7.713   2.555  63.607  1.00  0.00    -0.068 C  
HETATM    3  N   UNL     1      -7.597   3.925  63.012  1.00  0.00    -0.057 N  
HETATM    4  C   UNL     1      -8.023   1.577  62.438  1.00  0.00    -0.051 C  
HETATM    5  C   UNL     1      -6.393   2.077  64.231  1.00  0.00    -0.018 C  
HETATM    6  C   UNL     1      -7.321   5.209  63.400  1.00  0.00    -0.050 C  
HETATM    7  H   UNL     1      -7.781   3.891  62.010  1.00  0.00     0.000 HD 
HETATM    8  O   UNL     1      -7.043   5.982  62.472  1.00  0.00    -0.039 OA 
ENDROOT
BRANCH   6   9
HETATM    9  C   UNL     1      -7.400   5.744  64.841  1.00  0.00    -0.068 C  
HETATM   10  C   UNL     1      -8.599   5.261  65.751  1.00  0.00    -0.139 C  
HETATM   11  N   UNL     1      -8.302   5.495  67.201  1.00  0.00    -0.105 NA 
HETATM   12  N   UNL     1      -7.196   7.217  64.943  1.00  0.00    -0.067 NA 
HETATM   13  C   UNL     1      -7.748   6.860  67.421  1.00  0.00    -0.110 C  
HETATM   14  C   UNL     1      -6.747   7.387  66.354  1.00  0.00    -0.060 C  
BRANCH  11  15
HETATM   15  C   UNL     1      -9.481   5.342  68.087  1.00  0.00    -0.123 C  
BRANCH  15  16
HETATM   16  C   UNL     1      -9.406   4.309  69.184  1.00  0.00    -0.229 A  
HETATM   17  C   UNL     1      -9.236   2.962  68.873  1.00  0.00    -0.164 A  
HETATM   18  N   UNL     1      -9.306   1.948  69.771  1.00  0.00    -0.105 NA 
HETATM   19  C   UNL     1      -9.741   3.599  71.471  1.00  0.00    -0.238 A  
HETATM   20  C   UNL     1      -9.560   2.292  71.050  1.00  0.00    -0.131 A  
HETATM   21  C   UNL     1      -9.664   4.619  70.521  1.00  0.00    -0.284 A  
ENDBRANCH  15  16
ENDBRANCH  11  15
BRANCH  12  22
HETATM   22  C   UNL     1      -8.374   8.126  64.686  1.00  0.00    -0.079 C  
BRANCH  22  23
HETATM   23  C   UNL     1      -8.434   9.535  65.347  1.00  0.00    -0.148 C  
HETATM   24  O   UNL     1      -7.878  10.493  64.431  1.00  0.00    -0.307 OA 
HETATM   25  H   UNL     1      -7.914  11.353  64.834  1.00  0.00     0.000 HD 
BRANCH  23  26
HETATM   26  C   UNL     1      -9.841  10.140  65.623  1.00  0.00    -0.347 C  
HETATM   27  C   UNL     1     -10.279  10.543  67.054  1.00  0.00    -0.275 C  
HETATM   28  C   UNL     1     -11.522  11.496  66.968  1.00  0.00    -0.290 C  
HETATM   29  C   UNL     1     -10.648   9.293  67.880  1.00  0.00    -0.231 C  
HETATM   30  O   UNL     1     -11.026   8.247  67.361  1.00  0.00    -0.127 OA 
HETATM   31  N   UNL     1     -10.525   9.410  69.253  1.00  0.00    -0.213 N  
HETATM   32  H   UNL     1     -10.406  10.334  69.668  1.00  0.00     0.000 HD 
BRANCH  28  33
HETATM   33  C   UNL     1     -11.315  12.850  66.289  1.00  0.00    -0.364 A  
HETATM   34  C   UNL     1     -12.233  13.341  65.351  1.00  0.00    -0.501 A  
HETATM   35  C   UNL     1     -10.172  13.620  66.555  1.00  0.00    -0.284 A  
HETATM   36  C   UNL     1      -9.960  14.856  65.916  1.00  0.00    -0.357 A  
HETATM   37  C   UNL     1     -12.022  14.577  64.712  1.00  0.00    -0.449 A  
HETATM   38  C   UNL     1     -10.887  15.335  64.998  1.00  0.00    -0.457 A  
ENDBRANCH  28  33
BRANCH  31  39
HETATM   39  C   UNL     1     -10.561   8.220  70.130  1.00  0.00    -0.233 C  
HETATM   40  C   UNL     1     -11.176   8.314  72.577  1.00  0.00    -0.446 C  
HETATM   41  C   UNL     1      -9.703   8.238  72.376  1.00  0.00    -0.373 A  
HETATM   42  H   UNL     1     -13.423   9.220  71.577  1.00  0.00     0.000 HD 
HETATM   43  C   UNL     1     -11.749   8.192  71.149  1.00  0.00    -0.283 C  
HETATM   44  O   UNL     1     -12.701   9.238  70.959  1.00  0.00    -0.270 OA 
HETATM   45  C   UNL     1      -8.732   8.208  73.378  1.00  0.00    -0.318 A  
HETATM   46  C   UNL     1      -7.395   8.074  73.005  1.00  0.00    -0.141 A  
HETATM   47  C   UNL     1      -7.047   7.958  71.656  1.00  0.00    -0.067 A  
HETATM   48  C   UNL     1      -8.022   8.008  70.655  1.00  0.00    -0.096 A  
HETATM   49  C   UNL     1      -9.360   8.163  71.032  1.00  0.00    -0.180 A  
ENDBRANCH  31  39
ENDBRANCH  23  26
ENDBRANCH  22  23
ENDBRANCH  12  22
ENDBRANCH   6   9
TORSDOF 8
ENDMDL
MODEL       26
REMARK 921   NORMALIZED FREE ENERGY PREDICTED BY IDOCK:   -6.53 KCAL/MOL
REMARK 922        TOTAL FREE ENERGY PREDICTED BY IDOCK:  -11.55 KCAL/MOL
REMARK 923 INTER-LIGAND FREE ENERGY PREDICTED BY IDOCK:   -8.98 KCAL/MOL
REMARK 924 INTRA-LIGAND FREE ENERGY PREDICTED BY IDOCK:   -2.57 KCAL/MOL
REMARK 927      BINDING AFFINITY PREDICTED BY RF-SCORE:    0.00 PKD
ROOT
HETATM    1  C   UNL     1      -7.814   5.480  64.723  1.00  0.00    -0.106 C  
HETATM    2  C   UNL     1      -7.834   6.194  63.368  1.00  0.00    -0.107 C  
HETATM    3  N   UNL     1      -8.491   7.540  63.381  1.00  0.00    -0.365 N  
HETATM    4  C   UNL     1      -8.666   5.292  62.412  1.00  0.00    -0.087 C  
HETATM    5  C   UNL     1      -6.413   6.244  62.788  1.00  0.00    -0.033 C  
HETATM    6  C   UNL     1      -8.314   8.780  63.934  1.00  0.00    -0.141 C  
HETATM    7  H   UNL     1      -9.328   7.530  62.798  1.00  0.00     0.000 HD 
HETATM    8  O   UNL     1      -8.973   9.685  63.400  1.00  0.00    -0.235 OA 
ENDROOT
BRANCH   6   9
HETATM    9  C   UNL     1      -7.444   9.094  65.163  1.00  0.00    -0.097 C  
HETATM   10  C   UNL     1      -7.572   8.154  66.427  1.00  0.00    -0.091 C  
HETATM   11  N   UNL     1      -6.387   8.304  67.332  1.00  0.00    -0.056 NA 
HETATM   12  N   UNL     1      -7.454  10.535  65.550  1.00  0.00    -0.139 NA 
HETATM   13  C   UNL     1      -6.053   9.741  67.545  1.00  0.00    -0.058 C  
HETATM   14  C   UNL     1      -6.180  10.677  66.310  1.00  0.00    -0.119 C  
BRANCH  11  15
HETATM   15  C   UNL     1      -6.567   7.684  68.666  1.00  0.00    -0.053 C  
BRANCH  15  16
HETATM   16  C   UNL     1      -6.597   6.177  68.742  1.00  0.00    -0.055 A  
HETATM   17  C   UNL     1      -5.466   5.432  68.418  1.00  0.00    -0.008 A  
HETATM   18  N   UNL     1      -5.436   4.081  68.312  1.00  0.00    -0.012 NA 
HETATM   19  C   UNL     1      -7.779   4.071  68.872  1.00  0.00    -0.054 A  
HETATM   20  C   UNL     1      -6.596   3.433  68.539  1.00  0.00    -0.041 A  
HETATM   21  C   UNL     1      -7.776   5.464  68.972  1.00  0.00    -0.089 A  
ENDBRANCH  15  16
ENDBRANCH  11  15
BRANCH  12  22
HETATM   22  C   UNL     1      -8.595  11.043  66.398  1.00  0.00    -0.165 C  
BRANCH  22  23
HETATM   23  C   UNL     1      -9.658  12.004  65.787  1.00  0.00    -0.213 C  
HETATM   24  O   UNL     1     -10.673  11.214  65.146  1.00  0.00    -0.273 OA 
HETATM   25  H   UNL     1     -11.321  11.800  64.772  1.00  0.00     0.000 HD 
BRANCH  23  26
HETATM   26  C   UNL     1     -10.501  12.863  66.773  1.00  0.00    -0.262 C  
HETATM   27  C   UNL     1     -10.421  12.643  68.305  1.00  0.00    -0.249 C  
HETATM   28  C   UNL     1     -11.013  13.895  69.042  1.00  0.00    -0.281 C  
HETATM   29  C   UNL     1     -11.215  11.385  68.715  1.00  0.00    -0.247 C  
HETATM   30  O   UNL     1     -12.150  10.949  68.048  1.00  0.00    -0.563 OA 
HETATM   31  N   UNL     1     -10.812  10.761  69.882  1.00  0.00    -0.424 N  
HETATM   32  H   UNL     1     -10.177  11.246  70.515  1.00  0.00     0.000 HD 
BRANCH  28  33
HETATM   33  C   UNL     1     -10.279  15.223  68.857  1.00  0.00    -0.232 A  
HETATM   34  C   UNL     1     -10.961  16.445  68.913  1.00  0.00    -0.332 A  
HETATM   35  C   UNL     1      -8.903  15.250  68.581  1.00  0.00    -0.188 A  
HETATM   36  C   UNL     1      -8.222  16.467  68.385  1.00  0.00    -0.194 A  
HETATM   37  C   UNL     1     -10.282  17.662  68.717  1.00  0.00    -0.373 A  
HETATM   38  C   UNL     1      -8.912  17.671  68.456  1.00  0.00    -0.289 A  
ENDBRANCH  28  33
BRANCH  31  39
HETATM   39  C   UNL     1     -11.286   9.404  70.228  1.00  0.00    -0.246 C  
HETATM   40  C   UNL     1     -12.357   8.826  72.440  1.00  0.00    -0.414 C  
HETATM   41  C   UNL     1     -10.926   8.418  72.391  1.00  0.00    -0.425 A  
HETATM   42  H   UNL     1     -14.098  10.603  71.618  1.00  0.00     0.000 HD 
HETATM   43  C   UNL     1     -12.636   9.362  71.019  1.00  0.00    -0.220 C  
HETATM   44  O   UNL     1     -13.279  10.629  71.138  1.00  0.00    -0.345 OA 
HETATM   45  C   UNL     1     -10.213   7.781  73.408  1.00  0.00    -0.315 A  
HETATM   46  C   UNL     1      -8.889   7.417  73.163  1.00  0.00    -0.192 A  
HETATM   47  C   UNL     1      -8.304   7.675  71.920  1.00  0.00    -0.125 A  
HETATM   48  C   UNL     1      -9.017   8.331  70.913  1.00  0.00    -0.174 A  
HETATM   49  C   UNL     1     -10.338   8.712  71.167  1.00  0.00    -0.294 A  
ENDBRANCH  31  39
ENDBRANCH  23  26
ENDBRANCH  22  23
ENDBRANCH  12  22
ENDBRANCH   6   9
TORSDOF 8
ENDMDL
MODEL       27
REMARK 921   NORMALIZED FREE ENERGY PREDICTED BY IDOCK:   -6.52 KCAL/MOL
REMARK 922        TOTAL FREE ENERGY PREDICTED BY IDOCK:  -11.54 KCAL/MOL
REMARK 923 INTER-LIGAND FREE ENERGY PREDICTED BY IDOCK:  -10.00 KCAL/MOL
REMARK 924 INTRA-LIGAND FREE ENERGY PREDICTED BY IDOCK:   -1.54 KCAL/MOL
REMARK 927      BINDING AFFINITY PREDICTED BY RF-SCORE:    0.00 PKD
ROOT
HETATM    1  C   UNL     1     -14.367   7.783  71.135  1.00  0.00    -0.308 C  
HETATM    2  C   UNL     1     -13.458   8.730  71.925  1.00  0.00    -0.404 C  
HETATM    3  N   UNL     1     -12.405   8.048  72.744  1.00  0.00    -0.610 N  
HETATM    4  C   UNL     1     -14.381   9.494  72.918  1.00  0.00     0.552 C  
HETATM    5  C   UNL     1     -12.867   9.789  70.982  1.00  0.00    -0.374 C  
HETATM    6  C   UNL     1     -11.294   7.267  72.570  1.00  0.00    -0.296 C  
HETATM    7  H   UNL     1     -12.566   8.218  73.737  1.00  0.00     0.000 HD 
HETATM    8  O   UNL     1     -10.555   7.189  73.562  1.00  0.00    -0.353 OA 
ENDROOT
BRANCH   6   9
HETATM    9  C   UNL     1     -10.959   6.460  71.304  1.00  0.00    -0.271 C  
HETATM   10  C   UNL     1      -9.678   5.535  71.326  1.00  0.00    -0.166 C  
HETATM   11  N   UNL     1      -9.735   4.509  70.236  1.00  0.00    -0.200 NA 
HETATM   12  N   UNL     1     -11.033   7.260  70.048  1.00  0.00    -0.257 NA 
HETATM   13  C   UNL     1     -10.145   5.125  68.942  1.00  0.00    -0.167 C  
HETATM   14  C   UNL     1     -11.251   6.215  69.007  1.00  0.00    -0.304 C  
BRANCH  11  15
HETATM   15  C   UNL     1      -8.452   3.802  70.008  1.00  0.00    -0.059 C  
BRANCH  15  16
HETATM   16  C   UNL     1      -7.728   3.256  71.214  1.00  0.00    -0.048 A  
HETATM   17  C   UNL     1      -8.183   2.103  71.848  1.00  0.00    -0.052 A  
HETATM   18  N   UNL     1      -7.693   1.620  73.016  1.00  0.00    -0.033 NA 
HETATM   19  C   UNL     1      -6.164   3.482  73.046  1.00  0.00    -0.012 A  
HETATM   20  C   UNL     1      -6.697   2.324  73.589  1.00  0.00    -0.022 A  
HETATM   21  C   UNL     1      -6.692   3.953  71.841  1.00  0.00    -0.019 A  
ENDBRANCH  15  16
ENDBRANCH  11  15
BRANCH  12  22
HETATM   22  C   UNL     1      -9.841   8.102  69.660  1.00  0.00    -0.184 C  
BRANCH  22  23
HETATM   23  C   UNL     1     -10.047   9.541  69.101  1.00  0.00    -0.195 C  
HETATM   24  O   UNL     1      -8.919  10.346  69.483  1.00  0.00    -0.310 OA 
HETATM   25  H   UNL     1      -9.045  11.224  69.142  1.00  0.00     0.000 HD 
BRANCH  23  26
HETATM   26  C   UNL     1     -10.052   9.716  67.555  1.00  0.00    -0.247 C  
HETATM   27  C   UNL     1      -9.677  11.068  66.896  1.00  0.00    -0.215 C  
HETATM   28  C   UNL     1      -9.351  10.834  65.380  1.00  0.00    -0.243 C  
HETATM   29  C   UNL     1     -10.841  12.074  67.020  1.00  0.00    -0.253 C  
HETATM   30  O   UNL     1     -12.010  11.718  67.142  1.00  0.00    -0.617 OA 
HETATM   31  N   UNL     1     -10.497  13.413  66.992  1.00  0.00    -0.256 N  
HETATM   32  H   UNL     1      -9.560  13.683  66.693  1.00  0.00     0.000 HD 
BRANCH  28  33
HETATM   33  C   UNL     1      -8.141   9.957  65.056  1.00  0.00    -0.140 A  
HETATM   34  C   UNL     1      -8.240   8.880  64.165  1.00  0.00    -0.167 A  
HETATM   35  C   UNL     1      -6.903  10.183  65.679  1.00  0.00    -0.124 A  
HETATM   36  C   UNL     1      -5.789   9.366  65.406  1.00  0.00    -0.058 A  
HETATM   37  C   UNL     1      -7.128   8.064  63.892  1.00  0.00    -0.083 A  
HETATM   38  C   UNL     1      -5.902   8.310  64.510  1.00  0.00    -0.056 A  
ENDBRANCH  28  33
BRANCH  31  39
HETATM   39  C   UNL     1     -11.461  14.461  67.390  1.00  0.00    -0.358 C  
HETATM   40  C   UNL     1     -10.774  16.688  68.361  1.00  0.00    -0.353 C  
HETATM   41  C   UNL     1     -11.227  15.738  69.414  1.00  0.00    -0.324 A  
HETATM   42  H   UNL     1      -9.572  16.888  66.041  1.00  0.00     0.000 HD 
HETATM   43  C   UNL     1     -11.022  15.923  67.043  1.00  0.00    -0.189 C  
HETATM   44  O   UNL     1      -9.838  16.001  66.252  1.00  0.00    -0.268 OA 
HETATM   45  C   UNL     1     -11.295  15.993  70.784  1.00  0.00    -0.427 A  
HETATM   46  C   UNL     1     -11.803  15.001  71.621  1.00  0.00    -0.441 A  
HETATM   47  C   UNL     1     -12.245  13.786  71.088  1.00  0.00    -0.362 A  
HETATM   48  C   UNL     1     -12.156  13.529  69.717  1.00  0.00    -0.381 A  
HETATM   49  C   UNL     1     -11.628  14.518  68.883  1.00  0.00    -0.341 A  
ENDBRANCH  31  39
ENDBRANCH  23  26
ENDBRANCH  22  23
ENDBRANCH  12  22
ENDBRANCH   6   9
TORSDOF 8
ENDMDL
MODEL       28
REMARK 921   NORMALIZED FREE ENERGY PREDICTED BY IDOCK:   -6.50 KCAL/MOL
REMARK 922        TOTAL FREE ENERGY PREDICTED BY IDOCK:  -11.51 KCAL/MOL
REMARK 923 INTER-LIGAND FREE ENERGY PREDICTED BY IDOCK:  -10.75 KCAL/MOL
REMARK 924 INTRA-LIGAND FREE ENERGY PREDICTED BY IDOCK:   -0.76 KCAL/MOL
REMARK 927      BINDING AFFINITY PREDICTED BY RF-SCORE:    0.00 PKD
ROOT
HETATM    1  C   UNL     1      -6.356   4.948  64.974  1.00  0.00    -0.035 C  
HETATM    2  C   UNL     1      -7.517   5.383  64.074  1.00  0.00    -0.061 C  
HETATM    3  N   UNL     1      -8.865   4.905  64.518  1.00  0.00    -0.200 N  
HETATM    4  C   UNL     1      -7.248   4.751  62.678  1.00  0.00    -0.039 C  
HETATM    5  C   UNL     1      -7.475   6.906  63.874  1.00  0.00    -0.095 C  
HETATM    6  C   UNL     1      -9.732   5.063  65.566  1.00  0.00    -0.063 C  
HETATM    7  H   UNL     1      -9.257   4.266  63.828  1.00  0.00     0.000 HD 
HETATM    8  O   UNL     1     -10.891   4.683  65.341  1.00  0.00    -0.252 OA 
ENDROOT
BRANCH   6   9
HETATM    9  C   UNL     1      -9.360   5.589  66.963  1.00  0.00    -0.118 C  
HETATM   10  C   UNL     1     -10.322   5.247  68.169  1.00  0.00    -0.114 C  
HETATM   11  N   UNL     1      -9.623   5.429  69.483  1.00  0.00    -0.139 NA 
HETATM   12  N   UNL     1      -8.961   7.026  66.972  1.00  0.00    -0.121 NA 
HETATM   13  C   UNL     1      -8.871   6.714  69.516  1.00  0.00    -0.139 C  
HETATM   14  C   UNL     1      -8.134   7.126  68.210  1.00  0.00    -0.124 C  
BRANCH  11  15
HETATM   15  C   UNL     1     -10.532   5.412  70.653  1.00  0.00    -0.259 C  
BRANCH  15  16
HETATM   16  C   UNL     1     -10.066   4.691  71.894  1.00  0.00    -0.266 A  
HETATM   17  C   UNL     1      -8.944   3.866  71.852  1.00  0.00    -0.114 A  
HETATM   18  N   UNL     1      -8.536   3.066  72.867  1.00  0.00    -0.079 NA 
HETATM   19  C   UNL     1     -10.417   3.868  74.141  1.00  0.00    -0.272 A  
HETATM   20  C   UNL     1      -9.286   3.084  73.987  1.00  0.00    -0.081 A  
HETATM   21  C   UNL     1     -10.811   4.680  73.076  1.00  0.00    -0.321 A  
ENDBRANCH  15  16
ENDBRANCH  11  15
BRANCH  12  22
HETATM   22  C   UNL     1     -10.047   8.074  67.018  1.00  0.00    -0.279 C  
BRANCH  22  23
HETATM   23  C   UNL     1      -9.675   9.584  67.100  1.00  0.00    -0.171 C  
HETATM   24  O   UNL     1     -10.476  10.304  66.147  1.00  0.00    -0.210 OA 
HETATM   25  H   UNL     1     -10.248  11.226  66.197  1.00  0.00     0.000 HD 
BRANCH  23  26
HETATM   26  C   UNL     1     -10.005  10.334  68.423  1.00  0.00    -0.173 C  
HETATM   27  C   UNL     1     -11.274  11.213  68.556  1.00  0.00    -0.318 C  
HETATM   28  C   UNL     1     -11.569  11.474  70.074  1.00  0.00    -0.364 C  
HETATM   29  C   UNL     1     -11.078  12.563  67.834  1.00  0.00    -0.245 C  
HETATM   30  O   UNL     1      -9.969  13.055  67.646  1.00  0.00    -0.208 OA 
HETATM   31  N   UNL     1     -12.228  13.195  67.397  1.00  0.00    -0.236 N  
HETATM   32  H   UNL     1     -13.135  12.874  67.735  1.00  0.00     0.000 HD 
BRANCH  28  33
HETATM   33  C   UNL     1     -11.913  10.258  70.935  1.00  0.00    -0.473 A  
HETATM   34  C   UNL     1     -10.914   9.408  71.427  1.00  0.00    -0.443 A  
HETATM   35  C   UNL     1     -13.249   9.936  71.220  1.00  0.00    -0.465 A  
HETATM   36  C   UNL     1     -13.578   8.804  71.991  1.00  0.00    -0.469 A  
HETATM   37  C   UNL     1     -11.241   8.278  72.198  1.00  0.00    -0.413 A  
HETATM   38  C   UNL     1     -12.573   7.979  72.482  1.00  0.00    -0.143 A  
ENDBRANCH  28  33
BRANCH  31  39
HETATM   39  C   UNL     1     -12.167  14.327  66.448  1.00  0.00    -0.401 C  
HETATM   40  C   UNL     1     -10.349  14.595  64.717  1.00  0.00    -0.286 C  
HETATM   41  C   UNL     1     -10.116  15.458  65.909  1.00  0.00    -0.370 A  
HETATM   42  H   UNL     1     -11.329  12.308  63.898  1.00  0.00     0.000 HD 
HETATM   43  C   UNL     1     -11.720  13.944  64.997  1.00  0.00    -0.359 C  
HETATM   44  O   UNL     1     -11.600  12.540  64.779  1.00  0.00    -0.314 OA 
HETATM   45  C   UNL     1      -9.047  16.336  66.098  1.00  0.00    -0.377 A  
HETATM   46  C   UNL     1      -9.021  17.112  67.255  1.00  0.00    -0.228 A  
HETATM   47  C   UNL     1     -10.055  17.018  68.191  1.00  0.00    -0.308 A  
HETATM   48  C   UNL     1     -11.113  16.124  68.006  1.00  0.00    -0.317 A  
HETATM   49  C   UNL     1     -11.125  15.332  66.854  1.00  0.00    -0.288 A  
ENDBRANCH  31  39
ENDBRANCH  23  26
ENDBRANCH  22  23
ENDBRANCH  12  22
ENDBRANCH   6   9
TORSDOF 8
ENDMDL
MODEL       29
REMARK 921   NORMALIZED FREE ENERGY PREDICTED BY IDOCK:   -6.49 KCAL/MOL
REMARK 922        TOTAL FREE ENERGY PREDICTED BY IDOCK:  -11.49 KCAL/MOL
REMARK 923 INTER-LIGAND FREE ENERGY PREDICTED BY IDOCK:   -8.94 KCAL/MOL
REMARK 924 INTRA-LIGAND FREE ENERGY PREDICTED BY IDOCK:   -2.55 KCAL/MOL
REMARK 927      BINDING AFFINITY PREDICTED BY RF-SCORE:    0.00 PKD
ROOT
HETATM    1  C   UNL     1     -13.474   9.349  70.985  1.00  0.00    -0.159 C  
HETATM    2  C   UNL     1     -12.354  10.386  70.851  1.00  0.00    -0.381 C  
HETATM    3  N   UNL     1     -11.023   9.940  71.372  1.00  0.00    -0.197 N  
HETATM    4  C   UNL     1     -12.790  11.612  71.705  1.00  0.00    -0.454 C  
HETATM    5  C   UNL     1     -12.276  10.879  69.397  1.00  0.00    -0.293 C  
HETATM    6  C   UNL     1     -10.064   8.999  71.110  1.00  0.00    -0.295 C  
HETATM    7  H   UNL     1     -10.746  10.515  72.168  1.00  0.00     0.000 HD 
HETATM    8  O   UNL     1      -8.965   9.216  71.643  1.00  0.00    -0.336 OA 
ENDROOT
BRANCH   6   9
HETATM    9  C   UNL     1     -10.274   7.713  70.293  1.00  0.00    -0.205 C  
HETATM   10  C   UNL     1      -9.734   6.353  70.890  1.00  0.00    -0.176 C  
HETATM   11  N   UNL     1     -10.387   5.178  70.228  1.00  0.00    -0.275 NA 
HETATM   12  N   UNL     1      -9.919   7.856  68.852  1.00  0.00    -0.185 NA 
HETATM   13  C   UNL     1     -10.414   5.343  68.748  1.00  0.00    -0.149 C  
HETATM   14  C   UNL     1     -10.715   6.770  68.210  1.00  0.00    -0.235 C  
BRANCH  11  15
HETATM   15  C   UNL     1      -9.731   3.882  70.522  1.00  0.00    -0.177 C  
BRANCH  15  16
HETATM   16  C   UNL     1      -9.334   3.603  71.951  1.00  0.00    -0.189 A  
HETATM   17  C   UNL     1      -8.004   3.350  72.277  1.00  0.00    -0.063 A  
HETATM   18  N   UNL     1      -7.572   2.945  73.497  1.00  0.00    -0.050 NA 
HETATM   19  C   UNL     1      -9.865   3.007  74.234  1.00  0.00    -0.152 A  
HETATM   20  C   UNL     1      -8.515   2.780  74.446  1.00  0.00    -0.068 A  
HETATM   21  C   UNL     1     -10.277   3.422  72.966  1.00  0.00    -0.236 A  
ENDBRANCH  15  16
ENDBRANCH  11  15
BRANCH  12  22
HETATM   22  C   UNL     1      -8.471   7.710  68.450  1.00  0.00    -0.125 C  
BRANCH  22  23
HETATM   23  C   UNL     1      -7.660   8.954  67.981  1.00  0.00    -0.093 C  
HETATM   24  O   UNL     1      -6.260   8.629  68.021  1.00  0.00    -0.050 OA 
HETATM   25  H   UNL     1      -5.765   9.388  67.734  1.00  0.00     0.000 HD 
BRANCH  23  26
HETATM   26  C   UNL     1      -7.837   9.411  66.503  1.00  0.00    -0.097 C  
HETATM   27  C   UNL     1      -8.651   8.566  65.491  1.00  0.00    -0.204 C  
HETATM   28  C   UNL     1      -9.020   9.454  64.251  1.00  0.00    -0.204 C  
HETATM   29  C   UNL     1      -7.833   7.345  65.020  1.00  0.00    -0.124 C  
HETATM   30  O   UNL     1      -6.605   7.329  65.034  1.00  0.00    -0.043 OA 
HETATM   31  N   UNL     1      -8.561   6.253  64.584  1.00  0.00    -0.347 N  
HETATM   32  H   UNL     1      -9.558   6.360  64.394  1.00  0.00     0.000 HD 
BRANCH  28  33
HETATM   33  C   UNL     1      -9.937  10.652  64.501  1.00  0.00    -0.410 A  
HETATM   34  C   UNL     1     -10.534  10.863  65.751  1.00  0.00    -0.275 A  
HETATM   35  C   UNL     1     -10.240  11.551  63.467  1.00  0.00    -0.462 A  
HETATM   36  C   UNL     1     -11.103  12.643  63.680  1.00  0.00    -0.496 A  
HETATM   37  C   UNL     1     -11.396  11.954  65.965  1.00  0.00    -0.375 A  
HETATM   38  C   UNL     1     -11.677  12.845  64.930  1.00  0.00    -0.388 A  
ENDBRANCH  28  33
BRANCH  31  39
HETATM   39  C   UNL     1      -7.922   4.935  64.388  1.00  0.00    -0.104 C  
HETATM   40  C   UNL     1      -9.221   2.797  64.042  1.00  0.00    -0.111 C  
HETATM   41  C   UNL     1      -8.733   2.932  65.442  1.00  0.00    -0.124 A  
HETATM   42  H   UNL     1     -10.076   4.115  61.944  1.00  0.00     0.000 HD 
HETATM   43  C   UNL     1      -8.616   4.021  63.322  1.00  0.00    -0.099 C  
HETATM   44  O   UNL     1      -9.656   4.669  62.591  1.00  0.00    -0.099 OA 
HETATM   45  C   UNL     1      -8.928   2.016  66.477  1.00  0.00    -0.107 A  
HETATM   46  C   UNL     1      -8.345   2.279  67.716  1.00  0.00    -0.081 A  
HETATM   47  C   UNL     1      -7.572   3.429  67.902  1.00  0.00    -0.064 A  
HETATM   48  C   UNL     1      -7.395   4.352  66.867  1.00  0.00    -0.080 A  
HETATM   49  C   UNL     1      -7.998   4.095  65.632  1.00  0.00    -0.097 A  
ENDBRANCH  31  39
ENDBRANCH  23  26
ENDBRANCH  22  23
ENDBRANCH  12  22
ENDBRANCH   6   9
TORSDOF 8
ENDMDL
MODEL       30
REMARK 921   NORMALIZED FREE ENERGY PREDICTED BY IDOCK:   -6.48 KCAL/MOL
REMARK 922        TOTAL FREE ENERGY PREDICTED BY IDOCK:  -11.48 KCAL/MOL
REMARK 923 INTER-LIGAND FREE ENERGY PREDICTED BY IDOCK:   -9.83 KCAL/MOL
REMARK 924 INTRA-LIGAND FREE ENERGY PREDICTED BY IDOCK:   -1.65 KCAL/MOL
REMARK 927      BINDING AFFINITY PREDICTED BY RF-SCORE:    0.00 PKD
ROOT
HETATM    1  C   UNL     1      -7.868   8.316  72.184  1.00  0.00    -0.170 C  
HETATM    2  C   UNL     1      -7.848   7.200  73.234  1.00  0.00    -0.096 C  
HETATM    3  N   UNL     1      -9.185   6.589  73.522  1.00  0.00    -0.131 N  
HETATM    4  C   UNL     1      -7.353   7.853  74.556  1.00  0.00    -0.205 C  
HETATM    5  C   UNL     1      -6.796   6.147  72.852  1.00  0.00    -0.075 C  
HETATM    6  C   UNL     1     -10.154   5.857  72.888  1.00  0.00    -0.181 C  
HETATM    7  H   UNL     1      -9.458   6.776  74.486  1.00  0.00     0.000 HD 
HETATM    8  O   UNL     1     -10.973   5.317  73.646  1.00  0.00    -0.291 OA 
ENDROOT
BRANCH   6   9
HETATM    9  C   UNL     1     -10.324   5.729  71.364  1.00  0.00    -0.224 C  
HETATM   10  C   UNL     1      -9.069   5.295  70.508  1.00  0.00    -0.141 C  
HETATM   11  N   UNL     1      -9.486   4.791  69.159  1.00  0.00    -0.136 NA 
HETATM   12  N   UNL     1     -11.036   6.883  70.744  1.00  0.00    -0.261 NA 
HETATM   13  C   UNL     1     -10.493   5.697  68.537  1.00  0.00    -0.203 C  
HETATM   14  C   UNL     1     -11.572   6.295  69.483  1.00  0.00    -0.168 C  
BRANCH  11  15
HETATM   15  C   UNL     1      -8.365   4.643  68.201  1.00  0.00    -0.094 C  
BRANCH  15  16
HETATM   16  C   UNL     1      -8.700   4.578  66.732  1.00  0.00    -0.111 A  
HETATM   17  C   UNL     1      -9.350   3.465  66.205  1.00  0.00    -0.143 A  
HETATM   18  N   UNL     1      -9.561   3.248  64.883  1.00  0.00    -0.158 NA 
HETATM   19  C   UNL     1      -8.442   5.338  64.450  1.00  0.00    -0.126 A  
HETATM   20  C   UNL     1      -9.098   4.190  64.036  1.00  0.00    -0.144 A  
HETATM   21  C   UNL     1      -8.240   5.530  65.818  1.00  0.00    -0.124 A  
ENDBRANCH  15  16
ENDBRANCH  11  15
BRANCH  12  22
HETATM   22  C   UNL     1     -10.243   8.124  70.413  1.00  0.00    -0.201 C  
BRANCH  22  23
HETATM   23  C   UNL     1     -10.940   9.343  69.739  1.00  0.00    -0.215 C  
HETATM   24  O   UNL     1     -10.589  10.531  70.468  1.00  0.00    -0.420 OA 
HETATM   25  H   UNL     1     -11.015  11.275  70.057  1.00  0.00     0.000 HD 
BRANCH  23  26
HETATM   26  C   UNL     1     -10.499   9.715  68.294  1.00  0.00    -0.259 C  
HETATM   27  C   UNL     1      -9.867  11.093  67.974  1.00  0.00    -0.185 C  
HETATM   28  C   UNL     1      -9.142  11.023  66.585  1.00  0.00    -0.177 C  
HETATM   29  C   UNL     1     -10.951  12.190  67.930  1.00  0.00    -0.229 C  
HETATM   30  O   UNL     1     -12.127  11.945  67.677  1.00  0.00    -0.568 OA 
HETATM   31  N   UNL     1     -10.528  13.479  68.201  1.00  0.00    -0.238 N  
HETATM   32  H   UNL     1      -9.529  13.686  68.209  1.00  0.00     0.000 HD 
BRANCH  28  33
HETATM   33  C   UNL     1      -7.949  10.074  66.470  1.00  0.00    -0.115 A  
HETATM   34  C   UNL     1      -7.058   9.892  67.536  1.00  0.00    -0.088 A  
HETATM   35  C   UNL     1      -7.689   9.390  65.271  1.00  0.00    -0.108 A  
HETATM   36  C   UNL     1      -6.579   8.532  65.147  1.00  0.00    -0.064 A  
HETATM   37  C   UNL     1      -5.949   9.035  67.412  1.00  0.00    -0.050 A  
HETATM   38  C   UNL     1      -5.712   8.354  66.219  1.00  0.00    -0.043 A  
ENDBRANCH  28  33
BRANCH  31  39
HETATM   39  C   UNL     1     -11.496  14.561  68.478  1.00  0.00    -0.301 C  
HETATM   40  C   UNL     1     -10.852  16.770  69.519  1.00  0.00    -0.225 C  
HETATM   41  C   UNL     1     -11.461  15.843  70.513  1.00  0.00    -0.412 A  
HETATM   42  H   UNL     1      -9.376  16.914  67.359  1.00  0.00     0.000 HD 
HETATM   43  C   UNL     1     -10.968  16.006  68.183  1.00  0.00    -0.339 C  
HETATM   44  O   UNL     1      -9.696  16.038  67.538  1.00  0.00    -0.225 OA 
HETATM   45  C   UNL     1     -11.683  16.109  71.864  1.00  0.00    -0.575 A  
HETATM   46  C   UNL     1     -12.321  15.140  72.637  1.00  0.00    -0.473 A  
HETATM   47  C   UNL     1     -12.739  13.938  72.057  1.00  0.00    -0.338 A  
HETATM   48  C   UNL     1     -12.496  13.669  70.707  1.00  0.00    -0.432 A  
HETATM   49  C   UNL     1     -11.838  14.634  69.940  1.00  0.00    -0.372 A  
ENDBRANCH  31  39
ENDBRANCH  23  26
ENDBRANCH  22  23
ENDBRANCH  12  22
ENDBRANCH   6   9
TORSDOF 8
ENDMDL
MODEL       31
REMARK 921   NORMALIZED FREE ENERGY PREDICTED BY IDOCK:   -6.44 KCAL/MOL
REMARK 922        TOTAL FREE ENERGY PREDICTED BY IDOCK:  -11.41 KCAL/MOL
REMARK 923 INTER-LIGAND FREE ENERGY PREDICTED BY IDOCK:   -9.14 KCAL/MOL
REMARK 924 INTRA-LIGAND FREE ENERGY PREDICTED BY IDOCK:   -2.28 KCAL/MOL
REMARK 927      BINDING AFFINITY PREDICTED BY RF-SCORE:    0.00 PKD
ROOT
HETATM    1  C   UNL     1     -10.078   4.332  64.984  1.00  0.00    -0.207 C  
HETATM    2  C   UNL     1      -8.555   4.266  64.835  1.00  0.00    -0.126 C  
HETATM    3  N   UNL     1      -7.966   5.328  63.959  1.00  0.00    -0.105 N  
HETATM    4  C   UNL     1      -8.242   2.898  64.163  1.00  0.00    -0.083 C  
HETATM    5  C   UNL     1      -7.900   4.225  66.224  1.00  0.00    -0.095 C  
HETATM    6  C   UNL     1      -7.822   6.690  63.927  1.00  0.00    -0.109 C  
HETATM    7  H   UNL     1      -7.540   4.908  63.133  1.00  0.00     0.000 HD 
HETATM    8  O   UNL     1      -6.975   7.102  63.120  1.00  0.00    -0.054 OA 
ENDROOT
BRANCH   6   9
HETATM    9  C   UNL     1      -8.657   7.696  64.738  1.00  0.00     0.158 C  
HETATM   10  C   UNL     1      -8.563   9.226  64.352  1.00  0.00    -0.195 C  
HETATM   11  N   UNL     1      -9.726   9.992  64.903  1.00  0.00    -0.313 NA 
HETATM   12  N   UNL     1      -8.564   7.497  66.212  1.00  0.00    -0.138 NA 
HETATM   13  C   UNL     1      -9.979   9.632  66.327  1.00  0.00    -0.264 C  
HETATM   14  C   UNL     1      -9.819   8.133  66.707  1.00  0.00    -0.259 C  
BRANCH  11  15
HETATM   15  C   UNL     1      -9.561  11.464  64.836  1.00  0.00    -0.215 C  
BRANCH  15  16
HETATM   16  C   UNL     1     -10.797  12.317  64.981  1.00  0.00    -0.337 A  
HETATM   17  C   UNL     1     -11.369  12.924  63.866  1.00  0.00    -0.436 A  
HETATM   18  N   UNL     1     -12.384  13.822  63.912  1.00  0.00    -0.692 NA 
HETATM   19  C   UNL     1     -12.366  13.591  66.310  1.00  0.00    -0.440 A  
HETATM   20  C   UNL     1     -12.856  14.136  65.135  1.00  0.00    -0.294 A  
HETATM   21  C   UNL     1     -11.319  12.670  66.228  1.00  0.00    -0.376 A  
ENDBRANCH  15  16
ENDBRANCH  11  15
BRANCH  12  22
HETATM   22  C   UNL     1      -7.386   8.094  66.946  1.00  0.00    -0.087 C  
BRANCH  22  23
HETATM   23  C   UNL     1      -6.722   7.318  68.121  1.00  0.00    -0.058 C  
HETATM   24  O   UNL     1      -5.313   7.602  68.119  1.00  0.00    -0.025 OA 
HETATM   25  H   UNL     1      -4.908   7.129  68.836  1.00  0.00     0.000 HD 
BRANCH  23  26
HETATM   26  C   UNL     1      -7.125   7.725  69.569  1.00  0.00    -0.063 C  
HETATM   27  C   UNL     1      -7.814   9.083  69.862  1.00  0.00    -0.090 C  
HETATM   28  C   UNL     1      -8.478   9.032  71.282  1.00  0.00    -0.196 C  
HETATM   29  C   UNL     1      -6.786  10.233  69.818  1.00  0.00    -0.103 C  
HETATM   30  O   UNL     1      -5.590  10.057  70.031  1.00  0.00    -0.040 OA 
HETATM   31  N   UNL     1      -7.285  11.487  69.516  1.00  0.00    -0.341 N  
HETATM   32  H   UNL     1      -8.293  11.644  69.542  1.00  0.00     0.000 HD 
BRANCH  28  33
HETATM   33  C   UNL     1      -9.615   8.030  71.482  1.00  0.00    -0.209 A  
HETATM   34  C   UNL     1     -10.554   7.783  70.472  1.00  0.00    -0.226 A  
HETATM   35  C   UNL     1      -9.775   7.362  72.707  1.00  0.00    -0.220 A  
HETATM   36  C   UNL     1     -10.834   6.456  72.910  1.00  0.00    -0.286 A  
HETATM   37  C   UNL     1     -11.612   6.877  70.675  1.00  0.00    -0.402 A  
HETATM   38  C   UNL     1     -11.749   6.213  71.893  1.00  0.00    -0.337 A  
ENDBRANCH  28  33
BRANCH  31  39
HETATM   39  C   UNL     1      -6.386  12.604  69.158  1.00  0.00    -0.099 C  
HETATM   40  C   UNL     1      -6.105  14.675  70.575  1.00  0.00    -0.169 C  
HETATM   41  C   UNL     1      -7.014  14.910  69.420  1.00  0.00    -0.170 A  
HETATM   42  H   UNL     1      -5.284  12.897  72.317  1.00  0.00     0.000 HD 
HETATM   43  C   UNL     1      -5.604  13.230  70.361  1.00  0.00    -0.158 C  
HETATM   44  O   UNL     1      -5.759  12.517  71.587  1.00  0.00    -0.359 OA 
HETATM   45  C   UNL     1      -7.653  16.110  69.102  1.00  0.00    -0.230 A  
HETATM   46  C   UNL     1      -8.425  16.164  67.942  1.00  0.00    -0.166 A  
HETATM   47  C   UNL     1      -8.538  15.042  67.116  1.00  0.00    -0.246 A  
HETATM   48  C   UNL     1      -7.911  13.838  67.449  1.00  0.00    -0.175 A  
HETATM   49  C   UNL     1      -7.154  13.781  68.623  1.00  0.00    -0.104 A  
ENDBRANCH  31  39
ENDBRANCH  23  26
ENDBRANCH  22  23
ENDBRANCH  12  22
ENDBRANCH   6   9
TORSDOF 8
ENDMDL
MODEL       32
REMARK 921   NORMALIZED FREE ENERGY PREDICTED BY IDOCK:   -6.42 KCAL/MOL
REMARK 922        TOTAL FREE ENERGY PREDICTED BY IDOCK:  -11.39 KCAL/MOL
REMARK 923 INTER-LIGAND FREE ENERGY PREDICTED BY IDOCK:   -8.74 KCAL/MOL
REMARK 924 INTRA-LIGAND FREE ENERGY PREDICTED BY IDOCK:   -2.65 KCAL/MOL
REMARK 927      BINDING AFFINITY PREDICTED BY RF-SCORE:    0.00 PKD
ROOT
HETATM    1  C   UNL     1     -12.337  13.059  65.600  1.00  0.00    -0.504 C  
HETATM    2  C   UNL     1     -11.978  12.617  64.178  1.00  0.00    -0.426 C  
HETATM    3  N   UNL     1     -10.576  12.116  64.015  1.00  0.00    -0.351 N  
HETATM    4  C   UNL     1     -12.115  13.881  63.280  1.00  0.00     0.197 C  
HETATM    5  C   UNL     1     -13.020  11.610  63.668  1.00  0.00    -0.062 C  
HETATM    6  C   UNL     1      -9.782  11.085  64.442  1.00  0.00    -0.280 C  
HETATM    7  H   UNL     1     -10.051  12.732  63.394  1.00  0.00     0.000 HD 
HETATM    8  O   UNL     1      -8.745  10.922  63.783  1.00  0.00    -0.125 OA 
ENDROOT
BRANCH   6   9
HETATM    9  C   UNL     1     -10.049  10.204  65.675  1.00  0.00    -0.254 C  
HETATM   10  C   UNL     1     -10.184  10.911  67.082  1.00  0.00    -0.210 C  
HETATM   11  N   UNL     1     -10.867  10.015  68.071  1.00  0.00    -0.260 NA 
HETATM   12  N   UNL     1      -9.172   9.001  65.750  1.00  0.00    -0.222 NA 
HETATM   13  C   UNL     1     -10.307   8.635  68.019  1.00  0.00    -0.223 C  
HETATM   14  C   UNL     1      -9.962   8.074  66.611  1.00  0.00    -0.256 C  
BRANCH  11  15
HETATM   15  C   UNL     1     -10.770  10.486  69.473  1.00  0.00    -0.255 C  
BRANCH  15  16
HETATM   16  C   UNL     1     -11.687   9.853  70.491  1.00  0.00    -0.373 A  
HETATM   17  C   UNL     1     -12.897  10.458  70.822  1.00  0.00    -0.364 A  
HETATM   18  N   UNL     1     -13.715  10.051  71.824  1.00  0.00    -0.206 NA 
HETATM   19  C   UNL     1     -12.124   8.303  72.296  1.00  0.00    -0.439 A  
HETATM   20  C   UNL     1     -13.306   8.984  72.539  1.00  0.00    -0.423 A  
HETATM   21  C   UNL     1     -11.304   8.749  71.257  1.00  0.00    -0.357 A  
ENDBRANCH  15  16
ENDBRANCH  11  15
BRANCH  12  22
HETATM   22  C   UNL     1      -7.787   9.156  66.331  1.00  0.00    -0.100 C  
BRANCH  22  23
HETATM   23  C   UNL     1      -7.079   7.941  67.001  1.00  0.00    -0.078 C  
HETATM   24  O   UNL     1      -5.789   7.770  66.391  1.00  0.00    -0.038 OA 
HETATM   25  H   UNL     1      -5.357   7.028  66.799  1.00  0.00     0.000 HD 
BRANCH  23  26
HETATM   26  C   UNL     1      -6.703   8.069  68.506  1.00  0.00    -0.066 C  
HETATM   27  C   UNL     1      -7.216   9.252  69.367  1.00  0.00    -0.068 C  
HETATM   28  C   UNL     1      -7.053   8.897  70.886  1.00  0.00    -0.085 C  
HETATM   29  C   UNL     1      -6.421  10.537  69.053  1.00  0.00    -0.054 C  
HETATM   30  O   UNL     1      -5.277  10.512  68.607  1.00  0.00    -0.038 OA 
HETATM   31  N   UNL     1      -7.072  11.733  69.297  1.00  0.00    -0.274 N  
HETATM   32  H   UNL     1      -7.930  11.732  69.848  1.00  0.00     0.000 HD 
BRANCH  28  33
HETATM   33  C   UNL     1      -7.869   7.718  71.417  1.00  0.00    -0.090 A  
HETATM   34  C   UNL     1      -8.190   7.609  72.777  1.00  0.00    -0.158 A  
HETATM   35  C   UNL     1      -8.283   6.687  70.559  1.00  0.00    -0.118 A  
HETATM   36  C   UNL     1      -9.014   5.585  71.043  1.00  0.00    -0.153 A  
HETATM   37  C   UNL     1      -8.921   6.508  73.260  1.00  0.00    -0.138 A  
HETATM   38  C   UNL     1      -9.334   5.499  72.392  1.00  0.00    -0.156 A  
ENDBRANCH  28  33
BRANCH  31  39
HETATM   39  C   UNL     1      -6.547  13.011  68.773  1.00  0.00    -0.096 C  
HETATM   40  C   UNL     1      -6.572  15.168  70.087  1.00  0.00    -0.096 C  
HETATM   41  C   UNL     1      -7.680  15.107  69.094  1.00  0.00    -0.195 A  
HETATM   42  H   UNL     1      -5.071  13.748  71.699  1.00  0.00     0.000 HD 
HETATM   43  C   UNL     1      -5.767  13.878  69.818  1.00  0.00    -0.110 C  
HETATM   44  O   UNL     1      -5.545  13.222  71.065  1.00  0.00    -0.185 OA 
HETATM   45  C   UNL     1      -8.640  16.095  68.866  1.00  0.00    -0.245 A  
HETATM   46  C   UNL     1      -9.573  15.892  67.850  1.00  0.00    -0.215 A  
HETATM   47  C   UNL     1      -9.531  14.730  67.074  1.00  0.00    -0.241 A  
HETATM   48  C   UNL     1      -8.580  13.736  67.321  1.00  0.00    -0.221 A  
HETATM   49  C   UNL     1      -7.658  13.933  68.353  1.00  0.00    -0.130 A  
ENDBRANCH  31  39
ENDBRANCH  23  26
ENDBRANCH  22  23
ENDBRANCH  12  22
ENDBRANCH   6   9
TORSDOF 8
ENDMDL
MODEL       33
REMARK 921   NORMALIZED FREE ENERGY PREDICTED BY IDOCK:   -6.40 KCAL/MOL
REMARK 922        TOTAL FREE ENERGY PREDICTED BY IDOCK:  -11.35 KCAL/MOL
REMARK 923 INTER-LIGAND FREE ENERGY PREDICTED BY IDOCK:   -9.39 KCAL/MOL
REMARK 924 INTRA-LIGAND FREE ENERGY PREDICTED BY IDOCK:   -1.97 KCAL/MOL
REMARK 927      BINDING AFFINITY PREDICTED BY RF-SCORE:    0.00 PKD
ROOT
HETATM    1  C   UNL     1     -10.898  10.907  65.226  1.00  0.00    -0.123 C  
HETATM    2  C   UNL     1     -10.788  11.958  64.117  1.00  0.00    -0.356 C  
HETATM    3  N   UNL     1     -10.799  13.377  64.598  1.00  0.00    -0.371 N  
HETATM    4  C   UNL     1     -12.042  11.774  63.215  1.00  0.00    -0.375 C  
HETATM    5  C   UNL     1      -9.570  11.653  63.232  1.00  0.00    -0.334 C  
HETATM    6  C   UNL     1     -10.039  14.225  65.358  1.00  0.00    -0.351 C  
HETATM    7  H   UNL     1     -11.629  13.859  64.253  1.00  0.00     0.000 HD 
HETATM    8  O   UNL     1     -10.313  15.427  65.224  1.00  0.00    -0.367 OA 
ENDROOT
BRANCH   6   9
HETATM    9  C   UNL     1      -8.966  13.795  66.374  1.00  0.00     0.021 C  
HETATM   10  C   UNL     1      -8.503  12.284  66.376  1.00  0.00     0.102 C  
HETATM   11  N   UNL     1      -7.187  12.126  67.075  1.00  0.00    -0.109 NA 
HETATM   12  N   UNL     1      -9.222  14.291  67.757  1.00  0.00    -0.189 NA 
HETATM   13  C   UNL     1      -7.171  12.876  68.363  1.00  0.00    -0.113 C  
HETATM   14  C   UNL     1      -7.861  14.269  68.368  1.00  0.00    -0.140 C  
BRANCH  11  15
HETATM   15  C   UNL     1      -6.831  10.718  67.373  1.00  0.00    -0.078 C  
BRANCH  15  16
HETATM   16  C   UNL     1      -7.223   9.666  66.366  1.00  0.00    -0.094 A  
HETATM   17  C   UNL     1      -6.740   9.724  65.061  1.00  0.00    -0.107 A  
HETATM   18  N   UNL     1      -7.147   8.918  64.050  1.00  0.00    -0.093 NA 
HETATM   19  C   UNL     1      -8.638   7.853  65.615  1.00  0.00    -0.159 A  
HETATM   20  C   UNL     1      -8.090   8.003  64.352  1.00  0.00    -0.123 A  
HETATM   21  C   UNL     1      -8.197   8.701  66.634  1.00  0.00    -0.107 A  
ENDBRANCH  15  16
ENDBRANCH  11  15
BRANCH  12  22
HETATM   22  C   UNL     1     -10.170  13.511  68.636  1.00  0.00    -0.189 C  
BRANCH  22  23
HETATM   23  C   UNL     1     -11.700  13.532  68.349  1.00  0.00    -0.358 C  
HETATM   24  O   UNL     1     -12.013  12.449  67.457  1.00  0.00    -0.482 OA 
HETATM   25  H   UNL     1     -12.947  12.462  67.281  1.00  0.00     0.000 HD 
BRANCH  23  26
HETATM   26  C   UNL     1     -12.659  13.247  69.542  1.00  0.00     0.218 C  
HETATM   27  C   UNL     1     -12.225  12.349  70.728  1.00  0.00    -0.336 C  
HETATM   28  C   UNL     1     -13.187  12.592  71.943  1.00  0.00    -0.504 C  
HETATM   29  C   UNL     1     -12.273  10.860  70.327  1.00  0.00    -0.348 C  
HETATM   30  O   UNL     1     -13.004  10.441  69.434  1.00  0.00     0.106 OA 
HETATM   31  N   UNL     1     -11.436  10.011  71.028  1.00  0.00    -0.374 N  
HETATM   32  H   UNL     1     -10.994  10.341  71.886  1.00  0.00     0.000 HD 
BRANCH  28  33
HETATM   33  C   UNL     1     -13.185  13.990  72.563  1.00  0.00    -0.602 A  
HETATM   34  C   UNL     1     -12.197  14.378  73.478  1.00  0.00    -0.001 A  
HETATM   35  C   UNL     1     -14.202  14.909  72.264  1.00  0.00    -0.568 A  
HETATM   36  C   UNL     1     -14.223  16.190  72.850  1.00  0.00     0.151 A  
HETATM   37  C   UNL     1     -12.217  15.657  74.063  1.00  0.00    -0.711 A  
HETATM   38  C   UNL     1     -13.229  16.563  73.746  1.00  0.00     0.084 A  
ENDBRANCH  28  33
BRANCH  31  39
HETATM   39  C   UNL     1     -11.169   8.635  70.557  1.00  0.00    -0.241 C  
HETATM   40  C   UNL     1     -11.262   6.608  72.059  1.00  0.00    -0.301 C  
HETATM   41  C   UNL     1      -9.863   7.061  71.821  1.00  0.00    -0.169 A  
HETATM   42  H   UNL     1     -13.747   7.398  72.320  1.00  0.00     0.000 HD 
HETATM   43  C   UNL     1     -12.108   7.540  71.165  1.00  0.00    -0.307 C  
HETATM   44  O   UNL     1     -13.177   8.063  71.951  1.00  0.00    -0.321 OA 
HETATM   45  C   UNL     1      -8.705   6.472  72.331  1.00  0.00    -0.126 A  
HETATM   46  C   UNL     1      -7.471   6.999  71.953  1.00  0.00    -0.087 A  
HETATM   47  C   UNL     1      -7.405   8.082  71.072  1.00  0.00    -0.059 A  
HETATM   48  C   UNL     1      -8.568   8.680  70.581  1.00  0.00    -0.183 A  
HETATM   49  C   UNL     1      -9.805   8.163  70.977  1.00  0.00    -0.212 A  
ENDBRANCH  31  39
ENDBRANCH  23  26
ENDBRANCH  22  23
ENDBRANCH  12  22
ENDBRANCH   6   9
TORSDOF 8
ENDMDL
MODEL       34
REMARK 921   NORMALIZED FREE ENERGY PREDICTED BY IDOCK:   -6.39 KCAL/MOL
REMARK 922        TOTAL FREE ENERGY PREDICTED BY IDOCK:  -11.35 KCAL/MOL
REMARK 923 INTER-LIGAND FREE ENERGY PREDICTED BY IDOCK:   -9.76 KCAL/MOL
REMARK 924 INTRA-LIGAND FREE ENERGY PREDICTED BY IDOCK:   -1.60 KCAL/MOL
REMARK 927      BINDING AFFINITY PREDICTED BY RF-SCORE:    0.00 PKD
ROOT
HETATM    1  C   UNL     1     -10.185   6.284  66.777  1.00  0.00    -0.262 C  
HETATM    2  C   UNL     1      -8.815   5.599  66.744  1.00  0.00    -0.115 C  
HETATM    3  N   UNL     1      -7.693   6.417  67.304  1.00  0.00    -0.099 N  
HETATM    4  C   UNL     1      -8.489   5.348  65.243  1.00  0.00    -0.149 C  
HETATM    5  C   UNL     1      -8.912   4.214  67.402  1.00  0.00    -0.140 C  
HETATM    6  C   UNL     1      -7.295   6.960  68.496  1.00  0.00    -0.090 C  
HETATM    7  H   UNL     1      -7.017   6.637  66.573  1.00  0.00     0.000 HD 
HETATM    8  O   UNL     1      -6.107   7.315  68.533  1.00  0.00    -0.025 OA 
ENDROOT
BRANCH   6   9
HETATM    9  C   UNL     1      -8.204   7.213  69.711  1.00  0.00    -0.131 C  
HETATM   10  C   UNL     1      -9.103   6.021  70.231  1.00  0.00    -0.151 C  
HETATM   11  N   UNL     1      -9.569   6.270  71.633  1.00  0.00    -0.155 NA 
HETATM   12  N   UNL     1      -8.979   8.484  69.623  1.00  0.00    -0.144 NA 
HETATM   13  C   UNL     1     -10.074   7.663  71.791  1.00  0.00    -0.173 C  
HETATM   14  C   UNL     1      -9.284   8.780  71.052  1.00  0.00    -0.222 C  
BRANCH  11  15
HETATM   15  C   UNL     1     -10.642   5.351  72.082  1.00  0.00    -0.227 C  
BRANCH  15  16
HETATM   16  C   UNL     1     -10.267   4.244  73.035  1.00  0.00    -0.226 A  
HETATM   17  C   UNL     1      -8.961   4.131  73.505  1.00  0.00    -0.095 A  
HETATM   18  N   UNL     1      -8.493   3.093  74.241  1.00  0.00    -0.069 NA 
HETATM   19  C   UNL     1     -10.693   2.121  74.112  1.00  0.00    -0.224 A  
HETATM   20  C   UNL     1      -9.371   2.110  74.524  1.00  0.00    -0.077 A  
HETATM   21  C   UNL     1     -11.143   3.205  73.354  1.00  0.00    -0.283 A  
ENDBRANCH  15  16
ENDBRANCH  11  15
BRANCH  12  22
HETATM   22  C   UNL     1     -10.266   8.488  68.832  1.00  0.00    -0.207 C  
BRANCH  22  23
HETATM   23  C   UNL     1     -10.811   9.818  68.233  1.00  0.00    -0.210 C  
HETATM   24  O   UNL     1     -10.031  10.908  68.752  1.00  0.00    -0.182 OA 
HETATM   25  H   UNL     1     -10.364  11.720  68.387  1.00  0.00     0.000 HD 
BRANCH  23  26
HETATM   26  C   UNL     1     -10.665  10.027  66.698  1.00  0.00    -0.128 C  
HETATM   27  C   UNL     1     -10.023  11.313  66.117  1.00  0.00    -0.268 C  
HETATM   28  C   UNL     1      -9.620  11.062  64.622  1.00  0.00    -0.297 C  
HETATM   29  C   UNL     1     -11.014  12.494  66.189  1.00  0.00    -0.284 C  
HETATM   30  O   UNL     1     -12.230  12.334  66.210  1.00  0.00    -0.628 OA 
HETATM   31  N   UNL     1     -10.454  13.759  66.235  1.00  0.00    -0.286 N  
HETATM   32  H   UNL     1      -9.465  13.876  66.015  1.00  0.00     0.000 HD 
BRANCH  28  33
HETATM   33  C   UNL     1      -8.547  10.005  64.358  1.00  0.00    -0.199 A  
HETATM   34  C   UNL     1      -7.462   9.837  65.228  1.00  0.00    -0.120 A  
HETATM   35  C   UNL     1      -8.600   9.201  63.209  1.00  0.00    -0.182 A  
HETATM   36  C   UNL     1      -7.603   8.241  62.944  1.00  0.00    -0.121 A  
HETATM   37  C   UNL     1      -6.466   8.878  64.964  1.00  0.00    -0.065 A  
HETATM   38  C   UNL     1      -6.540   8.079  63.824  1.00  0.00    -0.067 A  
ENDBRANCH  28  33
BRANCH  31  39
HETATM   39  C   UNL     1     -11.263  14.942  66.596  1.00  0.00    -0.340 C  
HETATM   40  C   UNL     1     -10.267  17.099  67.451  1.00  0.00    -0.321 C  
HETATM   41  C   UNL     1     -10.821  16.265  68.554  1.00  0.00    -0.330 A  
HETATM   42  H   UNL     1      -9.096  17.033  65.108  1.00  0.00     0.000 HD 
HETATM   43  C   UNL     1     -10.641  16.316  66.175  1.00  0.00    -0.267 C  
HETATM   44  O   UNL     1      -9.473  16.199  65.364  1.00  0.00    -0.394 OA 
HETATM   45  C   UNL     1     -10.827  16.589  69.912  1.00  0.00    -0.285 A  
HETATM   46  C   UNL     1     -11.445  15.711  70.801  1.00  0.00    -0.409 A  
HETATM   47  C   UNL     1     -12.055  14.544  70.332  1.00  0.00    -0.389 A  
HETATM   48  C   UNL     1     -12.029  14.216  68.974  1.00  0.00    -0.376 A  
HETATM   49  C   UNL     1     -11.391  15.088  68.087  1.00  0.00    -0.343 A  
ENDBRANCH  31  39
ENDBRANCH  23  26
ENDBRANCH  22  23
ENDBRANCH  12  22
ENDBRANCH   6   9
TORSDOF 8
ENDMDL
MODEL       35
REMARK 921   NORMALIZED FREE ENERGY PREDICTED BY IDOCK:   -6.36 KCAL/MOL
REMARK 922        TOTAL FREE ENERGY PREDICTED BY IDOCK:  -11.30 KCAL/MOL
REMARK 923 INTER-LIGAND FREE ENERGY PREDICTED BY IDOCK:  -10.39 KCAL/MOL
REMARK 924 INTRA-LIGAND FREE ENERGY PREDICTED BY IDOCK:   -0.91 KCAL/MOL
REMARK 927      BINDING AFFINITY PREDICTED BY RF-SCORE:    0.00 PKD
ROOT
HETATM    1  C   UNL     1      -8.643  16.366  68.709  1.00  0.00    -0.250 C  
HETATM    2  C   UNL     1      -7.591  16.087  67.632  1.00  0.00    -0.146 C  
HETATM    3  N   UNL     1      -7.119  14.667  67.571  1.00  0.00    -0.183 N  
HETATM    4  C   UNL     1      -6.355  16.961  67.992  1.00  0.00    -0.151 C  
HETATM    5  C   UNL     1      -8.095  16.592  66.271  1.00  0.00    -0.341 C  
HETATM    6  C   UNL     1      -7.608  13.418  67.294  1.00  0.00    -0.062 C  
HETATM    7  H   UNL     1      -6.129  14.613  67.811  1.00  0.00     0.000 HD 
HETATM    8  O   UNL     1      -6.740  12.558  67.081  1.00  0.00    -0.144 OA 
ENDROOT
BRANCH   6   9
HETATM    9  C   UNL     1      -9.093  13.018  67.301  1.00  0.00    -0.209 C  
HETATM   10  C   UNL     1      -9.787  12.752  68.696  1.00  0.00    -0.063 C  
HETATM   11  N   UNL     1     -11.280  12.817  68.576  1.00  0.00    -0.259 NA 
HETATM   12  N   UNL     1      -9.430  11.955  66.311  1.00  0.00    -0.224 NA 
HETATM   13  C   UNL     1     -11.755  12.054  67.388  1.00  0.00    -0.281 C  
HETATM   14  C   UNL     1     -10.892  12.159  66.099  1.00  0.00    -0.282 C  
BRANCH  11  15
HETATM   15  C   UNL     1     -12.001  12.295  69.761  1.00  0.00    -0.295 C  
BRANCH  15  16
HETATM   16  C   UNL     1     -12.588  13.297  70.724  1.00  0.00    -0.357 A  
HETATM   17  C   UNL     1     -13.337  12.869  71.817  1.00  0.00    -0.359 A  
HETATM   18  N   UNL     1     -14.026  13.688  72.649  1.00  0.00    -0.745 NA 
HETATM   19  C   UNL     1     -13.253  15.544  71.321  1.00  0.00    -0.588 A  
HETATM   20  C   UNL     1     -13.970  15.008  72.378  1.00  0.00    -0.492 A  
HETATM   21  C   UNL     1     -12.555  14.672  70.482  1.00  0.00    -0.409 A  
ENDBRANCH  15  16
ENDBRANCH  11  15
BRANCH  12  22
HETATM   22  C   UNL     1      -9.183  10.515  66.690  1.00  0.00    -0.156 C  
BRANCH  22  23
HETATM   23  C   UNL     1     -10.067   9.384  66.087  1.00  0.00    -0.254 C  
HETATM   24  O   UNL     1      -9.326   8.732  65.042  1.00  0.00    -0.432 OA 
HETATM   25  H   UNL     1      -9.866   8.042  64.674  1.00  0.00     0.000 HD 
BRANCH  23  26
HETATM   26  C   UNL     1     -10.431   8.186  67.012  1.00  0.00    -0.396 C  
HETATM   27  C   UNL     1      -9.345   7.442  67.831  1.00  0.00    -0.138 C  
HETATM   28  C   UNL     1     -10.033   6.605  68.965  1.00  0.00    -0.162 C  
HETATM   29  C   UNL     1      -8.530   6.499  66.921  1.00  0.00    -0.114 C  
HETATM   30  O   UNL     1      -8.982   6.035  65.879  1.00  0.00    -0.156 OA 
HETATM   31  N   UNL     1      -7.245   6.204  67.342  1.00  0.00    -0.074 N  
HETATM   32  H   UNL     1      -6.966   6.434  68.296  1.00  0.00     0.000 HD 
BRANCH  28  33
HETATM   33  C   UNL     1     -10.790   7.382  70.042  1.00  0.00    -0.266 A  
HETATM   34  C   UNL     1     -10.339   8.630  70.493  1.00  0.00    -0.234 A  
HETATM   35  C   UNL     1     -11.939   6.843  70.642  1.00  0.00    -0.400 A  
HETATM   36  C   UNL     1     -12.630   7.540  71.653  1.00  0.00    -0.376 A  
HETATM   37  C   UNL     1     -11.028   9.327  71.502  1.00  0.00    -0.446 A  
HETATM   38  C   UNL     1     -12.175   8.782  72.078  1.00  0.00    -0.447 A  
ENDBRANCH  28  33
BRANCH  31  39
HETATM   39  C   UNL     1      -6.270   5.563  66.435  1.00  0.00    -0.034 C  
HETATM   40  C   UNL     1      -6.368   5.766  63.920  1.00  0.00    -0.029 C  
HETATM   41  C   UNL     1      -6.921   4.468  64.396  1.00  0.00    -0.046 A  
HETATM   42  H   UNL     1      -6.078   8.304  64.502  1.00  0.00     0.000 HD 
HETATM   43  C   UNL     1      -5.843   6.437  65.207  1.00  0.00    -0.022 C  
HETATM   44  O   UNL     1      -6.338   7.774  65.247  1.00  0.00    -0.038 OA 
HETATM   45  C   UNL     1      -7.435   3.445  63.597  1.00  0.00    -0.059 A  
HETATM   46  C   UNL     1      -7.857   2.268  64.214  1.00  0.00    -0.073 A  
HETATM   47  C   UNL     1      -7.750   2.120  65.600  1.00  0.00    -0.072 A  
HETATM   48  C   UNL     1      -7.252   3.155  66.397  1.00  0.00    -0.070 A  
HETATM   49  C   UNL     1      -6.849   4.341  65.777  1.00  0.00    -0.057 A  
ENDBRANCH  31  39
ENDBRANCH  23  26
ENDBRANCH  22  23
ENDBRANCH  12  22
ENDBRANCH   6   9
TORSDOF 8
ENDMDL
MODEL       36
REMARK 921   NORMALIZED FREE ENERGY PREDICTED BY IDOCK:   -6.33 KCAL/MOL
REMARK 922        TOTAL FREE ENERGY PREDICTED BY IDOCK:  -11.25 KCAL/MOL
REMARK 923 INTER-LIGAND FREE ENERGY PREDICTED BY IDOCK:   -9.17 KCAL/MOL
REMARK 924 INTRA-LIGAND FREE ENERGY PREDICTED BY IDOCK:   -2.08 KCAL/MOL
REMARK 927      BINDING AFFINITY PREDICTED BY RF-SCORE:    0.00 PKD
ROOT
HETATM    1  C   UNL     1      -8.919  11.320  62.604  1.00  0.00    -0.311 C  
HETATM    2  C   UNL     1      -8.143  10.235  63.357  1.00  0.00    -0.154 C  
HETATM    3  N   UNL     1      -7.520  10.690  64.641  1.00  0.00    -0.352 N  
HETATM    4  C   UNL     1      -6.981   9.799  62.418  1.00  0.00    -0.110 C  
HETATM    5  C   UNL     1      -9.032   8.997  63.547  1.00  0.00     0.113 C  
HETATM    6  C   UNL     1      -7.895  11.155  65.873  1.00  0.00     0.036 C  
HETATM    7  H   UNL     1      -6.503  10.638  64.578  1.00  0.00     0.000 HD 
HETATM    8  O   UNL     1      -7.004  11.117  66.735  1.00  0.00    -0.120 OA 
ENDROOT
BRANCH   6   9
HETATM    9  C   UNL     1      -9.267  11.759  66.220  1.00  0.00    -0.221 C  
HETATM   10  C   UNL     1      -9.430  12.487  67.614  1.00  0.00    -0.188 C  
HETATM   11  N   UNL     1     -10.631  13.382  67.616  1.00  0.00    -0.241 NA 
HETATM   12  N   UNL     1     -10.410  10.843  65.945  1.00  0.00    -0.257 NA 
HETATM   13  C   UNL     1     -11.815  12.692  67.031  1.00  0.00    -0.345 C  
HETATM   14  C   UNL     1     -11.555  11.787  65.794  1.00  0.00    -0.125 C  
BRANCH  11  15
HETATM   15  C   UNL     1     -11.016  13.868  68.963  1.00  0.00    -0.250 C  
BRANCH  15  16
HETATM   16  C   UNL     1     -11.843  12.952  69.830  1.00  0.00    -0.380 A  
HETATM   17  C   UNL     1     -12.622  13.470  70.862  1.00  0.00    -0.337 A  
HETATM   18  N   UNL     1     -13.278  12.724  71.783  1.00  0.00    -0.420 NA 
HETATM   19  C   UNL     1     -12.410  10.762  70.687  1.00  0.00    -0.465 A  
HETATM   20  C   UNL     1     -13.153  11.385  71.675  1.00  0.00    -0.393 A  
HETATM   21  C   UNL     1     -11.744  11.560  69.754  1.00  0.00    -0.426 A  
ENDBRANCH  15  16
ENDBRANCH  11  15
BRANCH  12  22
HETATM   22  C   UNL     1     -10.762   9.801  66.979  1.00  0.00    -0.166 C  
BRANCH  22  23
HETATM   23  C   UNL     1     -10.108   8.388  66.920  1.00  0.00    -0.294 C  
HETATM   24  O   UNL     1      -8.769   8.483  67.433  1.00  0.00    -0.132 OA 
HETATM   25  H   UNL     1      -8.370   7.621  67.397  1.00  0.00     0.000 HD 
BRANCH  23  26
HETATM   26  C   UNL     1     -10.716   7.278  67.826  1.00  0.00    -0.267 C  
HETATM   27  C   UNL     1      -9.914   6.000  68.182  1.00  0.00    -0.168 C  
HETATM   28  C   UNL     1     -10.579   5.298  69.417  1.00  0.00    -0.215 C  
HETATM   29  C   UNL     1      -9.892   5.022  66.988  1.00  0.00    -0.185 C  
HETATM   30  O   UNL     1     -10.764   5.016  66.125  1.00  0.00    -0.315 OA 
HETATM   31  N   UNL     1      -8.822   4.147  66.936  1.00  0.00    -0.114 N  
HETATM   32  H   UNL     1      -8.227   4.034  67.757  1.00  0.00     0.000 HD 
BRANCH  28  33
HETATM   33  C   UNL     1     -10.583   6.069  70.738  1.00  0.00    -0.316 A  
HETATM   34  C   UNL     1     -11.719   6.765  71.170  1.00  0.00    -0.394 A  
HETATM   35  C   UNL     1      -9.428   6.137  71.533  1.00  0.00    -0.161 A  
HETATM   36  C   UNL     1      -9.414   6.865  72.738  1.00  0.00    -0.161 A  
HETATM   37  C   UNL     1     -11.707   7.492  72.375  1.00  0.00    -0.335 A  
HETATM   38  C   UNL     1     -10.554   7.539  73.159  1.00  0.00    -0.442 A  
ENDBRANCH  28  33
BRANCH  31  39
HETATM   39  C   UNL     1      -8.526   3.371  65.713  1.00  0.00    -0.109 C  
HETATM   40  C   UNL     1      -6.310   2.237  65.288  1.00  0.00    -0.023 C  
HETATM   41  C   UNL     1      -6.424   3.528  64.556  1.00  0.00    -0.035 A  
HETATM   42  H   UNL     1      -6.993   0.952  67.468  1.00  0.00     0.000 HD 
HETATM   43  C   UNL     1      -7.695   2.065  65.949  1.00  0.00    -0.071 C  
HETATM   44  O   UNL     1      -7.497   1.745  67.325  1.00  0.00    -0.057 OA 
HETATM   45  C   UNL     1      -5.462   4.089  63.715  1.00  0.00    -0.013 A  
HETATM   46  C   UNL     1      -5.764   5.284  63.062  1.00  0.00    -0.014 A  
HETATM   47  C   UNL     1      -7.012   5.889  63.241  1.00  0.00    -0.044 A  
HETATM   48  C   UNL     1      -7.964   5.333  64.099  1.00  0.00    -0.112 A  
HETATM   49  C   UNL     1      -7.650   4.146  64.768  1.00  0.00    -0.077 A  
ENDBRANCH  31  39
ENDBRANCH  23  26
ENDBRANCH  22  23
ENDBRANCH  12  22
ENDBRANCH   6   9
TORSDOF 8
ENDMDL
MODEL       37
REMARK 921   NORMALIZED FREE ENERGY PREDICTED BY IDOCK:   -6.32 KCAL/MOL
REMARK 922        TOTAL FREE ENERGY PREDICTED BY IDOCK:  -11.24 KCAL/MOL
REMARK 923 INTER-LIGAND FREE ENERGY PREDICTED BY IDOCK:   -9.42 KCAL/MOL
REMARK 924 INTRA-LIGAND FREE ENERGY PREDICTED BY IDOCK:   -1.83 KCAL/MOL
REMARK 927      BINDING AFFINITY PREDICTED BY RF-SCORE:    0.00 PKD
ROOT
HETATM    1  C   UNL     1      -5.547  10.530  68.381  1.00  0.00    -0.036 C  
HETATM    2  C   UNL     1      -6.335  11.532  67.530  1.00  0.00    -0.076 C  
HETATM    3  N   UNL     1      -6.751  11.019  66.186  1.00  0.00    -0.289 N  
HETATM    4  C   UNL     1      -5.382  12.737  67.282  1.00  0.00     0.050 C  
HETATM    5  C   UNL     1      -7.521  12.079  68.339  1.00  0.00    -0.110 C  
HETATM    6  C   UNL     1      -7.559  10.056  65.644  1.00  0.00    -0.137 C  
HETATM    7  H   UNL     1      -6.291  11.551  65.448  1.00  0.00     0.000 HD 
HETATM    8  O   UNL     1      -7.817  10.212  64.441  1.00  0.00    -0.143 OA 
ENDROOT
BRANCH   6   9
HETATM    9  C   UNL     1      -8.085   8.812  66.381  1.00  0.00    -0.103 C  
HETATM   10  C   UNL     1      -8.732   7.654  65.522  1.00  0.00    -0.051 C  
HETATM   11  N   UNL     1      -8.778   6.371  66.295  1.00  0.00    -0.139 NA 
HETATM   12  N   UNL     1      -8.913   9.132  67.578  1.00  0.00    -0.122 NA 
HETATM   13  C   UNL     1      -9.283   6.597  67.678  1.00  0.00    -0.110 C  
HETATM   14  C   UNL     1      -8.800   7.890  68.395  1.00  0.00    -0.130 C  
BRANCH  11  15
HETATM   15  C   UNL     1      -9.626   5.326  65.674  1.00  0.00    -0.044 C  
BRANCH  15  16
HETATM   16  C   UNL     1      -8.966   4.356  64.726  1.00  0.00    -0.149 A  
HETATM   17  C   UNL     1      -9.492   4.143  63.454  1.00  0.00    -0.139 A  
HETATM   18  N   UNL     1      -9.062   3.191  62.591  1.00  0.00    -0.091 NA 
HETATM   19  C   UNL     1      -7.452   2.528  64.257  1.00  0.00    -0.063 A  
HETATM   20  C   UNL     1      -8.053   2.403  63.015  1.00  0.00    -0.069 A  
HETATM   21  C   UNL     1      -7.920   3.519  65.123  1.00  0.00    -0.086 A  
ENDBRANCH  15  16
ENDBRANCH  11  15
BRANCH  12  22
HETATM   22  C   UNL     1     -10.373   9.459  67.376  1.00  0.00    -0.263 C  
BRANCH  22  23
HETATM   23  C   UNL     1     -10.926  10.858  67.781  1.00  0.00    -0.283 C  
HETATM   24  O   UNL     1     -11.765  11.343  66.720  1.00  0.00    -0.474 OA 
HETATM   25  H   UNL     1     -12.102  12.197  66.967  1.00  0.00     0.000 HD 
BRANCH  23  26
HETATM   26  C   UNL     1     -11.889  10.924  69.002  1.00  0.00    -0.370 C  
HETATM   27  C   UNL     1     -11.358  10.812  70.454  1.00  0.00    -0.342 C  
HETATM   28  C   UNL     1     -12.451  11.337  71.449  1.00  0.00    -0.392 C  
HETATM   29  C   UNL     1     -11.017   9.346  70.795  1.00  0.00    -0.304 C  
HETATM   30  O   UNL     1     -11.548   8.396  70.227  1.00  0.00    -0.148 OA 
HETATM   31  N   UNL     1     -10.065   9.153  71.781  1.00  0.00    -0.299 N  
HETATM   32  H   UNL     1      -9.790   9.939  72.370  1.00  0.00     0.000 HD 
BRANCH  28  33
HETATM   33  C   UNL     1     -12.834  12.813  71.346  1.00  0.00    -0.371 A  
HETATM   34  C   UNL     1     -12.261  13.648  70.377  1.00  0.00    -0.434 A  
HETATM   35  C   UNL     1     -13.740  13.384  72.254  1.00  0.00    -0.705 A  
HETATM   36  C   UNL     1     -14.080  14.749  72.183  1.00  0.00    -0.604 A  
HETATM   37  C   UNL     1     -12.601  15.011  70.306  1.00  0.00    -0.363 A  
HETATM   38  C   UNL     1     -13.513  15.559  71.208  1.00  0.00    -0.560 A  
ENDBRANCH  28  33
BRANCH  31  39
HETATM   39  C   UNL     1      -9.441   7.831  71.996  1.00  0.00    -0.163 C  
HETATM   40  C   UNL     1      -9.204   6.757  74.269  1.00  0.00    -0.246 C  
HETATM   41  C   UNL     1      -7.934   7.389  73.816  1.00  0.00    -0.148 A  
HETATM   42  H   UNL     1     -11.818   6.925  74.189  1.00  0.00     0.000 HD 
HETATM   43  C   UNL     1     -10.153   6.934  73.064  1.00  0.00    -0.201 C  
HETATM   44  O   UNL     1     -11.386   7.469  73.542  1.00  0.00    -0.202 OA 
HETATM   45  C   UNL     1      -6.726   7.408  74.515  1.00  0.00    -0.103 A  
HETATM   46  C   UNL     1      -5.617   7.998  73.909  1.00  0.00    -0.066 A  
HETATM   47  C   UNL     1      -5.720   8.540  72.625  1.00  0.00    -0.069 A  
HETATM   48  C   UNL     1      -6.937   8.535  71.938  1.00  0.00    -0.101 A  
HETATM   49  C   UNL     1      -8.052   7.961  72.556  1.00  0.00    -0.167 A  
ENDBRANCH  31  39
ENDBRANCH  23  26
ENDBRANCH  22  23
ENDBRANCH  12  22
ENDBRANCH   6   9
TORSDOF 8
ENDMDL
MODEL       38
REMARK 921   NORMALIZED FREE ENERGY PREDICTED BY IDOCK:   -6.31 KCAL/MOL
REMARK 922        TOTAL FREE ENERGY PREDICTED BY IDOCK:  -11.22 KCAL/MOL
REMARK 923 INTER-LIGAND FREE ENERGY PREDICTED BY IDOCK:   -8.75 KCAL/MOL
REMARK 924 INTRA-LIGAND FREE ENERGY PREDICTED BY IDOCK:   -2.47 KCAL/MOL
REMARK 927      BINDING AFFINITY PREDICTED BY RF-SCORE:    0.00 PKD
ROOT
HETATM    1  C   UNL     1     -11.123  11.585  64.162  1.00  0.00    -0.417 C  
HETATM    2  C   UNL     1     -11.343  12.580  65.307  1.00  0.00    -0.324 C  
HETATM    3  N   UNL     1     -11.421  11.959  66.668  1.00  0.00    -0.339 N  
HETATM    4  C   UNL     1     -12.717  13.258  65.037  1.00  0.00    -0.438 C  
HETATM    5  C   UNL     1     -10.289  13.695  65.234  1.00  0.00    -0.362 C  
HETATM    6  C   UNL     1     -10.630  11.262  67.541  1.00  0.00    -0.218 C  
HETATM    7  H   UNL     1     -12.350  12.099  67.066  1.00  0.00     0.000 HD 
HETATM    8  O   UNL     1     -11.056  11.219  68.705  1.00  0.00    -0.196 OA 
ENDROOT
BRANCH   6   9
HETATM    9  C   UNL     1      -9.343  10.504  67.172  1.00  0.00    -0.154 C  
HETATM   10  C   UNL     1      -8.902   9.293  68.086  1.00  0.00    -0.129 C  
HETATM   11  N   UNL     1      -7.928   8.406  67.372  1.00  0.00    -0.105 NA 
HETATM   12  N   UNL     1      -8.192  11.399  66.857  1.00  0.00    -0.152 NA 
HETATM   13  C   UNL     1      -6.870   9.209  66.696  1.00  0.00    -0.080 C  
HETATM   14  C   UNL     1      -7.324  10.529  66.012  1.00  0.00    -0.137 C  
BRANCH  11  15
HETATM   15  C   UNL     1      -7.251   7.425  68.253  1.00  0.00    -0.090 C  
BRANCH  15  16
HETATM   16  C   UNL     1      -8.117   6.538  69.113  1.00  0.00    -0.112 A  
HETATM   17  C   UNL     1      -9.006   5.640  68.528  1.00  0.00    -0.115 A  
HETATM   18  N   UNL     1      -9.926   4.912  69.207  1.00  0.00    -0.205 NA 
HETATM   19  C   UNL     1      -9.129   5.950  71.230  1.00  0.00    -0.148 A  
HETATM   20  C   UNL     1      -9.967   5.088  70.543  1.00  0.00    -0.242 A  
HETATM   21  C   UNL     1      -8.193   6.686  70.500  1.00  0.00    -0.118 A  
ENDBRANCH  15  16
ENDBRANCH  11  15
BRANCH  12  22
HETATM   22  C   UNL     1      -7.376  11.949  68.002  1.00  0.00    -0.100 C  
BRANCH  22  23
HETATM   23  C   UNL     1      -6.976  13.454  68.026  1.00  0.00    -0.127 C  
HETATM   24  O   UNL     1      -7.401  14.060  66.794  1.00  0.00    -0.248 OA 
HETATM   25  H   UNL     1      -7.157  14.978  66.809  1.00  0.00     0.000 HD 
BRANCH  23  26
HETATM   26  C   UNL     1      -7.668  14.364  69.083  1.00  0.00    -0.050 C  
HETATM   27  C   UNL     1      -8.071  15.823  68.749  1.00  0.00    -0.179 C  
HETATM   28  C   UNL     1      -9.106  16.331  69.812  1.00  0.00     0.399 C  
HETATM   29  C   UNL     1      -6.832  16.744  68.759  1.00  0.00    -0.188 C  
HETATM   30  O   UNL     1      -5.824  16.486  69.410  1.00  0.00    -0.147 OA 
HETATM   31  N   UNL     1      -6.914  17.886  67.982  1.00  0.00    -0.198 N  
HETATM   32  H   UNL     1      -7.820  18.178  67.616  1.00  0.00     0.000 HD 
BRANCH  28  33
HETATM   33  C   UNL     1     -10.456  15.616  69.866  1.00  0.00    -0.327 A  
HETATM   34  C   UNL     1     -11.117  15.218  68.696  1.00  0.00    -0.282 A  
HETATM   35  C   UNL     1     -11.093  15.377  71.094  1.00  0.00    -0.362 A  
HETATM   36  C   UNL     1     -12.348  14.741  71.153  1.00  0.00    -0.397 A  
HETATM   37  C   UNL     1     -12.370  14.582  68.755  1.00  0.00    -0.064 A  
HETATM   38  C   UNL     1     -12.983  14.342  69.984  1.00  0.00     0.116 A  
ENDBRANCH  28  33
BRANCH  31  39
HETATM   39  C   UNL     1      -5.713  18.690  67.673  1.00  0.00    -0.175 C  
HETATM   40  C   UNL     1      -5.739  21.206  67.463  1.00  0.00    -0.382 C  
HETATM   41  C   UNL     1      -5.749  20.536  66.133  1.00  0.00    -0.219 A  
HETATM   42  H   UNL     1      -6.529  21.016  69.955  1.00  0.00     0.000 HD 
HETATM   43  C   UNL     1      -5.604  20.037  68.463  1.00  0.00    -0.227 C  
HETATM   44  O   UNL     1      -6.596  20.198  69.475  1.00  0.00    -0.315 OA 
HETATM   45  C   UNL     1      -5.761  21.168  64.889  1.00  0.00    -0.230 A  
HETATM   46  C   UNL     1      -5.708  20.378  63.742  1.00  0.00    -0.310 A  
HETATM   47  C   UNL     1      -5.630  18.986  63.846  1.00  0.00    -0.272 A  
HETATM   48  C   UNL     1      -5.638  18.358  65.094  1.00  0.00    -0.214 A  
HETATM   49  C   UNL     1      -5.711  19.151  66.243  1.00  0.00    -0.174 A  
ENDBRANCH  31  39
ENDBRANCH  23  26
ENDBRANCH  22  23
ENDBRANCH  12  22
ENDBRANCH   6   9
TORSDOF 8
ENDMDL
MODEL       39
REMARK 921   NORMALIZED FREE ENERGY PREDICTED BY IDOCK:   -6.27 KCAL/MOL
REMARK 922        TOTAL FREE ENERGY PREDICTED BY IDOCK:  -11.17 KCAL/MOL
REMARK 923 INTER-LIGAND FREE ENERGY PREDICTED BY IDOCK:   -7.82 KCAL/MOL
REMARK 924 INTRA-LIGAND FREE ENERGY PREDICTED BY IDOCK:   -3.35 KCAL/MOL
REMARK 927      BINDING AFFINITY PREDICTED BY RF-SCORE:    0.00 PKD
ROOT
HETATM    1  C   UNL     1      -9.959   7.975  68.265  1.00  0.00    -0.210 C  
HETATM    2  C   UNL     1      -9.756   6.472  68.049  1.00  0.00    -0.118 C  
HETATM    3  N   UNL     1      -8.331   6.017  68.120  1.00  0.00    -0.112 N  
HETATM    4  C   UNL     1     -10.258   6.167  66.608  1.00  0.00    -0.237 C  
HETATM    5  C   UNL     1     -10.668   5.683  69.000  1.00  0.00    -0.307 C  
HETATM    6  C   UNL     1      -7.308   5.936  69.027  1.00  0.00    -0.084 C  
HETATM    7  H   UNL     1      -8.030   5.657  67.215  1.00  0.00     0.000 HD 
HETATM    8  O   UNL     1      -6.375   5.190  68.691  1.00  0.00    -0.032 OA 
ENDROOT
BRANCH   6   9
HETATM    9  C   UNL     1      -7.213   6.730  70.341  1.00  0.00    -0.076 C  
HETATM   10  C   UNL     1      -8.489   6.786  71.272  1.00  0.00    -0.124 C  
HETATM   11  N   UNL     1      -8.120   7.192  72.667  1.00  0.00    -0.106 NA 
HETATM   12  N   UNL     1      -6.594   8.077  70.181  1.00  0.00    -0.037 NA 
HETATM   13  C   UNL     1      -7.195   8.360  72.657  1.00  0.00    -0.077 C  
HETATM   14  C   UNL     1      -6.098   8.373  71.556  1.00  0.00    -0.043 C  
BRANCH  11  15
HETATM   15  C   UNL     1      -9.282   7.548  73.516  1.00  0.00    -0.249 C  
BRANCH  15  16
HETATM   16  C   UNL     1     -10.646   7.553  72.873  1.00  0.00    -0.390 A  
HETATM   17  C   UNL     1     -11.405   6.387  72.819  1.00  0.00    -0.191 A  
HETATM   18  N   UNL     1     -12.569   6.254  72.138  1.00  0.00    -0.144 NA 
HETATM   19  C   UNL     1     -12.333   8.553  71.456  1.00  0.00    -0.354 A  
HETATM   20  C   UNL     1     -13.004   7.341  71.469  1.00  0.00    -0.389 A  
HETATM   21  C   UNL     1     -11.136   8.656  72.168  1.00  0.00    -0.434 A  
ENDBRANCH  15  16
ENDBRANCH  11  15
BRANCH  12  22
HETATM   22  C   UNL     1      -7.466   9.219  69.714  1.00  0.00    -0.075 C  
BRANCH  22  23
HETATM   23  C   UNL     1      -6.885  10.661  69.624  1.00  0.00    -0.124 C  
HETATM   24  O   UNL     1      -5.702  10.627  68.807  1.00  0.00    -0.041 OA 
HETATM   25  H   UNL     1      -5.348  11.508  68.753  1.00  0.00     0.000 HD 
BRANCH  23  26
HETATM   26  C   UNL     1      -7.743  11.736  68.896  1.00  0.00    -0.041 C  
HETATM   27  C   UNL     1      -8.654  11.365  67.698  1.00  0.00    -0.130 C  
HETATM   28  C   UNL     1      -9.694  12.515  67.460  1.00  0.00    -0.196 C  
HETATM   29  C   UNL     1      -7.814  11.161  66.420  1.00  0.00    -0.136 C  
HETATM   30  O   UNL     1      -6.721  11.695  66.257  1.00  0.00     0.037 OA 
HETATM   31  N   UNL     1      -8.359  10.330  65.457  1.00  0.00    -0.158 N  
HETATM   32  H   UNL     1      -9.341  10.063  65.524  1.00  0.00     0.000 HD 
BRANCH  28  33
HETATM   33  C   UNL     1     -10.702  12.783  68.577  1.00  0.00    -0.275 A  
HETATM   34  C   UNL     1     -11.099  14.087  68.902  1.00  0.00    -0.296 A  
HETATM   35  C   UNL     1     -11.227  11.727  69.339  1.00  0.00    -0.300 A  
HETATM   36  C   UNL     1     -12.138  11.967  70.387  1.00  0.00    -0.421 A  
HETATM   37  C   UNL     1     -12.009  14.327  69.948  1.00  0.00    -0.397 A  
HETATM   38  C   UNL     1     -12.530  13.265  70.687  1.00  0.00    -0.373 A  
ENDBRANCH  28  33
BRANCH  31  39
HETATM   39  C   UNL     1      -7.544   9.823  64.333  1.00  0.00    -0.135 C  
HETATM   40  C   UNL     1      -8.519   8.613  62.343  1.00  0.00    -0.194 C  
HETATM   41  C   UNL     1      -7.919   7.671  63.328  1.00  0.00    -0.102 A  
HETATM   42  H   UNL     1      -9.778  10.894  62.065  1.00  0.00     0.000 HD 
HETATM   43  C   UNL     1      -8.190  10.007  62.918  1.00  0.00    -0.153 C  
HETATM   44  O   UNL     1      -9.387  10.782  62.924  1.00  0.00    -0.267 OA 
HETATM   45  C   UNL     1      -7.862   6.281  63.214  1.00  0.00    -0.099 A  
HETATM   46  C   UNL     1      -7.206   5.559  64.210  1.00  0.00    -0.051 A  
HETATM   47  C   UNL     1      -6.607   6.223  65.285  1.00  0.00    -0.043 A  
HETATM   48  C   UNL     1      -6.684   7.614  65.403  1.00  0.00    -0.045 A  
HETATM   49  C   UNL     1      -7.360   8.333  64.414  1.00  0.00    -0.092 A  
ENDBRANCH  31  39
ENDBRANCH  23  26
ENDBRANCH  22  23
ENDBRANCH  12  22
ENDBRANCH   6   9
TORSDOF 8
ENDMDL
MODEL       40
REMARK 921   NORMALIZED FREE ENERGY PREDICTED BY IDOCK:   -6.25 KCAL/MOL
REMARK 922        TOTAL FREE ENERGY PREDICTED BY IDOCK:  -11.14 KCAL/MOL
REMARK 923 INTER-LIGAND FREE ENERGY PREDICTED BY IDOCK:   -8.80 KCAL/MOL
REMARK 924 INTRA-LIGAND FREE ENERGY PREDICTED BY IDOCK:   -2.34 KCAL/MOL
REMARK 927      BINDING AFFINITY PREDICTED BY RF-SCORE:    0.00 PKD
ROOT
HETATM    1  C   UNL     1     -13.023   9.802  70.559  1.00  0.00     0.008 C  
HETATM    2  C   UNL     1     -12.502   8.508  71.192  1.00  0.00    -0.174 C  
HETATM    3  N   UNL     1     -12.004   7.490  70.213  1.00  0.00    -0.501 N  
HETATM    4  C   UNL     1     -13.710   7.870  71.937  1.00  0.00    -0.366 C  
HETATM    5  C   UNL     1     -11.458   8.842  72.268  1.00  0.00    -0.376 C  
HETATM    6  C   UNL     1     -11.007   7.335  69.287  1.00  0.00    -0.098 C  
HETATM    7  H   UNL     1     -12.588   6.654  70.246  1.00  0.00     0.000 HD 
HETATM    8  O   UNL     1     -10.815   6.166  68.923  1.00  0.00    -0.275 OA 
ENDROOT
BRANCH   6   9
HETATM    9  C   UNL     1     -10.197   8.477  68.647  1.00  0.00    -0.197 C  
HETATM   10  C   UNL     1     -10.611   8.966  67.203  1.00  0.00    -0.231 C  
HETATM   11  N   UNL     1     -10.050  10.325  66.914  1.00  0.00    -0.211 NA 
HETATM   12  N   UNL     1      -8.721   8.298  68.762  1.00  0.00    -0.136 NA 
HETATM   13  C   UNL     1      -8.616  10.408  67.309  1.00  0.00    -0.126 C  
HETATM   14  C   UNL     1      -8.213   9.694  68.630  1.00  0.00    -0.105 C  
BRANCH  11  15
HETATM   15  C   UNL     1     -10.146  10.724  65.490  1.00  0.00    -0.274 C  
BRANCH  15  16
HETATM   16  C   UNL     1     -11.054  11.877  65.142  1.00  0.00    -0.360 A  
HETATM   17  C   UNL     1     -11.564  12.010  63.853  1.00  0.00    -0.449 A  
HETATM   18  N   UNL     1     -12.261  13.083  63.406  1.00  0.00    -0.694 NA 
HETATM   19  C   UNL     1     -12.005  14.055  65.596  1.00  0.00    -0.408 A  
HETATM   20  C   UNL     1     -12.462  14.082  64.289  1.00  0.00    -0.262 A  
HETATM   21  C   UNL     1     -11.288  12.935  66.025  1.00  0.00    -0.354 A  
ENDBRANCH  15  16
ENDBRANCH  11  15
BRANCH  12  22
HETATM   22  C   UNL     1      -8.022   7.421  67.752  1.00  0.00    -0.118 C  
BRANCH  22  23
HETATM   23  C   UNL     1      -6.927   6.415  68.214  1.00  0.00    -0.080 C  
HETATM   24  O   UNL     1      -6.964   6.326  69.648  1.00  0.00    -0.066 OA 
HETATM   25  H   UNL     1      -6.295   5.712  69.931  1.00  0.00     0.000 HD 
BRANCH  23  26
HETATM   26  C   UNL     1      -7.100   4.924  67.800  1.00  0.00    -0.062 C  
HETATM   27  C   UNL     1      -8.214   4.041  68.417  1.00  0.00    -0.088 C  
HETATM   28  C   UNL     1      -8.423   2.769  67.523  1.00  0.00    -0.103 C  
HETATM   29  C   UNL     1      -7.831   3.604  69.847  1.00  0.00    -0.050 C  
HETATM   30  O   UNL     1      -6.665   3.528  70.223  1.00  0.00    -0.032 OA 
HETATM   31  N   UNL     1      -8.881   3.305  70.697  1.00  0.00    -0.076 N  
HETATM   32  H   UNL     1      -9.817   3.182  70.311  1.00  0.00     0.000 HD 
BRANCH  28  33
HETATM   33  C   UNL     1      -8.927   2.995  66.098  1.00  0.00    -0.150 A  
HETATM   34  C   UNL     1      -9.871   3.990  65.809  1.00  0.00    -0.181 A  
HETATM   35  C   UNL     1      -8.489   2.178  65.044  1.00  0.00    -0.095 A  
HETATM   36  C   UNL     1      -8.966   2.363  63.732  1.00  0.00    -0.095 A  
HETATM   37  C   UNL     1     -10.348   4.175  64.498  1.00  0.00    -0.177 A  
HETATM   38  C   UNL     1      -9.892   3.363  63.461  1.00  0.00    -0.148 A  
ENDBRANCH  28  33
BRANCH  31  39
HETATM   39  C   UNL     1      -8.671   3.162  72.153  1.00  0.00    -0.082 C  
HETATM   40  C   UNL     1     -10.558   3.104  73.831  1.00  0.00    -0.269 C  
HETATM   41  C   UNL     1      -9.905   4.442  73.772  1.00  0.00    -0.167 A  
HETATM   42  H   UNL     1     -11.217   0.988  72.432  1.00  0.00     0.000 HD 
HETATM   43  C   UNL     1      -9.707   2.238  72.877  1.00  0.00    -0.104 C  
HETATM   44  O   UNL     1     -10.589   1.550  71.992  1.00  0.00    -0.143 OA 
HETATM   45  C   UNL     1     -10.244   5.561  74.535  1.00  0.00    -0.291 A  
HETATM   46  C   UNL     1      -9.481   6.719  74.390  1.00  0.00    -0.279 A  
HETATM   47  C   UNL     1      -8.396   6.744  73.510  1.00  0.00    -0.130 A  
HETATM   48  C   UNL     1      -8.073   5.626  72.735  1.00  0.00    -0.105 A  
HETATM   49  C   UNL     1      -8.851   4.473  72.867  1.00  0.00    -0.119 A  
ENDBRANCH  31  39
ENDBRANCH  23  26
ENDBRANCH  22  23
ENDBRANCH  12  22
ENDBRANCH   6   9
TORSDOF 8
ENDMDL
MODEL       41
REMARK 921   NORMALIZED FREE ENERGY PREDICTED BY IDOCK:   -6.25 KCAL/MOL
REMARK 922        TOTAL FREE ENERGY PREDICTED BY IDOCK:  -11.14 KCAL/MOL
REMARK 923 INTER-LIGAND FREE ENERGY PREDICTED BY IDOCK:  -11.16 KCAL/MOL
REMARK 924 INTRA-LIGAND FREE ENERGY PREDICTED BY IDOCK:    0.03 KCAL/MOL
REMARK 927      BINDING AFFINITY PREDICTED BY RF-SCORE:    0.00 PKD
ROOT
HETATM    1  C   UNL     1      -8.611  18.321  68.575  1.00  0.00    -0.323 C  
HETATM    2  C   UNL     1      -7.469  17.792  67.702  1.00  0.00    -0.201 C  
HETATM    3  N   UNL     1      -7.151  16.342  67.899  1.00  0.00    -0.127 N  
HETATM    4  C   UNL     1      -6.200  18.595  68.110  1.00  0.00    -0.206 C  
HETATM    5  C   UNL     1      -7.741  18.134  66.229  1.00  0.00    -0.290 C  
HETATM    6  C   UNL     1      -7.735  15.115  67.726  1.00  0.00    -0.149 C  
HETATM    7  H   UNL     1      -6.211  16.235  68.279  1.00  0.00     0.000 HD 
HETATM    8  O   UNL     1      -6.947  14.158  67.754  1.00  0.00    -0.146 OA 
ENDROOT
BRANCH   6   9
HETATM    9  C   UNL     1      -9.244  14.857  67.580  1.00  0.00    -0.187 C  
HETATM   10  C   UNL     1     -10.060  14.448  68.871  1.00  0.00    -0.200 C  
HETATM   11  N   UNL     1     -11.529  14.667  68.671  1.00  0.00    -0.285 NA 
HETATM   12  N   UNL     1      -9.592  13.991  66.417  1.00  0.00    -0.288 NA 
HETATM   13  C   UNL     1     -11.975  14.138  67.352  1.00  0.00    -0.404 C  
HETATM   14  C   UNL     1     -11.012  14.357  66.150  1.00  0.00    -0.320 C  
BRANCH  11  15
HETATM   15  C   UNL     1     -12.376  14.041  69.714  1.00  0.00    -0.291 C  
BRANCH  15  16
HETATM   16  C   UNL     1     -12.637  14.828  70.974  1.00  0.00    -0.401 A  
HETATM   17  C   UNL     1     -11.587  15.170  71.823  1.00  0.00    -0.408 A  
HETATM   18  N   UNL     1     -11.735  15.742  73.043  1.00  0.00    -0.413 NA 
HETATM   19  C   UNL     1     -14.117  15.693  72.681  1.00  0.00    -0.527 A  
HETATM   20  C   UNL     1     -12.999  15.987  73.444  1.00  0.00    -0.570 A  
HETATM   21  C   UNL     1     -13.929  15.103  71.429  1.00  0.00    -0.595 A  
ENDBRANCH  15  16
ENDBRANCH  11  15
BRANCH  12  22
HETATM   22  C   UNL     1      -9.491  12.493  66.581  1.00  0.00    -0.242 C  
BRANCH  22  23
HETATM   23  C   UNL     1     -10.726  11.589  66.292  1.00  0.00    -0.272 C  
HETATM   24  O   UNL     1     -10.596  11.046  64.967  1.00  0.00    -0.292 OA 
HETATM   25  H   UNL     1     -11.349  10.495  64.791  1.00  0.00     0.000 HD 
BRANCH  23  26
HETATM   26  C   UNL     1     -10.888  10.299  67.148  1.00  0.00    -0.278 C  
HETATM   27  C   UNL     1      -9.727   9.762  68.024  1.00  0.00    -0.165 C  
HETATM   28  C   UNL     1     -10.296   8.747  69.075  1.00  0.00    -0.227 C  
HETATM   29  C   UNL     1      -8.670   9.055  67.149  1.00  0.00    -0.116 C  
HETATM   30  O   UNL     1      -8.942   8.556  66.061  1.00  0.00    -0.163 OA 
HETATM   31  N   UNL     1      -7.383   9.017  67.656  1.00  0.00    -0.084 N  
HETATM   32  H   UNL     1      -7.225   9.255  68.635  1.00  0.00     0.000 HD 
BRANCH  28  33
HETATM   33  C   UNL     1     -11.272   9.296  70.115  1.00  0.00    -0.237 A  
HETATM   34  C   UNL     1     -11.942   8.446  71.005  1.00  0.00    -0.255 A  
HETATM   35  C   UNL     1     -11.557  10.670  70.178  1.00  0.00    -0.414 A  
HETATM   36  C   UNL     1     -12.473  11.183  71.116  1.00  0.00    -0.498 A  
HETATM   37  C   UNL     1     -12.858   8.958  71.943  1.00  0.00    -0.437 A  
HETATM   38  C   UNL     1     -13.119  10.327  71.999  1.00  0.00    -0.529 A  
ENDBRANCH  28  33
BRANCH  31  39
HETATM   39  C   UNL     1      -6.235   8.639  66.806  1.00  0.00    -0.059 C  
HETATM   40  C   UNL     1      -6.112   9.136  64.333  1.00  0.00    -0.071 C  
HETATM   41  C   UNL     1      -6.502   7.723  64.599  1.00  0.00    -0.044 A  
HETATM   42  H   UNL     1      -6.277  11.597  65.216  1.00  0.00     0.000 HD 
HETATM   43  C   UNL     1      -5.828   9.709  65.738  1.00  0.00    -0.055 C  
HETATM   44  O   UNL     1      -6.524  10.948  65.864  1.00  0.00    -0.119 OA 
HETATM   45  C   UNL     1      -6.769   6.745  63.640  1.00  0.00    -0.045 A  
HETATM   46  C   UNL     1      -7.064   5.453  64.072  1.00  0.00    -0.049 A  
HETATM   47  C   UNL     1      -7.074   5.151  65.437  1.00  0.00    -0.067 A  
HETATM   48  C   UNL     1      -6.825   6.139  66.394  1.00  0.00    -0.062 A  
HETATM   49  C   UNL     1      -6.549   7.438  65.957  1.00  0.00    -0.049 A  
ENDBRANCH  31  39
ENDBRANCH  23  26
ENDBRANCH  22  23
ENDBRANCH  12  22
ENDBRANCH   6   9
TORSDOF 8
ENDMDL
MODEL       42
REMARK 921   NORMALIZED FREE ENERGY PREDICTED BY IDOCK:   -6.25 KCAL/MOL
REMARK 922        TOTAL FREE ENERGY PREDICTED BY IDOCK:  -11.13 KCAL/MOL
REMARK 923 INTER-LIGAND FREE ENERGY PREDICTED BY IDOCK:   -8.89 KCAL/MOL
REMARK 924 INTRA-LIGAND FREE ENERGY PREDICTED BY IDOCK:   -2.24 KCAL/MOL
REMARK 927      BINDING AFFINITY PREDICTED BY RF-SCORE:    0.00 PKD
ROOT
HETATM    1  C   UNL     1     -13.009  14.250  65.575  1.00  0.00    -0.236 C  
HETATM    2  C   UNL     1     -11.607  14.315  64.962  1.00  0.00    -0.367 C  
HETATM    3  N   UNL     1     -10.501  14.521  65.951  1.00  0.00    -0.299 N  
HETATM    4  C   UNL     1     -11.602  15.547  64.012  1.00  0.00     0.082 C  
HETATM    5  C   UNL     1     -11.372  13.084  64.073  1.00  0.00    -0.458 C  
HETATM    6  C   UNL     1      -9.915  13.876  67.007  1.00  0.00    -0.258 C  
HETATM    7  H   UNL     1     -10.045  15.418  65.788  1.00  0.00     0.000 HD 
HETATM    8  O   UNL     1      -8.806  14.322  67.336  1.00  0.00    -0.183 OA 
ENDROOT
BRANCH   6   9
HETATM    9  C   UNL     1     -10.549  12.732  67.819  1.00  0.00    -0.221 C  
HETATM   10  C   UNL     1     -11.200  13.081  69.216  1.00  0.00    -0.199 C  
HETATM   11  N   UNL     1     -12.137  11.998  69.658  1.00  0.00    -0.264 NA 
HETATM   12  N   UNL     1      -9.692  11.515  67.903  1.00  0.00    -0.178 NA 
HETATM   13  C   UNL     1     -11.525  10.652  69.475  1.00  0.00    -0.291 C  
HETATM   14  C   UNL     1     -10.684  10.437  68.185  1.00  0.00    -0.236 C  
BRANCH  11  15
HETATM   15  C   UNL     1     -12.558  12.110  71.075  1.00  0.00    -0.263 C  
BRANCH  15  16
HETATM   16  C   UNL     1     -12.855  13.488  71.613  1.00  0.00    -0.419 A  
HETATM   17  C   UNL     1     -11.820  14.387  71.858  1.00  0.00     0.059 A  
HETATM   18  N   UNL     1     -11.969  15.584  72.476  1.00  0.00    -0.414 NA 
HETATM   19  C   UNL     1     -14.318  15.091  72.680  1.00  0.00    -0.062 A  
HETATM   20  C   UNL     1     -13.216  15.906  72.875  1.00  0.00    -0.527 A  
HETATM   21  C   UNL     1     -14.131  13.863  72.041  1.00  0.00    -0.568 A  
ENDBRANCH  15  16
ENDBRANCH  11  15
BRANCH  12  22
HETATM   22  C   UNL     1      -8.605  11.472  68.951  1.00  0.00     0.031 C  
BRANCH  22  23
HETATM   23  C   UNL     1      -7.110  11.388  68.524  1.00  0.00    -0.085 C  
HETATM   24  O   UNL     1      -6.313  11.147  69.696  1.00  0.00    -0.089 OA 
HETATM   25  H   UNL     1      -5.400  11.095  69.435  1.00  0.00     0.000 HD 
BRANCH  23  26
HETATM   26  C   UNL     1      -6.691  10.202  67.607  1.00  0.00    -0.075 C  
HETATM   27  C   UNL     1      -7.542   8.910  67.520  1.00  0.00    -0.093 C  
HETATM   28  C   UNL     1      -7.136   8.105  66.237  1.00  0.00    -0.073 C  
HETATM   29  C   UNL     1      -7.320   8.029  68.768  1.00  0.00    -0.085 C  
HETATM   30  O   UNL     1      -6.292   8.081  69.437  1.00  0.00    -0.034 OA 
HETATM   31  N   UNL     1      -8.353   7.172  69.103  1.00  0.00    -0.128 N  
HETATM   32  H   UNL     1      -9.100   7.003  68.430  1.00  0.00     0.000 HD 
BRANCH  28  33
HETATM   33  C   UNL     1      -7.400   8.770  64.886  1.00  0.00    -0.093 A  
HETATM   34  C   UNL     1      -8.689   9.177  64.515  1.00  0.00    -0.192 A  
HETATM   35  C   UNL     1      -6.361   8.951  63.959  1.00  0.00    -0.076 A  
HETATM   36  C   UNL     1      -6.599   9.540  62.702  1.00  0.00    -0.098 A  
HETATM   37  C   UNL     1      -8.927   9.766  63.259  1.00  0.00    -0.274 A  
HETATM   38  C   UNL     1      -7.881   9.949  62.356  1.00  0.00    -0.133 A  
ENDBRANCH  28  33
BRANCH  31  39
HETATM   39  C   UNL     1      -8.395   6.499  70.418  1.00  0.00    -0.127 C  
HETATM   40  C   UNL     1      -9.837   4.485  70.905  1.00  0.00    -0.269 C  
HETATM   41  C   UNL     1     -10.443   5.742  71.424  1.00  0.00    -0.296 A  
HETATM   42  H   UNL     1      -8.361   3.454  69.001  1.00  0.00     0.000 HD 
HETATM   43  C   UNL     1      -8.468   4.937  70.354  1.00  0.00    -0.096 C  
HETATM   44  O   UNL     1      -8.317   4.402  69.040  1.00  0.00    -0.078 OA 
HETATM   45  C   UNL     1     -11.653   5.855  72.111  1.00  0.00    -0.314 A  
HETATM   46  C   UNL     1     -12.038   7.111  72.577  1.00  0.00    -0.046 A  
HETATM   47  C   UNL     1     -11.217   8.223  72.368  1.00  0.00    -0.451 A  
HETATM   48  C   UNL     1     -10.017   8.108  71.662  1.00  0.00    -0.252 A  
HETATM   49  C   UNL     1      -9.643   6.851  71.179  1.00  0.00    -0.167 A  
ENDBRANCH  31  39
ENDBRANCH  23  26
ENDBRANCH  22  23
ENDBRANCH  12  22
ENDBRANCH   6   9
TORSDOF 8
ENDMDL
MODEL       43
REMARK 921   NORMALIZED FREE ENERGY PREDICTED BY IDOCK:   -6.22 KCAL/MOL
REMARK 922        TOTAL FREE ENERGY PREDICTED BY IDOCK:  -11.09 KCAL/MOL
REMARK 923 INTER-LIGAND FREE ENERGY PREDICTED BY IDOCK:   -8.60 KCAL/MOL
REMARK 924 INTRA-LIGAND FREE ENERGY PREDICTED BY IDOCK:   -2.49 KCAL/MOL
REMARK 927      BINDING AFFINITY PREDICTED BY RF-SCORE:    0.00 PKD
ROOT
HETATM    1  C   UNL     1     -12.011  13.279  66.031  1.00  0.00    -0.473 C  
HETATM    2  C   UNL     1     -11.674  12.771  64.625  1.00  0.00    -0.355 C  
HETATM    3  N   UNL     1     -10.369  12.042  64.521  1.00  0.00    -0.283 N  
HETATM    4  C   UNL     1     -11.564  14.031  63.720  1.00  0.00     0.054 C  
HETATM    5  C   UNL     1     -12.848  11.946  64.077  1.00  0.00    -0.282 C  
HETATM    6  C   UNL     1      -9.776  10.898  64.983  1.00  0.00    -0.267 C  
HETATM    7  H   UNL     1      -9.725  12.557  63.921  1.00  0.00     0.000 HD 
HETATM    8  O   UNL     1      -8.754  10.559  64.367  1.00  0.00    -0.183 OA 
ENDROOT
BRANCH   6   9
HETATM    9  C   UNL     1     -10.234  10.085  66.206  1.00  0.00    -0.215 C  
HETATM   10  C   UNL     1     -10.274  10.809  67.610  1.00  0.00    -0.189 C  
HETATM   11  N   UNL     1     -11.137  10.057  68.578  1.00  0.00    -0.203 NA 
HETATM   12  N   UNL     1      -9.596   8.741  66.302  1.00  0.00    -0.243 NA 
HETATM   13  C   UNL     1     -10.840   8.597  68.539  1.00  0.00     0.053 C  
HETATM   14  C   UNL     1     -10.566   7.978  67.139  1.00  0.00    -0.297 C  
BRANCH  11  15
HETATM   15  C   UNL     1     -10.993  10.505  69.984  1.00  0.00    -0.286 C  
BRANCH  15  16
HETATM   16  C   UNL     1     -11.938  11.572  70.481  1.00  0.00    -0.439 A  
HETATM   17  C   UNL     1     -11.890  12.859  69.951  1.00  0.00    -0.303 A  
HETATM   18  N   UNL     1     -12.589  13.917  70.431  1.00  0.00    -0.312 NA 
HETATM   19  C   UNL     1     -13.505  12.444  72.104  1.00  0.00    -0.481 A  
HETATM   20  C   UNL     1     -13.378  13.684  71.499  1.00  0.00    -0.297 A  
HETATM   21  C   UNL     1     -12.770  11.375  71.586  1.00  0.00    -0.427 A  
ENDBRANCH  15  16
ENDBRANCH  11  15
BRANCH  12  22
HETATM   22  C   UNL     1      -8.222   8.639  66.921  1.00  0.00    -0.105 C  
BRANCH  22  23
HETATM   23  C   UNL     1      -7.066   7.935  66.151  1.00  0.00    -0.062 C  
HETATM   24  O   UNL     1      -5.820   8.289  66.773  1.00  0.00    -0.046 OA 
HETATM   25  H   UNL     1      -5.114   7.860  66.303  1.00  0.00     0.000 HD 
BRANCH  23  26
HETATM   26  C   UNL     1      -7.014   6.380  66.199  1.00  0.00    -0.066 C  
HETATM   27  C   UNL     1      -7.864   5.576  67.216  1.00  0.00    -0.101 C  
HETATM   28  C   UNL     1      -7.945   4.079  66.757  1.00  0.00    -0.097 C  
HETATM   29  C   UNL     1      -7.236   5.646  68.624  1.00  0.00    -0.078 C  
HETATM   30  O   UNL     1      -6.038   5.850  68.802  1.00  0.00    -0.022 OA 
HETATM   31  N   UNL     1      -8.102   5.473  69.689  1.00  0.00    -0.099 N  
HETATM   32  H   UNL     1      -9.040   5.111  69.517  1.00  0.00     0.000 HD 
BRANCH  28  33
HETATM   33  C   UNL     1      -8.652   3.795  65.431  1.00  0.00    -0.114 A  
HETATM   34  C   UNL     1      -9.965   4.226  65.200  1.00  0.00    -0.215 A  
HETATM   35  C   UNL     1      -8.017   3.052  64.423  1.00  0.00    -0.082 A  
HETATM   36  C   UNL     1      -8.669   2.764  63.209  1.00  0.00    -0.085 A  
HETATM   37  C   UNL     1     -10.617   3.939  63.987  1.00  0.00    -0.245 A  
HETATM   38  C   UNL     1      -9.967   3.211  62.991  1.00  0.00    -0.114 A  
ENDBRANCH  28  33
BRANCH  31  39
HETATM   39  C   UNL     1      -7.694   5.804  71.070  1.00  0.00    -0.101 C  
HETATM   40  C   UNL     1      -8.303   4.396  73.076  1.00  0.00    -0.095 C  
HETATM   41  C   UNL     1      -9.180   5.593  72.948  1.00  0.00    -0.135 A  
HETATM   42  H   UNL     1      -6.932   2.603  71.745  1.00  0.00     0.000 HD 
HETATM   43  C   UNL     1      -7.271   4.574  71.942  1.00  0.00    -0.061 C  
HETATM   44  O   UNL     1      -7.189   3.349  71.216  1.00  0.00    -0.032 OA 
HETATM   45  C   UNL     1     -10.222   5.950  73.806  1.00  0.00    -0.246 A  
HETATM   46  C   UNL     1     -10.902   7.143  73.564  1.00  0.00    -0.296 A  
HETATM   47  C   UNL     1     -10.533   7.962  72.494  1.00  0.00    -0.363 A  
HETATM   48  C   UNL     1      -9.502   7.589  71.626  1.00  0.00    -0.170 A  
HETATM   49  C   UNL     1      -8.835   6.383  71.859  1.00  0.00    -0.138 A  
ENDBRANCH  31  39
ENDBRANCH  23  26
ENDBRANCH  22  23
ENDBRANCH  12  22
ENDBRANCH   6   9
TORSDOF 8
ENDMDL
MODEL       44
REMARK 921   NORMALIZED FREE ENERGY PREDICTED BY IDOCK:   -6.09 KCAL/MOL
REMARK 922        TOTAL FREE ENERGY PREDICTED BY IDOCK:  -10.90 KCAL/MOL
REMARK 923 INTER-LIGAND FREE ENERGY PREDICTED BY IDOCK:   -8.48 KCAL/MOL
REMARK 924 INTRA-LIGAND FREE ENERGY PREDICTED BY IDOCK:   -2.42 KCAL/MOL
REMARK 927      BINDING AFFINITY PREDICTED BY RF-SCORE:    0.00 PKD
ROOT
HETATM    1  C   UNL     1      -6.236   7.854  63.575  1.00  0.00    -0.063 C  
HETATM    2  C   UNL     1      -7.759   7.822  63.739  1.00  0.00    -0.123 C  
HETATM    3  N   UNL     1      -8.333   6.461  63.989  1.00  0.00    -0.327 N  
HETATM    4  C   UNL     1      -8.353   8.324  62.391  1.00  0.00    -0.160 C  
HETATM    5  C   UNL     1      -8.187   8.841  64.806  1.00  0.00    -0.163 C  
HETATM    6  C   UNL     1      -8.297   5.475  64.938  1.00  0.00    -0.142 C  
HETATM    7  H   UNL     1      -8.934   6.184  63.214  1.00  0.00     0.000 HD 
HETATM    8  O   UNL     1      -9.198   4.628  64.840  1.00  0.00    -0.155 OA 
ENDROOT
BRANCH   6   9
HETATM    9  C   UNL     1      -7.219   5.318  66.024  1.00  0.00    -0.073 C  
HETATM   10  C   UNL     1      -7.429   4.208  67.129  1.00  0.00    -0.073 C  
HETATM   11  N   UNL     1      -6.138   3.882  67.817  1.00  0.00    -0.031 NA 
HETATM   12  N   UNL     1      -6.784   6.612  66.625  1.00  0.00    -0.055 NA 
HETATM   13  C   UNL     1      -5.399   5.122  68.187  1.00  0.00    -0.011 C  
HETATM   14  C   UNL     1      -5.429   6.286  67.156  1.00  0.00    -0.009 C  
BRANCH  11  15
HETATM   15  C   UNL     1      -6.301   3.074  69.049  1.00  0.00    -0.029 C  
BRANCH  15  16
HETATM   16  C   UNL     1      -6.445   3.810  70.358  1.00  0.00    -0.032 A  
HETATM   17  C   UNL     1      -5.608   3.511  71.430  1.00  0.00    -0.008 A  
HETATM   18  N   UNL     1      -5.754   4.007  72.684  1.00  0.00    -0.004 NA 
HETATM   19  C   UNL     1      -7.681   5.216  71.890  1.00  0.00    -0.109 A  
HETATM   20  C   UNL     1      -6.790   4.846  72.884  1.00  0.00    -0.071 A  
HETATM   21  C   UNL     1      -7.504   4.686  70.610  1.00  0.00    -0.053 A  
ENDBRANCH  15  16
ENDBRANCH  11  15
BRANCH  12  22
HETATM   22  C   UNL     1      -7.618   7.206  67.734  1.00  0.00    -0.111 C  
BRANCH  22  23
HETATM   23  C   UNL     1      -7.035   8.337  68.632  1.00  0.00    -0.068 C  
HETATM   24  O   UNL     1      -6.859   9.515  67.828  1.00  0.00    -0.076 OA 
HETATM   25  H   UNL     1      -6.503  10.205  68.376  1.00  0.00     0.000 HD 
BRANCH  23  26
HETATM   26  C   UNL     1      -7.933   8.873  69.786  1.00  0.00    -0.100 C  
HETATM   27  C   UNL     1      -9.345   9.448  69.508  1.00  0.00    -0.187 C  
HETATM   28  C   UNL     1     -10.159   9.496  70.847  1.00  0.00    -0.330 C  
HETATM   29  C   UNL     1      -9.244  10.871  68.919  1.00  0.00    -0.160 C  
HETATM   30  O   UNL     1      -8.278  11.601  69.120  1.00  0.00     0.041 OA 
HETATM   31  N   UNL     1     -10.308  11.286  68.137  1.00  0.00    -0.180 N  
HETATM   32  H   UNL     1     -11.176  10.750  68.150  1.00  0.00     0.000 HD 
BRANCH  28  33
HETATM   33  C   UNL     1     -10.470   8.159  71.521  1.00  0.00    -0.276 A  
HETATM   34  C   UNL     1     -10.963   7.072  70.787  1.00  0.00    -0.285 A  
HETATM   35  C   UNL     1     -10.312   8.000  72.906  1.00  0.00    -0.397 A  
HETATM   36  C   UNL     1     -10.619   6.780  73.540  1.00  0.00    -0.358 A  
HETATM   37  C   UNL     1     -11.269   5.853  71.419  1.00  0.00    -0.285 A  
HETATM   38  C   UNL     1     -11.094   5.708  72.795  1.00  0.00    -0.334 A  
ENDBRANCH  28  33
BRANCH  31  39
HETATM   39  C   UNL     1     -10.210  12.490  67.286  1.00  0.00    -0.216 C  
HETATM   40  C   UNL     1     -12.158  14.028  66.822  1.00  0.00    -0.480 C  
HETATM   41  C   UNL     1     -11.906  13.092  65.691  1.00  0.00    -0.445 A  
HETATM   42  H   UNL     1     -12.054  14.307  69.425  1.00  0.00     0.000 HD 
HETATM   43  C   UNL     1     -11.008  13.731  67.809  1.00  0.00    -0.256 C  
HETATM   44  O   UNL     1     -11.570  13.553  69.108  1.00  0.00    -0.269 OA 
HETATM   45  C   UNL     1     -12.619  13.032  64.493  1.00  0.00    -0.387 A  
HETATM   46  C   UNL     1     -12.203  12.127  63.517  1.00  0.00    -0.670 A  
HETATM   47  C   UNL     1     -11.088  11.314  63.737  1.00  0.00    -0.313 A  
HETATM   48  C   UNL     1     -10.390  11.365  64.947  1.00  0.00    -0.347 A  
HETATM   49  C   UNL     1     -10.821  12.258  65.931  1.00  0.00    -0.306 A  
ENDBRANCH  31  39
ENDBRANCH  23  26
ENDBRANCH  22  23
ENDBRANCH  12  22
ENDBRANCH   6   9
TORSDOF 8
ENDMDL
MODEL       45
REMARK 921   NORMALIZED FREE ENERGY PREDICTED BY IDOCK:   -6.00 KCAL/MOL
REMARK 922        TOTAL FREE ENERGY PREDICTED BY IDOCK:  -10.77 KCAL/MOL
REMARK 923 INTER-LIGAND FREE ENERGY PREDICTED BY IDOCK:   -9.09 KCAL/MOL
REMARK 924 INTRA-LIGAND FREE ENERGY PREDICTED BY IDOCK:   -1.68 KCAL/MOL
REMARK 927      BINDING AFFINITY PREDICTED BY RF-SCORE:    0.00 PKD
ROOT
HETATM    1  C   UNL     1     -14.227   7.564  71.239  1.00  0.00    -0.429 C  
HETATM    2  C   UNL     1     -13.375   8.638  71.923  1.00  0.00    -0.382 C  
HETATM    3  N   UNL     1     -12.293   8.105  72.810  1.00  0.00    -0.613 N  
HETATM    4  C   UNL     1     -14.344   9.452  72.828  1.00  0.00     0.254 C  
HETATM    5  C   UNL     1     -12.837   9.621  70.872  1.00  0.00    -0.265 C  
HETATM    6  C   UNL     1     -11.140   7.371  72.720  1.00  0.00    -0.346 C  
HETATM    7  H   UNL     1     -12.468   8.370  73.779  1.00  0.00     0.000 HD 
HETATM    8  O   UNL     1     -10.403   7.439  73.716  1.00  0.00    -0.348 OA 
ENDROOT
BRANCH   6   9
HETATM    9  C   UNL     1     -10.754   6.453  71.548  1.00  0.00    -0.238 C  
HETATM   10  C   UNL     1      -9.549   5.450  71.751  1.00  0.00    -0.149 C  
HETATM   11  N   UNL     1      -9.585   4.353  70.730  1.00  0.00    -0.173 NA 
HETATM   12  N   UNL     1     -10.661   7.162  70.240  1.00  0.00    -0.221 NA 
HETATM   13  C   UNL     1      -9.834   4.898  69.366  1.00  0.00    -0.211 C  
HETATM   14  C   UNL     1     -10.862   6.060  69.256  1.00  0.00    -0.358 C  
BRANCH  11  15
HETATM   15  C   UNL     1      -8.341   3.549  70.670  1.00  0.00    -0.067 C  
BRANCH  15  16
HETATM   16  C   UNL     1      -7.258   4.000  69.722  1.00  0.00    -0.042 A  
HETATM   17  C   UNL     1      -6.592   5.204  69.933  1.00  0.00    -0.036 A  
HETATM   18  N   UNL     1      -5.715   5.764  69.064  1.00  0.00    -0.011 NA 
HETATM   19  C   UNL     1      -6.091   3.883  67.606  1.00  0.00    -0.032 A  
HETATM   20  C   UNL     1      -5.488   5.090  67.918  1.00  0.00    -0.012 A  
HETATM   21  C   UNL     1      -6.990   3.334  68.523  1.00  0.00    -0.049 A  
ENDBRANCH  15  16
ENDBRANCH  11  15
BRANCH  12  22
HETATM   22  C   UNL     1      -9.382   7.893  69.908  1.00  0.00    -0.156 C  
BRANCH  22  23
HETATM   23  C   UNL     1      -9.423   9.190  69.046  1.00  0.00    -0.152 C  
HETATM   24  O   UNL     1      -8.104   9.761  69.016  1.00  0.00    -0.091 OA 
HETATM   25  H   UNL     1      -8.129  10.552  68.490  1.00  0.00     0.000 HD 
BRANCH  23  26
HETATM   26  C   UNL     1      -9.736   9.035  67.530  1.00  0.00    -0.206 C  
HETATM   27  C   UNL     1      -9.452  10.182  66.527  1.00  0.00    -0.214 C  
HETATM   28  C   UNL     1      -9.450   9.607  65.067  1.00  0.00    -0.312 C  
HETATM   29  C   UNL     1     -10.528  11.283  66.642  1.00  0.00    -0.247 C  
HETATM   30  O   UNL     1     -11.660  11.057  67.060  1.00  0.00    -0.427 OA 
HETATM   31  N   UNL     1     -10.146  12.554  66.251  1.00  0.00    -0.245 N  
HETATM   32  H   UNL     1      -9.280  12.676  65.726  1.00  0.00     0.000 HD 
BRANCH  28  33
HETATM   33  C   UNL     1      -8.366   8.586  64.723  1.00  0.00    -0.163 A  
HETATM   34  C   UNL     1      -8.416   7.276  65.217  1.00  0.00    -0.067 A  
HETATM   35  C   UNL     1      -7.262   8.949  63.935  1.00  0.00    -0.096 A  
HETATM   36  C   UNL     1      -6.245   8.023  63.632  1.00  0.00    -0.067 A  
HETATM   37  C   UNL     1      -7.401   6.350  64.915  1.00  0.00    -0.079 A  
HETATM   38  C   UNL     1      -6.318   6.724  64.120  1.00  0.00    -0.035 A  
ENDBRANCH  28  33
BRANCH  31  39
HETATM   39  C   UNL     1     -10.969  13.736  66.581  1.00  0.00    -0.296 C  
HETATM   40  C   UNL     1     -10.942  15.870  65.232  1.00  0.00    -0.334 C  
HETATM   41  C   UNL     1     -10.117  15.982  66.467  1.00  0.00    -0.297 A  
HETATM   42  H   UNL     1     -11.768  14.236  63.357  1.00  0.00     0.000 HD 
HETATM   43  C   UNL     1     -11.587  14.472  65.345  1.00  0.00    -0.355 C  
HETATM   44  O   UNL     1     -11.393  13.789  64.108  1.00  0.00    -0.353 OA 
HETATM   45  C   UNL     1      -9.402  17.105  66.885  1.00  0.00    -0.260 A  
HETATM   46  C   UNL     1      -8.730  17.049  68.104  1.00  0.00    -0.233 A  
HETATM   47  C   UNL     1      -8.789  15.894  68.890  1.00  0.00    -0.225 A  
HETATM   48  C   UNL     1      -9.490  14.766  68.457  1.00  0.00    -0.214 A  
HETATM   49  C   UNL     1     -10.147  14.818  67.225  1.00  0.00    -0.236 A  
ENDBRANCH  31  39
ENDBRANCH  23  26
ENDBRANCH  22  23
ENDBRANCH  12  22
ENDBRANCH   6   9
TORSDOF 8
ENDMDL
MODEL       46
REMARK 921   NORMALIZED FREE ENERGY PREDICTED BY IDOCK:   -5.97 KCAL/MOL
REMARK 922        TOTAL FREE ENERGY PREDICTED BY IDOCK:  -10.73 KCAL/MOL
REMARK 923 INTER-LIGAND FREE ENERGY PREDICTED BY IDOCK:   -7.28 KCAL/MOL
REMARK 924 INTRA-LIGAND FREE ENERGY PREDICTED BY IDOCK:   -3.45 KCAL/MOL
REMARK 927      BINDING AFFINITY PREDICTED BY RF-SCORE:    0.00 PKD
ROOT
HETATM    1  C   UNL     1     -10.330  14.760  65.238  1.00  0.00    -0.425 C  
HETATM    2  C   UNL     1     -11.394  13.662  65.341  1.00  0.00    -0.301 C  
HETATM    3  N   UNL     1     -10.912  12.290  64.985  1.00  0.00    -0.293 N  
HETATM    4  C   UNL     1     -12.505  14.034  64.317  1.00  0.00    -0.303 C  
HETATM    5  C   UNL     1     -12.052  13.708  66.729  1.00  0.00    -0.445 C  
HETATM    6  C   UNL     1     -10.022  11.350  65.433  1.00  0.00    -0.245 C  
HETATM    7  H   UNL     1     -11.394  11.951  64.153  1.00  0.00     0.000 HD 
HETATM    8  O   UNL     1     -10.194  10.212  64.970  1.00  0.00    -0.309 OA 
ENDROOT
BRANCH   6   9
HETATM    9  C   UNL     1      -8.836  11.619  66.375  1.00  0.00    -0.182 C  
HETATM   10  C   UNL     1      -7.502  10.803  66.147  1.00  0.00    -0.129 C  
HETATM   11  N   UNL     1      -6.341  11.471  66.818  1.00  0.00    -0.144 NA 
HETATM   12  N   UNL     1      -9.215  11.655  67.817  1.00  0.00    -0.173 NA 
HETATM   13  C   UNL     1      -6.691  11.887  68.206  1.00  0.00    -0.063 C  
HETATM   14  C   UNL     1      -8.118  12.465  68.422  1.00  0.00    -0.143 C  
BRANCH  11  15
HETATM   15  C   UNL     1      -5.126  10.625  66.898  1.00  0.00    -0.044 C  
BRANCH  15  16
HETATM   16  C   UNL     1      -5.287   9.208  67.391  1.00  0.00    -0.037 A  
HETATM   17  C   UNL     1      -5.255   8.928  68.755  1.00  0.00    -0.033 A  
HETATM   18  N   UNL     1      -5.241   7.681  69.286  1.00  0.00    -0.015 NA 
HETATM   19  C   UNL     1      -5.294   6.815  67.038  1.00  0.00    -0.013 A  
HETATM   20  C   UNL     1      -5.258   6.654  68.413  1.00  0.00    -0.011 A  
HETATM   21  C   UNL     1      -5.306   8.114  66.523  1.00  0.00    -0.028 A  
ENDBRANCH  15  16
ENDBRANCH  11  15
BRANCH  12  22
HETATM   22  C   UNL     1      -9.332  10.347  68.563  1.00  0.00    -0.160 C  
BRANCH  22  23
HETATM   23  C   UNL     1     -10.735   9.747  68.875  1.00  0.00    -0.217 C  
HETATM   24  O   UNL     1     -11.348   9.350  67.637  1.00  0.00    -0.397 OA 
HETATM   25  H   UNL     1     -12.205   8.984  67.827  1.00  0.00     0.000 HD 
BRANCH  23  26
HETATM   26  C   UNL     1     -10.785   8.424  69.692  1.00  0.00    -0.201 C  
HETATM   27  C   UNL     1      -9.837   7.241  69.369  1.00  0.00    -0.163 C  
HETATM   28  C   UNL     1      -9.805   6.253  70.586  1.00  0.00    -0.213 C  
HETATM   29  C   UNL     1     -10.318   6.488  68.110  1.00  0.00    -0.187 C  
HETATM   30  O   UNL     1     -11.491   6.493  67.748  1.00  0.00    -0.146 OA 
HETATM   31  N   UNL     1      -9.348   5.805  67.399  1.00  0.00    -0.111 N  
HETATM   32  H   UNL     1      -8.433   5.650  67.822  1.00  0.00     0.000 HD 
BRANCH  28  33
HETATM   33  C   UNL     1      -9.237   6.786  71.901  1.00  0.00    -0.142 A  
HETATM   34  C   UNL     1      -9.922   6.618  73.112  1.00  0.00    -0.201 A  
HETATM   35  C   UNL     1      -8.028   7.501  71.923  1.00  0.00    -0.100 A  
HETATM   36  C   UNL     1      -7.509   8.018  73.126  1.00  0.00    -0.171 A  
HETATM   37  C   UNL     1      -9.403   7.134  74.314  1.00  0.00    -0.246 A  
HETATM   38  C   UNL     1      -8.195   7.831  74.319  1.00  0.00    -0.286 A  
ENDBRANCH  28  33
BRANCH  31  39
HETATM   39  C   UNL     1      -9.613   5.295  66.037  1.00  0.00    -0.149 C  
HETATM   40  C   UNL     1      -8.438   3.291  65.048  1.00  0.00    -0.099 C  
HETATM   41  C   UNL     1      -7.860   4.573  64.558  1.00  0.00    -0.089 A  
HETATM   42  H   UNL     1      -9.578   2.105  67.088  1.00  0.00     0.000 HD 
HETATM   43  C   UNL     1      -9.637   3.735  65.913  1.00  0.00    -0.160 C  
HETATM   44  O   UNL     1      -9.563   3.052  67.163  1.00  0.00    -0.137 OA 
HETATM   45  C   UNL     1      -6.805   4.713  63.656  1.00  0.00    -0.043 A  
HETATM   46  C   UNL     1      -6.432   5.998  63.262  1.00  0.00    -0.029 A  
HETATM   47  C   UNL     1      -7.117   7.113  63.755  1.00  0.00    -0.068 A  
HETATM   48  C   UNL     1      -8.160   6.968  64.674  1.00  0.00    -0.083 A  
HETATM   49  C   UNL     1      -8.518   5.679  65.082  1.00  0.00    -0.144 A  
ENDBRANCH  31  39
ENDBRANCH  23  26
ENDBRANCH  22  23
ENDBRANCH  12  22
ENDBRANCH   6   9
TORSDOF 8
ENDMDL
MODEL       47
REMARK 921   NORMALIZED FREE ENERGY PREDICTED BY IDOCK:   -5.90 KCAL/MOL
REMARK 922        TOTAL FREE ENERGY PREDICTED BY IDOCK:  -10.63 KCAL/MOL
REMARK 923 INTER-LIGAND FREE ENERGY PREDICTED BY IDOCK:   -8.30 KCAL/MOL
REMARK 924 INTRA-LIGAND FREE ENERGY PREDICTED BY IDOCK:   -2.33 KCAL/MOL
REMARK 927      BINDING AFFINITY PREDICTED BY RF-SCORE:    0.00 PKD
ROOT
HETATM    1  C   UNL     1     -11.278   6.773  67.072  1.00  0.00    -0.222 C  
HETATM    2  C   UNL     1      -9.773   6.845  66.790  1.00  0.00    -0.177 C  
HETATM    3  N   UNL     1      -9.367   7.926  65.837  1.00  0.00    -0.405 N  
HETATM    4  C   UNL     1      -9.388   5.489  66.131  1.00  0.00    -0.169 C  
HETATM    5  C   UNL     1      -9.001   6.915  68.116  1.00  0.00    -0.123 C  
HETATM    6  C   UNL     1      -9.359   9.293  65.755  1.00  0.00    -0.244 C  
HETATM    7  H   UNL     1      -8.975   7.519  64.988  1.00  0.00     0.000 HD 
HETATM    8  O   UNL     1      -8.628   9.754  64.866  1.00  0.00    -0.145 OA 
ENDROOT
BRANCH   6   9
HETATM    9  C   UNL     1     -10.215  10.245  66.609  1.00  0.00    -0.233 C  
HETATM   10  C   UNL     1     -10.870  11.496  65.901  1.00  0.00    -0.260 C  
HETATM   11  N   UNL     1     -11.996  12.050  66.720  1.00  0.00    -0.610 NA 
HETATM   12  N   UNL     1      -9.579  10.620  67.904  1.00  0.00    -0.160 NA 
HETATM   13  C   UNL     1     -11.609  12.166  68.154  1.00  0.00    -0.337 C  
HETATM   14  C   UNL     1     -10.749  11.011  68.741  1.00  0.00    -0.203 C  
BRANCH  11  15
HETATM   15  C   UNL     1     -12.465  13.383  66.273  1.00  0.00    -0.276 C  
BRANCH  15  16
HETATM   16  C   UNL     1     -11.514  14.546  66.416  1.00  0.00    -0.362 A  
HETATM   17  C   UNL     1     -11.502  15.308  67.582  1.00  0.00    -0.280 A  
HETATM   18  N   UNL     1     -10.796  16.453  67.748  1.00  0.00    -0.328 NA 
HETATM   19  C   UNL     1      -9.998  16.187  65.490  1.00  0.00    -0.251 A  
HETATM   20  C   UNL     1     -10.063  16.867  66.695  1.00  0.00    -0.304 A  
HETATM   21  C   UNL     1     -10.738  15.011  65.351  1.00  0.00    -0.389 A  
ENDBRANCH  15  16
ENDBRANCH  11  15
BRANCH  12  22
HETATM   22  C   UNL     1      -8.570  11.743  67.911  1.00  0.00    -0.156 C  
BRANCH  22  23
HETATM   23  C   UNL     1      -7.290  11.641  68.792  1.00  0.00    -0.118 C  
HETATM   24  O   UNL     1      -7.637  10.995  70.028  1.00  0.00    -0.369 OA 
HETATM   25  H   UNL     1      -6.856  10.932  70.567  1.00  0.00     0.000 HD 
BRANCH  23  26
HETATM   26  C   UNL     1      -6.133  10.736  68.276  1.00  0.00    -0.046 C  
HETATM   27  C   UNL     1      -6.220   9.191  68.359  1.00  0.00    -0.053 C  
HETATM   28  C   UNL     1      -5.153   8.559  67.399  1.00  0.00    -0.033 C  
HETATM   29  C   UNL     1      -5.959   8.710  69.802  1.00  0.00    -0.028 C  
HETATM   30  O   UNL     1      -5.301   9.363  70.606  1.00  0.00    -0.032 OA 
HETATM   31  N   UNL     1      -6.518   7.493  70.150  1.00  0.00    -0.034 N  
HETATM   32  H   UNL     1      -6.883   6.883  69.419  1.00  0.00     0.000 HD 
BRANCH  28  33
HETATM   33  C   UNL     1      -5.320   8.823  65.902  1.00  0.00    -0.037 A  
HETATM   34  C   UNL     1      -5.626   7.787  65.010  1.00  0.00    -0.037 A  
HETATM   35  C   UNL     1      -5.127  10.109  65.374  1.00  0.00    -0.060 A  
HETATM   36  C   UNL     1      -5.254  10.358  63.994  1.00  0.00    -0.146 A  
HETATM   37  C   UNL     1      -5.754   8.034  63.631  1.00  0.00    -0.058 A  
HETATM   38  C   UNL     1      -5.571   9.321  63.125  1.00  0.00    -0.079 A  
ENDBRANCH  28  33
BRANCH  31  39
HETATM   39  C   UNL     1      -6.594   7.060  71.561  1.00  0.00    -0.048 C  
HETATM   40  C   UNL     1      -7.543   4.835  72.285  1.00  0.00    -0.085 C  
HETATM   41  C   UNL     1      -8.519   5.945  72.473  1.00  0.00    -0.116 A  
HETATM   42  H   UNL     1      -5.577   3.952  70.795  1.00  0.00     0.000 HD 
HETATM   43  C   UNL     1      -6.262   5.550  71.804  1.00  0.00    -0.038 C  
HETATM   44  O   UNL     1      -5.779   4.869  70.647  1.00  0.00    -0.015 OA 
HETATM   45  C   UNL     1      -9.810   5.832  72.991  1.00  0.00    -0.179 A  
HETATM   46  C   UNL     1     -10.566   6.992  73.152  1.00  0.00    -0.350 A  
HETATM   47  C   UNL     1     -10.028   8.237  72.813  1.00  0.00    -0.333 A  
HETATM   48  C   UNL     1      -8.741   8.342  72.277  1.00  0.00    -0.277 A  
HETATM   49  C   UNL     1      -7.993   7.175  72.098  1.00  0.00    -0.093 A  
ENDBRANCH  31  39
ENDBRANCH  23  26
ENDBRANCH  22  23
ENDBRANCH  12  22
ENDBRANCH   6   9
TORSDOF 8
ENDMDL
MODEL       48
REMARK 921   NORMALIZED FREE ENERGY PREDICTED BY IDOCK:   -5.88 KCAL/MOL
REMARK 922        TOTAL FREE ENERGY PREDICTED BY IDOCK:  -10.59 KCAL/MOL
REMARK 923 INTER-LIGAND FREE ENERGY PREDICTED BY IDOCK:   -7.56 KCAL/MOL
REMARK 924 INTRA-LIGAND FREE ENERGY PREDICTED BY IDOCK:   -3.03 KCAL/MOL
REMARK 927      BINDING AFFINITY PREDICTED BY RF-SCORE:    0.00 PKD
ROOT
HETATM    1  C   UNL     1      -9.008   4.826  63.620  1.00  0.00    -0.072 C  
HETATM    2  C   UNL     1      -7.507   4.859  63.926  1.00  0.00    -0.060 C  
HETATM    3  N   UNL     1      -6.810   6.114  63.500  1.00  0.00    -0.039 N  
HETATM    4  C   UNL     1      -6.872   3.690  63.120  1.00  0.00    -0.036 C  
HETATM    5  C   UNL     1      -7.273   4.537  65.410  1.00  0.00    -0.068 C  
HETATM    6  C   UNL     1      -6.809   7.453  63.785  1.00  0.00    -0.053 C  
HETATM    7  H   UNL     1      -6.125   5.907  62.773  1.00  0.00     0.000 HD 
HETATM    8  O   UNL     1      -5.816   8.071  63.371  1.00  0.00    -0.061 OA 
ENDROOT
BRANCH   6   9
HETATM    9  C   UNL     1      -7.942   8.217  64.492  1.00  0.00    -0.146 C  
HETATM   10  C   UNL     1      -7.941   9.795  64.411  1.00  0.00    -0.145 C  
HETATM   11  N   UNL     1      -9.293  10.352  64.740  1.00  0.00    -0.226 NA 
HETATM   12  N   UNL     1      -8.208   7.741  65.880  1.00  0.00    -0.120 NA 
HETATM   13  C   UNL     1      -9.857   9.703  65.957  1.00  0.00    -0.274 C  
HETATM   14  C   UNL     1      -9.617   8.174  66.108  1.00  0.00    -0.118 C  
BRANCH  11  15
HETATM   15  C   UNL     1      -9.300  11.816  64.970  1.00  0.00     0.017 C  
BRANCH  15  16
HETATM   16  C   UNL     1     -10.634  12.519  64.987  1.00  0.00    -0.329 A  
HETATM   17  C   UNL     1     -11.607  12.207  64.040  1.00  0.00    -0.423 A  
HETATM   18  N   UNL     1     -12.772  12.882  63.880  1.00  0.00    -0.698 NA 
HETATM   19  C   UNL     1     -12.087  14.323  65.685  1.00  0.00    -0.399 A  
HETATM   20  C   UNL     1     -12.982  13.927  64.705  1.00  0.00     0.065 A  
HETATM   21  C   UNL     1     -10.895  13.607  65.823  1.00  0.00    -0.274 A  
ENDBRANCH  15  16
ENDBRANCH  11  15
BRANCH  12  22
HETATM   22  C   UNL     1      -7.342   8.268  66.999  1.00  0.00    -0.084 C  
BRANCH  22  23
HETATM   23  C   UNL     1      -6.351   7.318  67.734  1.00  0.00    -0.048 C  
HETATM   24  O   UNL     1      -5.613   8.085  68.700  1.00  0.00    -0.030 OA 
HETATM   25  H   UNL     1      -5.008   7.506  69.149  1.00  0.00     0.000 HD 
BRANCH  23  26
HETATM   26  C   UNL     1      -6.958   6.192  68.620  1.00  0.00    -0.076 C  
HETATM   27  C   UNL     1      -8.455   6.204  69.024  1.00  0.00    -0.118 C  
HETATM   28  C   UNL     1      -8.869   4.776  69.523  1.00  0.00    -0.120 C  
HETATM   29  C   UNL     1      -8.705   7.231  70.148  1.00  0.00    -0.140 C  
HETATM   30  O   UNL     1      -7.824   7.586  70.926  1.00  0.00    -0.092 OA 
HETATM   31  N   UNL     1      -9.987   7.745  70.232  1.00  0.00    -0.188 N  
HETATM   32  H   UNL     1     -10.741   7.294  69.713  1.00  0.00     0.000 HD 
BRANCH  28  33
HETATM   33  C   UNL     1      -8.807   3.637  68.505  1.00  0.00    -0.156 A  
HETATM   34  C   UNL     1      -7.879   2.596  68.633  1.00  0.00    -0.058 A  
HETATM   35  C   UNL     1      -9.654   3.629  67.385  1.00  0.00    -0.197 A  
HETATM   36  C   UNL     1      -9.587   2.598  66.428  1.00  0.00     0.221 A  
HETATM   37  C   UNL     1      -7.812   1.565  67.677  1.00  0.00    -0.059 A  
HETATM   38  C   UNL     1      -8.669   1.566  66.577  1.00  0.00    -0.117 A  
ENDBRANCH  28  33
BRANCH  31  39
HETATM   39  C   UNL     1     -10.284   8.934  71.058  1.00  0.00    -0.254 C  
HETATM   40  C   UNL     1     -12.583   9.962  71.241  1.00  0.00    -0.480 C  
HETATM   41  C   UNL     1     -11.710  10.716  70.300  1.00  0.00    -0.433 A  
HETATM   42  H   UNL     1     -13.143   7.586  72.194  1.00  0.00     0.000 HD 
HETATM   43  C   UNL     1     -11.649   8.878  71.822  1.00  0.00    -0.352 C  
HETATM   44  O   UNL     1     -12.315   7.620  71.730  1.00  0.00    -0.299 OA 
HETATM   45  C   UNL     1     -12.059  11.863  69.586  1.00  0.00    -0.304 A  
HETATM   46  C   UNL     1     -11.089  12.474  68.793  1.00  0.00    -0.314 A  
HETATM   47  C   UNL     1      -9.795  11.950  68.732  1.00  0.00    -0.078 A  
HETATM   48  C   UNL     1      -9.456  10.790  69.434  1.00  0.00    -0.037 A  
HETATM   49  C   UNL     1     -10.436  10.168  70.213  1.00  0.00    -0.284 A  
ENDBRANCH  31  39
ENDBRANCH  23  26
ENDBRANCH  22  23
ENDBRANCH  12  22
ENDBRANCH   6   9
TORSDOF 8
ENDMDL
MODEL       49
REMARK 921   NORMALIZED FREE ENERGY PREDICTED BY IDOCK:   -5.87 KCAL/MOL
REMARK 922        TOTAL FREE ENERGY PREDICTED BY IDOCK:  -10.59 KCAL/MOL
REMARK 923 INTER-LIGAND FREE ENERGY PREDICTED BY IDOCK:   -9.16 KCAL/MOL
REMARK 924 INTRA-LIGAND FREE ENERGY PREDICTED BY IDOCK:   -1.42 KCAL/MOL
REMARK 927      BINDING AFFINITY PREDICTED BY RF-SCORE:    0.00 PKD
ROOT
HETATM    1  C   UNL     1     -12.506  12.693  64.735  1.00  0.00    -0.555 C  
HETATM    2  C   UNL     1     -11.849  13.944  65.328  1.00  0.00    -0.357 C  
HETATM    3  N   UNL     1     -12.173  14.198  66.768  1.00  0.00    -0.515 N  
HETATM    4  C   UNL     1     -12.402  15.152  64.518  1.00  0.00    -0.212 C  
HETATM    5  C   UNL     1     -10.335  13.907  65.069  1.00  0.00    -0.418 C  
HETATM    6  C   UNL     1     -11.982  13.622  67.995  1.00  0.00    -0.350 C  
HETATM    7  H   UNL     1     -12.699  15.066  66.863  1.00  0.00     0.000 HD 
HETATM    8  O   UNL     1     -12.183  14.376  68.959  1.00  0.00    -0.290 OA 
ENDROOT
BRANCH   6   9
HETATM    9  C   UNL     1     -11.620  12.147  68.244  1.00  0.00    -0.325 C  
HETATM   10  C   UNL     1     -11.653  11.611  69.731  1.00  0.00    -0.315 C  
HETATM   11  N   UNL     1     -11.721  10.115  69.762  1.00  0.00    -0.184 NA 
HETATM   12  N   UNL     1     -10.387  11.706  67.531  1.00  0.00    -0.194 NA 
HETATM   13  C   UNL     1     -10.744   9.513  68.811  1.00  0.00    -0.190 C  
HETATM   14  C   UNL     1     -10.572  10.229  67.441  1.00  0.00    -0.270 C  
BRANCH  11  15
HETATM   15  C   UNL     1     -11.462   9.530  71.099  1.00  0.00    -0.360 C  
BRANCH  15  16
HETATM   16  C   UNL     1     -10.897   8.132  71.157  1.00  0.00    -0.268 A  
HETATM   17  C   UNL     1     -11.716   7.030  70.925  1.00  0.00    -0.343 A  
HETATM   18  N   UNL     1     -11.341   5.739  71.099  1.00  0.00    -0.158 NA 
HETATM   19  C   UNL     1      -9.180   6.550  71.789  1.00  0.00    -0.149 A  
HETATM   20  C   UNL     1     -10.081   5.531  71.531  1.00  0.00    -0.205 A  
HETATM   21  C   UNL     1      -9.599   7.870  71.601  1.00  0.00    -0.206 A  
ENDBRANCH  15  16
ENDBRANCH  11  15
BRANCH  12  22
HETATM   22  C   UNL     1      -9.047  11.998  68.164  1.00  0.00    -0.191 C  
BRANCH  22  23
HETATM   23  C   UNL     1      -8.119  13.094  67.561  1.00  0.00    -0.181 C  
HETATM   24  O   UNL     1      -8.728  14.378  67.775  1.00  0.00    -0.164 OA 
HETATM   25  H   UNL     1      -8.162  15.046  67.406  1.00  0.00     0.000 HD 
BRANCH  23  26
HETATM   26  C   UNL     1      -6.722  13.292  68.217  1.00  0.00    -0.103 C  
HETATM   27  C   UNL     1      -6.449  14.467  69.191  1.00  0.00    -0.105 C  
HETATM   28  C   UNL     1      -5.143  14.171  70.008  1.00  0.00    -0.089 C  
HETATM   29  C   UNL     1      -6.276  15.788  68.412  1.00  0.00    -0.101 C  
HETATM   30  O   UNL     1      -5.906  15.820  67.242  1.00  0.00    -0.308 OA 
HETATM   31  N   UNL     1      -6.570  16.949  69.105  1.00  0.00    -0.212 N  
HETATM   32  H   UNL     1      -6.679  16.912  70.118  1.00  0.00     0.000 HD 
BRANCH  28  33
HETATM   33  C   UNL     1      -5.167  12.962  70.943  1.00  0.00    -0.162 A  
HETATM   34  C   UNL     1      -5.270  11.657  70.443  1.00  0.00    -0.104 A  
HETATM   35  C   UNL     1      -5.131  13.130  72.337  1.00  0.00    -0.018 A  
HETATM   36  C   UNL     1      -5.177  12.024  73.207  1.00  0.00     0.670 A  
HETATM   37  C   UNL     1      -5.316  10.551  71.312  1.00  0.00    -0.070 A  
HETATM   38  C   UNL     1      -5.266  10.736  72.693  1.00  0.00     0.378 A  
ENDBRANCH  28  33
BRANCH  31  39
HETATM   39  C   UNL     1      -6.729  18.241  68.404  1.00  0.00    -0.226 C  
HETATM   40  C   UNL     1      -7.648  20.318  69.507  1.00  0.00     0.406 C  
HETATM   41  C   UNL     1      -8.672  19.631  68.672  1.00  0.00    -0.317 A  
HETATM   42  H   UNL     1      -5.554  19.959  71.040  1.00  0.00     0.000 HD 
HETATM   43  C   UNL     1      -6.362  19.500  69.258  1.00  0.00    -0.311 C  
HETATM   44  O   UNL     1      -5.777  19.194  70.522  1.00  0.00    -0.239 OA 
HETATM   45  C   UNL     1      -9.991  20.042  68.477  1.00  0.00    -0.454 A  
HETATM   46  C   UNL     1     -10.797  19.305  67.610  1.00  0.00    -0.484 A  
HETATM   47  C   UNL     1     -10.280  18.189  66.945  1.00  0.00    -0.380 A  
HETATM   48  C   UNL     1      -8.964  17.770  67.160  1.00  0.00    -0.249 A  
HETATM   49  C   UNL     1      -8.166  18.500  68.044  1.00  0.00    -0.286 A  
ENDBRANCH  31  39
ENDBRANCH  23  26
ENDBRANCH  22  23
ENDBRANCH  12  22
ENDBRANCH   6   9
TORSDOF 8
ENDMDL
MODEL       50
REMARK 921   NORMALIZED FREE ENERGY PREDICTED BY IDOCK:   -5.76 KCAL/MOL
REMARK 922        TOTAL FREE ENERGY PREDICTED BY IDOCK:  -10.42 KCAL/MOL
REMARK 923 INTER-LIGAND FREE ENERGY PREDICTED BY IDOCK:   -7.67 KCAL/MOL
REMARK 924 INTRA-LIGAND FREE ENERGY PREDICTED BY IDOCK:   -2.75 KCAL/MOL
REMARK 927      BINDING AFFINITY PREDICTED BY RF-SCORE:    0.00 PKD
ROOT
HETATM    1  C   UNL     1      -7.147   7.275  70.000  1.00  0.00    -0.066 C  
HETATM    2  C   UNL     1      -6.378   7.577  71.290  1.00  0.00    -0.035 C  
HETATM    3  N   UNL     1      -7.146   8.365  72.305  1.00  0.00    -0.101 N  
HETATM    4  C   UNL     1      -5.153   8.442  70.875  1.00  0.00    -0.025 C  
HETATM    5  C   UNL     1      -5.810   6.273  71.871  1.00  0.00    -0.036 C  
HETATM    6  C   UNL     1      -8.255   8.241  73.099  1.00  0.00    -0.169 C  
HETATM    7  H   UNL     1      -6.708   9.275  72.450  1.00  0.00     0.000 HD 
HETATM    8  O   UNL     1      -8.328   9.067  74.021  1.00  0.00    -0.076 OA 
ENDROOT
BRANCH   6   9
HETATM    9  C   UNL     1      -9.399   7.234  72.885  1.00  0.00    -0.154 C  
HETATM   10  C   UNL     1      -9.024   5.760  72.454  1.00  0.00    -0.141 C  
HETATM   11  N   UNL     1     -10.159   4.818  72.718  1.00  0.00    -0.165 NA 
HETATM   12  N   UNL     1     -10.524   7.773  72.068  1.00  0.00    -0.214 NA 
HETATM   13  C   UNL     1     -11.451   5.390  72.246  1.00  0.00    -0.090 C  
HETATM   14  C   UNL     1     -11.668   6.911  72.481  1.00  0.00    -0.154 C  
BRANCH  11  15
HETATM   15  C   UNL     1      -9.997   3.490  72.079  1.00  0.00    -0.157 C  
BRANCH  15  16
HETATM   16  C   UNL     1      -9.219   3.421  70.788  1.00  0.00    -0.203 A  
HETATM   17  C   UNL     1      -7.858   3.127  70.800  1.00  0.00    -0.046 A  
HETATM   18  N   UNL     1      -7.045   3.188  69.717  1.00  0.00    -0.041 NA 
HETATM   19  C   UNL     1      -8.961   3.875  68.426  1.00  0.00    -0.165 A  
HETATM   20  C   UNL     1      -7.617   3.564  68.555  1.00  0.00    -0.053 A  
HETATM   21  C   UNL     1      -9.770   3.804  69.563  1.00  0.00    -0.152 A  
ENDBRANCH  15  16
ENDBRANCH  11  15
BRANCH  12  22
HETATM   22  C   UNL     1     -10.399   7.742  70.563  1.00  0.00    -0.205 C  
BRANCH  22  23
HETATM   23  C   UNL     1     -10.344   9.072  69.755  1.00  0.00    -0.211 C  
HETATM   24  O   UNL     1      -9.227   9.846  70.224  1.00  0.00    -0.346 OA 
HETATM   25  H   UNL     1      -9.193  10.658  69.731  1.00  0.00     0.000 HD 
BRANCH  23  26
HETATM   26  C   UNL     1     -10.044   8.974  68.231  1.00  0.00    -0.223 C  
HETATM   27  C   UNL     1      -9.464  10.177  67.445  1.00  0.00    -0.175 C  
HETATM   28  C   UNL     1      -8.871   9.671  66.083  1.00  0.00    -0.173 C  
HETATM   29  C   UNL     1     -10.563  11.225  67.167  1.00  0.00    -0.235 C  
HETATM   30  O   UNL     1     -11.754  10.932  67.112  1.00  0.00    -0.393 OA 
HETATM   31  N   UNL     1     -10.134  12.527  66.987  1.00  0.00    -0.215 N  
HETATM   32  H   UNL     1      -9.141  12.711  66.838  1.00  0.00     0.000 HD 
BRANCH  28  33
HETATM   33  C   UNL     1      -7.681   8.714  66.155  1.00  0.00    -0.097 A  
HETATM   34  C   UNL     1      -7.774   7.400  65.677  1.00  0.00    -0.104 A  
HETATM   35  C   UNL     1      -6.472   9.115  66.746  1.00  0.00    -0.067 A  
HETATM   36  C   UNL     1      -5.378   8.233  66.839  1.00  0.00    -0.032 A  
HETATM   37  C   UNL     1      -6.681   6.519  65.770  1.00  0.00    -0.048 A  
HETATM   38  C   UNL     1      -5.484   6.938  66.348  1.00  0.00    -0.022 A  
ENDBRANCH  28  33
BRANCH  31  39
HETATM   39  C   UNL     1     -11.086  13.658  67.006  1.00  0.00    -0.301 C  
HETATM   40  C   UNL     1     -11.010  15.569  65.358  1.00  0.00    -0.365 C  
HETATM   41  C   UNL     1     -10.401  15.937  66.666  1.00  0.00    -0.302 A  
HETATM   42  H   UNL     1     -11.404  13.611  63.663  1.00  0.00     0.000 HD 
HETATM   43  C   UNL     1     -11.556  14.145  65.595  1.00  0.00    -0.339 C  
HETATM   44  O   UNL     1     -11.119  13.315  64.520  1.00  0.00    -0.337 OA 
HETATM   45  C   UNL     1      -9.848  17.174  67.003  1.00  0.00    -0.276 A  
HETATM   46  C   UNL     1      -9.373  17.359  68.300  1.00  0.00    -0.278 A  
HETATM   47  C   UNL     1      -9.467  16.328  69.240  1.00  0.00    -0.202 A  
HETATM   48  C   UNL     1     -10.003  15.085  68.892  1.00  0.00    -0.236 A  
HETATM   49  C   UNL     1     -10.460  14.896  67.585  1.00  0.00    -0.249 A  
ENDBRANCH  31  39
ENDBRANCH  23  26
ENDBRANCH  22  23
ENDBRANCH  12  22
ENDBRANCH   6   9
TORSDOF 8
ENDMDL
MODEL       51
REMARK 921   NORMALIZED FREE ENERGY PREDICTED BY IDOCK:   -5.73 KCAL/MOL
REMARK 922        TOTAL FREE ENERGY PREDICTED BY IDOCK:  -10.38 KCAL/MOL
REMARK 923 INTER-LIGAND FREE ENERGY PREDICTED BY IDOCK:   -8.51 KCAL/MOL
REMARK 924 INTRA-LIGAND FREE ENERGY PREDICTED BY IDOCK:   -1.87 KCAL/MOL
REMARK 927      BINDING AFFINITY PREDICTED BY RF-SCORE:    0.00 PKD
ROOT
HETATM    1  C   UNL     1      -5.811  13.658  71.318  1.00  0.00    -0.111 C  
HETATM    2  C   UNL     1      -5.974  14.524  70.065  1.00  0.00    -0.141 C  
HETATM    3  N   UNL     1      -5.462  13.900  68.803  1.00  0.00    -0.079 N  
HETATM    4  C   UNL     1      -5.133  15.809  70.310  1.00  0.00    -0.135 C  
HETATM    5  C   UNL     1      -7.435  14.981  69.938  1.00  0.00    -0.021 C  
HETATM    6  C   UNL     1      -5.722  12.829  67.991  1.00  0.00    -0.097 C  
HETATM    7  H   UNL     1      -4.678  14.439  68.436  1.00  0.00     0.000 HD 
HETATM    8  O   UNL     1      -5.205  12.894  66.865  1.00  0.00    -0.298 OA 
ENDROOT
BRANCH   6   9
HETATM    9  C   UNL     1      -6.518  11.575  68.393  1.00  0.00    -0.051 C  
HETATM   10  C   UNL     1      -6.533  10.349  67.395  1.00  0.00    -0.066 C  
HETATM   11  N   UNL     1      -6.949   9.091  68.095  1.00  0.00    -0.076 NA 
HETATM   12  N   UNL     1      -7.884  11.875  68.911  1.00  0.00    -0.046 NA 
HETATM   13  C   UNL     1      -8.145   9.325  68.952  1.00  0.00    -0.103 C  
HETATM   14  C   UNL     1      -8.193  10.669  69.732  1.00  0.00     0.187 C  
BRANCH  11  15
HETATM   15  C   UNL     1      -7.268   7.972  67.177  1.00  0.00    -0.087 C  
BRANCH  15  16
HETATM   16  C   UNL     1      -8.563   7.230  67.397  1.00  0.00    -0.121 A  
HETATM   17  C   UNL     1      -9.669   7.488  66.591  1.00  0.00    -0.203 A  
HETATM   18  N   UNL     1     -10.911   6.986  66.802  1.00  0.00    -0.269 NA 
HETATM   19  C   UNL     1     -10.032   5.856  68.740  1.00  0.00    -0.195 A  
HETATM   20  C   UNL     1     -11.063   6.184  67.875  1.00  0.00    -0.206 A  
HETATM   21  C   UNL     1      -8.765   6.391  68.496  1.00  0.00    -0.121 A  
ENDBRANCH  15  16
ENDBRANCH  11  15
BRANCH  12  22
HETATM   22  C   UNL     1      -8.998  12.095  67.916  1.00  0.00    -0.184 C  
BRANCH  22  23
HETATM   23  C   UNL     1      -8.737  12.913  66.616  1.00  0.00    -0.037 C  
HETATM   24  O   UNL     1      -9.401  12.258  65.523  1.00  0.00    -0.429 OA 
HETATM   25  H   UNL     1      -9.241  12.757  64.730  1.00  0.00     0.000 HD 
BRANCH  23  26
HETATM   26  C   UNL     1      -9.336  14.347  66.538  1.00  0.00    -0.300 C  
HETATM   27  C   UNL     1      -9.958  15.029  67.783  1.00  0.00    -0.229 C  
HETATM   28  C   UNL     1     -10.072  16.572  67.527  1.00  0.00    -0.267 C  
HETATM   29  C   UNL     1     -11.361  14.453  68.073  1.00  0.00    -0.294 C  
HETATM   30  O   UNL     1     -12.058  13.944  67.200  1.00  0.00    -0.407 OA 
HETATM   31  N   UNL     1     -11.795  14.535  69.384  1.00  0.00    -0.307 N  
HETATM   32  H   UNL     1     -11.294  15.133  70.041  1.00  0.00     0.000 HD 
BRANCH  28  33
HETATM   33  C   UNL     1      -8.767  17.345  67.341  1.00  0.00    -0.227 A  
HETATM   34  C   UNL     1      -8.098  17.358  66.110  1.00  0.00    -0.255 A  
HETATM   35  C   UNL     1      -8.178  18.030  68.416  1.00  0.00    -0.305 A  
HETATM   36  C   UNL     1      -6.963  18.724  68.260  1.00  0.00    -0.266 A  
HETATM   37  C   UNL     1      -6.884  18.052  65.954  1.00  0.00    -0.332 A  
HETATM   38  C   UNL     1      -6.319  18.737  67.029  1.00  0.00    -0.189 A  
ENDBRANCH  28  33
BRANCH  31  39
HETATM   39  C   UNL     1     -12.972  13.772  69.850  1.00  0.00     0.467 C  
HETATM   40  C   UNL     1     -13.445  13.292  72.283  1.00  0.00    -0.679 C  
HETATM   41  C   UNL     1     -12.840  12.120  71.592  1.00  0.00    -0.390 A  
HETATM   42  H   UNL     1     -13.513  15.910  72.383  1.00  0.00     0.000 HD 
HETATM   43  C   UNL     1     -13.640  14.326  71.153  1.00  0.00    -0.238 C  
HETATM   44  O   UNL     1     -13.107  15.574  71.593  1.00  0.00    -0.422 OA 
HETATM   45  C   UNL     1     -12.555  10.879  72.164  1.00  0.00     0.160 A  
HETATM   46  C   UNL     1     -12.041   9.873  71.348  1.00  0.00    -0.501 A  
HETATM   47  C   UNL     1     -11.834  10.107  69.985  1.00  0.00    -0.253 A  
HETATM   48  C   UNL     1     -12.102  11.358  69.422  1.00  0.00    -0.358 A  
HETATM   49  C   UNL     1     -12.599  12.371  70.247  1.00  0.00    -0.021 A  
ENDBRANCH  31  39
ENDBRANCH  23  26
ENDBRANCH  22  23
ENDBRANCH  12  22
ENDBRANCH   6   9
TORSDOF 8
ENDMDL
MODEL       52
REMARK 921   NORMALIZED FREE ENERGY PREDICTED BY IDOCK:   -5.73 KCAL/MOL
REMARK 922        TOTAL FREE ENERGY PREDICTED BY IDOCK:  -10.38 KCAL/MOL
REMARK 923 INTER-LIGAND FREE ENERGY PREDICTED BY IDOCK:   -8.56 KCAL/MOL
REMARK 924 INTRA-LIGAND FREE ENERGY PREDICTED BY IDOCK:   -1.82 KCAL/MOL
REMARK 927      BINDING AFFINITY PREDICTED BY RF-SCORE:    0.00 PKD
ROOT
HETATM    1  C   UNL     1      -6.213  13.487  71.381  1.00  0.00     0.660 C  
HETATM    2  C   UNL     1      -6.150  14.566  70.296  1.00  0.00    -0.170 C  
HETATM    3  N   UNL     1      -5.634  14.092  68.973  1.00  0.00    -0.086 N  
HETATM    4  C   UNL     1      -5.155  15.646  70.812  1.00  0.00    -0.169 C  
HETATM    5  C   UNL     1      -7.515  15.261  70.175  1.00  0.00     0.232 C  
HETATM    6  C   UNL     1      -5.980  13.227  67.969  1.00  0.00    -0.122 C  
HETATM    7  H   UNL     1      -4.753  14.557  68.750  1.00  0.00     0.000 HD 
HETATM    8  O   UNL     1      -5.370  13.400  66.903  1.00  0.00     0.064 OA 
ENDROOT
BRANCH   6   9
HETATM    9  C   UNL     1      -6.977  12.062  68.098  1.00  0.00    -0.079 C  
HETATM   10  C   UNL     1      -7.123  11.067  66.879  1.00  0.00    -0.125 C  
HETATM   11  N   UNL     1      -7.762   9.782  67.308  1.00  0.00    -0.095 NA 
HETATM   12  N   UNL     1      -8.308  12.472  68.631  1.00  0.00    -0.046 NA 
HETATM   13  C   UNL     1      -8.955  10.036  68.164  1.00  0.00    -0.122 C  
HETATM   14  C   UNL     1      -8.841  11.198  69.192  1.00  0.00     0.073 C  
BRANCH  11  15
HETATM   15  C   UNL     1      -8.196   8.922  66.181  1.00  0.00    -0.116 C  
BRANCH  15  16
HETATM   16  C   UNL     1      -8.625   9.601  64.903  1.00  0.00    -0.188 A  
HETATM   17  C   UNL     1      -7.715   9.793  63.867  1.00  0.00    -0.136 A  
HETATM   18  N   UNL     1      -7.960  10.519  62.749  1.00  0.00    -0.153 NA 
HETATM   19  C   UNL     1     -10.162  10.960  63.622  1.00  0.00    -0.395 A  
HETATM   20  C   UNL     1      -9.179  11.088  62.655  1.00  0.00    -0.333 A  
HETATM   21  C   UNL     1      -9.876  10.206  64.763  1.00  0.00    -0.382 A  
ENDBRANCH  15  16
ENDBRANCH  11  15
BRANCH  12  22
HETATM   22  C   UNL     1      -9.319  13.052  67.672  1.00  0.00    -0.202 C  
BRANCH  22  23
HETATM   23  C   UNL     1      -8.877  14.095  66.603  1.00  0.00    -0.114 C  
HETATM   24  O   UNL     1      -9.461  13.732  65.341  1.00  0.00    -0.514 OA 
HETATM   25  H   UNL     1      -9.191  14.368  64.688  1.00  0.00     0.000 HD 
BRANCH  23  26
HETATM   26  C   UNL     1      -9.378  15.558  66.776  1.00  0.00    -0.267 C  
HETATM   27  C   UNL     1      -9.898  16.075  68.142  1.00  0.00    -0.222 C  
HETATM   28  C   UNL     1      -9.916  17.643  68.130  1.00  0.00    -0.330 C  
HETATM   29  C   UNL     1     -11.323  15.548  68.415  1.00  0.00    -0.354 C  
HETATM   30  O   UNL     1     -12.090  15.225  67.514  1.00  0.00    -0.033 OA 
HETATM   31  N   UNL     1     -11.694  15.452  69.745  1.00  0.00    -0.310 N  
HETATM   32  H   UNL     1     -11.124  15.909  70.457  1.00  0.00     0.000 HD 
BRANCH  28  33
HETATM   33  C   UNL     1      -8.570  18.354  67.994  1.00  0.00    -0.287 A  
HETATM   34  C   UNL     1      -7.815  18.705  69.121  1.00  0.00    -0.086 A  
HETATM   35  C   UNL     1      -8.073  18.715  66.731  1.00  0.00    -0.275 A  
HETATM   36  C   UNL     1      -6.845  19.392  66.597  1.00  0.00    -0.202 A  
HETATM   37  C   UNL     1      -6.588  19.381  68.987  1.00  0.00    -0.347 A  
HETATM   38  C   UNL     1      -6.104  19.721  67.725  1.00  0.00    -0.221 A  
ENDBRANCH  28  33
BRANCH  31  39
HETATM   39  C   UNL     1     -12.899  14.699  70.151  1.00  0.00    -0.135 C  
HETATM   40  C   UNL     1     -13.208  13.705  72.451  1.00  0.00    -0.584 C  
HETATM   41  C   UNL     1     -12.789  12.681  71.454  1.00  0.00    -0.358 A  
HETATM   42  H   UNL     1     -12.995  16.223  73.143  1.00  0.00     0.000 HD 
HETATM   43  C   UNL     1     -13.391  14.986  71.609  1.00  0.00    -0.401 C  
HETATM   44  O   UNL     1     -12.696  16.049  72.258  1.00  0.00    -0.449 OA 
HETATM   45  C   UNL     1     -12.587  11.322  71.699  1.00  0.00    -0.357 A  
HETATM   46  C   UNL     1     -12.252  10.496  70.626  1.00  0.00    -0.446 A  
HETATM   47  C   UNL     1     -12.140  11.024  69.337  1.00  0.00    -0.389 A  
HETATM   48  C   UNL     1     -12.325  12.390  69.101  1.00  0.00     0.126 A  
HETATM   49  C   UNL     1     -12.640  13.219  70.181  1.00  0.00    -0.112 A  
ENDBRANCH  31  39
ENDBRANCH  23  26
ENDBRANCH  22  23
ENDBRANCH  12  22
ENDBRANCH   6   9
TORSDOF 8
ENDMDL
MODEL       53
REMARK 921   NORMALIZED FREE ENERGY PREDICTED BY IDOCK:   -5.72 KCAL/MOL
REMARK 922        TOTAL FREE ENERGY PREDICTED BY IDOCK:  -10.36 KCAL/MOL
REMARK 923 INTER-LIGAND FREE ENERGY PREDICTED BY IDOCK:   -7.21 KCAL/MOL
REMARK 924 INTRA-LIGAND FREE ENERGY PREDICTED BY IDOCK:   -3.15 KCAL/MOL
REMARK 927      BINDING AFFINITY PREDICTED BY RF-SCORE:    0.00 PKD
ROOT
HETATM    1  C   UNL     1     -10.988   6.438  66.892  1.00  0.00    -0.413 C  
HETATM    2  C   UNL     1      -9.511   6.670  66.555  1.00  0.00    -0.152 C  
HETATM    3  N   UNL     1      -9.217   7.992  65.916  1.00  0.00    -0.369 N  
HETATM    4  C   UNL     1      -9.120   5.571  65.526  1.00  0.00    -0.101 C  
HETATM    5  C   UNL     1      -8.650   6.421  67.803  1.00  0.00    -0.116 C  
HETATM    6  C   UNL     1      -9.270   9.328  66.213  1.00  0.00    -0.186 C  
HETATM    7  H   UNL     1      -8.871   7.855  64.966  1.00  0.00     0.000 HD 
HETATM    8  O   UNL     1      -8.623  10.056  65.445  1.00  0.00    -0.138 OA 
ENDROOT
BRANCH   6   9
HETATM    9  C   UNL     1     -10.100   9.959  67.344  1.00  0.00    -0.205 C  
HETATM   10  C   UNL     1     -10.827  11.333  67.058  1.00  0.00    -0.280 C  
HETATM   11  N   UNL     1     -11.918  11.582  68.054  1.00  0.00    -0.627 NA 
HETATM   12  N   UNL     1      -9.401   9.974  68.661  1.00  0.00    -0.151 NA 
HETATM   13  C   UNL     1     -11.453  11.299  69.441  1.00  0.00    -0.301 C  
HETATM   14  C   UNL     1     -10.532  10.060  69.629  1.00  0.00    -0.248 C  
BRANCH  11  15
HETATM   15  C   UNL     1     -12.446  12.967  68.033  1.00  0.00     0.495 C  
BRANCH  15  16
HETATM   16  C   UNL     1     -11.899  13.943  69.045  1.00  0.00    -0.397 A  
HETATM   17  C   UNL     1     -12.763  14.700  69.832  1.00  0.00    -0.085 A  
HETATM   18  N   UNL     1     -12.375  15.703  70.658  1.00  0.00    -0.413 NA 
HETATM   19  C   UNL     1     -10.106  15.279  69.967  1.00  0.00    -0.178 A  
HETATM   20  C   UNL     1     -11.054  15.970  70.703  1.00  0.00    -0.330 A  
HETATM   21  C   UNL     1     -10.539  14.252  69.125  1.00  0.00    -0.201 A  
ENDBRANCH  15  16
ENDBRANCH  11  15
BRANCH  12  22
HETATM   22  C   UNL     1      -8.423  11.089  68.944  1.00  0.00    -0.122 C  
BRANCH  22  23
HETATM   23  C   UNL     1      -6.919  10.923  68.575  1.00  0.00    -0.072 C  
HETATM   24  O   UNL     1      -6.753  11.233  67.181  1.00  0.00    -0.093 OA 
HETATM   25  H   UNL     1      -5.836  11.132  66.956  1.00  0.00     0.000 HD 
BRANCH  23  26
HETATM   26  C   UNL     1      -5.905  11.898  69.240  1.00  0.00    -0.072 C  
HETATM   27  C   UNL     1      -6.263  13.385  69.493  1.00  0.00    -0.114 C  
HETATM   28  C   UNL     1      -5.261  13.991  70.535  1.00  0.00    -0.106 C  
HETATM   29  C   UNL     1      -6.187  14.193  68.180  1.00  0.00    -0.133 C  
HETATM   30  O   UNL     1      -5.481  13.851  67.235  1.00  0.00    -0.310 OA 
HETATM   31  N   UNL     1      -6.970  15.332  68.117  1.00  0.00    -0.116 N  
HETATM   32  H   UNL     1      -7.386  15.700  68.972  1.00  0.00     0.000 HD 
BRANCH  28  33
HETATM   33  C   UNL     1      -5.279  13.398  71.944  1.00  0.00    -0.142 A  
HETATM   34  C   UNL     1      -5.381  14.217  73.077  1.00  0.00    -0.255 A  
HETATM   35  C   UNL     1      -5.148  12.015  72.143  1.00  0.00     0.187 A  
HETATM   36  C   UNL     1      -5.139  11.462  73.438  1.00  0.00     0.492 A  
HETATM   37  C   UNL     1      -5.373  13.665  74.371  1.00  0.00    -0.107 A  
HETATM   38  C   UNL     1      -5.255  12.287  74.550  1.00  0.00     0.221 A  
ENDBRANCH  28  33
BRANCH  31  39
HETATM   39  C   UNL     1      -7.215  16.024  66.834  1.00  0.00    -0.177 C  
HETATM   40  C   UNL     1      -8.537  18.166  66.639  1.00  0.00    -0.284 C  
HETATM   41  C   UNL     1      -9.347  16.975  66.259  1.00  0.00    -0.276 A  
HETATM   42  H   UNL     1      -6.620  19.034  68.201  1.00  0.00     0.000 HD 
HETATM   43  C   UNL     1      -7.131  17.585  66.904  1.00  0.00    -0.190 C  
HETATM   44  O   UNL     1      -6.671  18.086  68.158  1.00  0.00    -0.193 OA 
HETATM   45  C   UNL     1     -10.675  16.981  65.831  1.00  0.00    -0.140 A  
HETATM   46  C   UNL     1     -11.259  15.770  65.458  1.00  0.00    -0.093 A  
HETATM   47  C   UNL     1     -10.517  14.586  65.503  1.00  0.00    -0.373 A  
HETATM   48  C   UNL     1      -9.193  14.584  65.951  1.00  0.00    -0.003 A  
HETATM   49  C   UNL     1      -8.617  15.796  66.343  1.00  0.00    -0.346 A  
ENDBRANCH  31  39
ENDBRANCH  23  26
ENDBRANCH  22  23
ENDBRANCH  12  22
ENDBRANCH   6   9
TORSDOF 8
ENDMDL
MODEL       54
REMARK 921   NORMALIZED FREE ENERGY PREDICTED BY IDOCK:   -5.66 KCAL/MOL
REMARK 922        TOTAL FREE ENERGY PREDICTED BY IDOCK:  -10.27 KCAL/MOL
REMARK 923 INTER-LIGAND FREE ENERGY PREDICTED BY IDOCK:   -9.16 KCAL/MOL
REMARK 924 INTRA-LIGAND FREE ENERGY PREDICTED BY IDOCK:   -1.11 KCAL/MOL
REMARK 927      BINDING AFFINITY PREDICTED BY RF-SCORE:    0.00 PKD
ROOT
HETATM    1  C   UNL     1     -11.432   8.631  70.530  1.00  0.00    -0.208 C  
HETATM    2  C   UNL     1     -12.497   9.509  71.194  1.00  0.00    -0.315 C  
HETATM    3  N   UNL     1     -12.203  10.977  71.165  1.00  0.00    -0.337 N  
HETATM    4  C   UNL     1     -12.543   9.084  72.690  1.00  0.00    -0.244 C  
HETATM    5  C   UNL     1     -13.879   9.179  70.608  1.00  0.00     0.458 C  
HETATM    6  C   UNL     1     -12.056  11.992  70.258  1.00  0.00    -0.312 C  
HETATM    7  H   UNL     1     -12.072  11.329  72.113  1.00  0.00     0.000 HD 
HETATM    8  O   UNL     1     -12.112  13.132  70.742  1.00  0.00    -0.339 OA 
ENDROOT
BRANCH   6   9
HETATM    9  C   UNL     1     -11.767  11.814  68.757  1.00  0.00    -0.329 C  
HETATM   10  C   UNL     1     -10.788  10.654  68.318  1.00  0.00    -0.241 C  
HETATM   11  N   UNL     1     -10.956  10.329  66.865  1.00  0.00    -0.139 NA 
HETATM   12  N   UNL     1     -11.451  13.091  68.054  1.00  0.00    -0.288 NA 
HETATM   13  C   UNL     1     -11.003  11.569  66.040  1.00  0.00    -0.259 C  
HETATM   14  C   UNL     1     -11.785  12.774  66.636  1.00  0.00    -0.393 C  
BRANCH  11  15
HETATM   15  C   UNL     1      -9.883   9.466  66.315  1.00  0.00    -0.281 C  
BRANCH  15  16
HETATM   16  C   UNL     1      -9.695   8.101  66.929  1.00  0.00    -0.291 A  
HETATM   17  C   UNL     1      -8.433   7.682  67.343  1.00  0.00    -0.122 A  
HETATM   18  N   UNL     1      -8.137   6.428  67.766  1.00  0.00    -0.114 NA 
HETATM   19  C   UNL     1     -10.445   5.848  67.390  1.00  0.00    -0.311 A  
HETATM   20  C   UNL     1      -9.151   5.540  67.776  1.00  0.00    -0.107 A  
HETATM   21  C   UNL     1     -10.717   7.148  66.958  1.00  0.00    -0.420 A  
ENDBRANCH  15  16
ENDBRANCH  11  15
BRANCH  12  22
HETATM   22  C   UNL     1     -10.038  13.619  68.123  1.00  0.00    -0.245 C  
BRANCH  22  23
HETATM   23  C   UNL     1      -9.079  13.447  66.909  1.00  0.00    -0.231 C  
HETATM   24  O   UNL     1      -9.113  14.652  66.125  1.00  0.00    -0.474 OA 
HETATM   25  H   UNL     1      -8.527  14.547  65.384  1.00  0.00     0.000 HD 
BRANCH  23  26
HETATM   26  C   UNL     1      -7.558  13.308  67.210  1.00  0.00    -0.079 C  
HETATM   27  C   UNL     1      -6.868  14.175  68.294  1.00  0.00    -0.107 C  
HETATM   28  C   UNL     1      -5.488  13.533  68.672  1.00  0.00    -0.083 C  
HETATM   29  C   UNL     1      -6.640  15.611  67.776  1.00  0.00    -0.161 C  
HETATM   30  O   UNL     1      -6.540  15.873  66.581  1.00  0.00    -0.189 OA 
HETATM   31  N   UNL     1      -6.558  16.602  68.738  1.00  0.00    -0.159 N  
HETATM   32  H   UNL     1      -6.443  16.340  69.717  1.00  0.00     0.000 HD 
BRANCH  28  33
HETATM   33  C   UNL     1      -5.519  12.149  69.321  1.00  0.00    -0.066 A  
HETATM   34  C   UNL     1      -5.681  11.997  70.705  1.00  0.00    -0.127 A  
HETATM   35  C   UNL     1      -5.342  10.990  68.549  1.00  0.00    -0.043 A  
HETATM   36  C   UNL     1      -5.344   9.712  69.141  1.00  0.00    -0.036 A  
HETATM   37  C   UNL     1      -5.683  10.721  71.297  1.00  0.00     0.112 A  
HETATM   38  C   UNL     1      -5.518   9.579  70.513  1.00  0.00    -0.042 A  
ENDBRANCH  28  33
BRANCH  31  39
HETATM   39  C   UNL     1      -6.635  18.032  68.374  1.00  0.00    -0.210 C  
HETATM   40  C   UNL     1      -7.475  19.824  69.942  1.00  0.00     0.243 C  
HETATM   41  C   UNL     1      -8.512  19.419  68.953  1.00  0.00    -0.327 A  
HETATM   42  H   UNL     1      -5.438  18.987  71.363  1.00  0.00     0.000 HD 
HETATM   43  C   UNL     1      -6.226  19.023  69.514  1.00  0.00    -0.266 C  
HETATM   44  O   UNL     1      -5.687  18.386  70.671  1.00  0.00    -0.203 OA 
HETATM   45  C   UNL     1      -9.804  19.937  68.850  1.00  0.00    -0.391 A  
HETATM   46  C   UNL     1     -10.624  19.478  67.820  1.00  0.00    -0.542 A  
HETATM   47  C   UNL     1     -10.149  18.532  66.908  1.00  0.00    -0.396 A  
HETATM   48  C   UNL     1      -8.861  18.002  67.027  1.00  0.00    -0.259 A  
HETATM   49  C   UNL     1      -8.048  18.449  68.073  1.00  0.00    -0.288 A  
ENDBRANCH  31  39
ENDBRANCH  23  26
ENDBRANCH  22  23
ENDBRANCH  12  22
ENDBRANCH   6   9
TORSDOF 8
ENDMDL
MODEL       55
REMARK 921   NORMALIZED FREE ENERGY PREDICTED BY IDOCK:   -5.65 KCAL/MOL
REMARK 922        TOTAL FREE ENERGY PREDICTED BY IDOCK:  -10.25 KCAL/MOL
REMARK 923 INTER-LIGAND FREE ENERGY PREDICTED BY IDOCK:   -9.27 KCAL/MOL
REMARK 924 INTRA-LIGAND FREE ENERGY PREDICTED BY IDOCK:   -0.98 KCAL/MOL
REMARK 927      BINDING AFFINITY PREDICTED BY RF-SCORE:    0.00 PKD
ROOT
HETATM    1  C   UNL     1      -8.536  18.910  66.682  1.00  0.00    -0.312 C  
HETATM    2  C   UNL     1     -10.048  18.781  66.472  1.00  0.00    -0.397 C  
HETATM    3  N   UNL     1     -10.487  17.479  65.877  1.00  0.00    -0.324 N  
HETATM    4  C   UNL     1     -10.445  19.898  65.464  1.00  0.00    -0.333 C  
HETATM    5  C   UNL     1     -10.783  19.101  67.782  1.00  0.00    -0.463 C  
HETATM    6  C   UNL     1     -10.505  16.146  66.187  1.00  0.00    -0.325 C  
HETATM    7  H   UNL     1     -10.901  17.633  64.957  1.00  0.00     0.000 HD 
HETATM    8  O   UNL     1     -11.263  15.460  65.485  1.00  0.00    -0.310 OA 
ENDROOT
BRANCH   6   9
HETATM    9  C   UNL     1      -9.630  15.465  67.255  1.00  0.00    -0.211 C  
HETATM   10  C   UNL     1      -8.153  15.062  66.862  1.00  0.00    -0.126 C  
HETATM   11  N   UNL     1      -7.314  14.837  68.083  1.00  0.00    -0.109 NA 
HETATM   12  N   UNL     1     -10.323  14.362  67.980  1.00  0.00    -0.225 NA 
HETATM   13  C   UNL     1      -8.037  14.002  69.084  1.00  0.00     0.186 C  
HETATM   14  C   UNL     1      -9.557  14.280  69.257  1.00  0.00     0.189 C  
BRANCH  11  15
HETATM   15  C   UNL     1      -6.015  14.179  67.806  1.00  0.00    -0.098 C  
BRANCH  15  16
HETATM   16  C   UNL     1      -5.984  12.671  67.770  1.00  0.00    -0.126 A  
HETATM   17  C   UNL     1      -5.479  11.950  68.848  1.00  0.00    -0.050 A  
HETATM   18  N   UNL     1      -5.272  10.610  68.852  1.00  0.00    -0.042 NA 
HETATM   19  C   UNL     1      -6.096  10.564  66.588  1.00  0.00    -0.073 A  
HETATM   20  C   UNL     1      -5.584   9.949  67.719  1.00  0.00    -0.039 A  
HETATM   21  C   UNL     1      -6.296  11.946  66.617  1.00  0.00     0.064 A  
ENDBRANCH  15  16
ENDBRANCH  11  15
BRANCH  12  22
HETATM   22  C   UNL     1     -10.365  12.995  67.340  1.00  0.00    -0.234 C  
BRANCH  22  23
HETATM   23  C   UNL     1     -10.504  11.721  68.225  1.00  0.00    -0.206 C  
HETATM   24  O   UNL     1     -11.808  11.155  68.009  1.00  0.00    -0.582 OA 
HETATM   25  H   UNL     1     -11.893  10.377  68.548  1.00  0.00     0.000 HD 
BRANCH  23  26
HETATM   26  C   UNL     1      -9.577  10.514  67.898  1.00  0.00    -0.164 C  
HETATM   27  C   UNL     1     -10.134   9.071  67.806  1.00  0.00    -0.260 C  
HETATM   28  C   UNL     1      -9.100   8.162  67.056  1.00  0.00    -0.170 C  
HETATM   29  C   UNL     1     -10.391   8.498  69.216  1.00  0.00    -0.221 C  
HETATM   30  O   UNL     1      -9.788   8.895  70.209  1.00  0.00    -0.169 OA 
HETATM   31  N   UNL     1     -11.352   7.507  69.307  1.00  0.00    -0.416 N  
HETATM   32  H   UNL     1     -11.690   7.058  68.456  1.00  0.00     0.000 HD 
BRANCH  28  33
HETATM   33  C   UNL     1      -8.808   8.500  65.594  1.00  0.00    -0.214 A  
HETATM   34  C   UNL     1      -7.893   7.752  64.842  1.00  0.00    -0.123 A  
HETATM   35  C   UNL     1      -9.420   9.602  64.976  1.00  0.00    -0.312 A  
HETATM   36  C   UNL     1      -9.139   9.937  63.637  1.00  0.00    -0.294 A  
HETATM   37  C   UNL     1      -7.612   8.085  63.505  1.00  0.00    -0.133 A  
HETATM   38  C   UNL     1      -8.238   9.176  62.903  1.00  0.00    -0.181 A  
ENDBRANCH  28  33
BRANCH  31  39
HETATM   39  C   UNL     1     -11.898   7.086  70.615  1.00  0.00    -0.330 C  
HETATM   40  C   UNL     1     -11.840   8.539  72.679  1.00  0.00    -0.311 C  
HETATM   41  C   UNL     1     -10.763   7.511  72.691  1.00  0.00    -0.354 A  
HETATM   42  H   UNL     1     -13.284  10.099  71.146  1.00  0.00     0.000 HD 
HETATM   43  C   UNL     1     -12.648   8.210  71.405  1.00  0.00    -0.283 C  
HETATM   44  O   UNL     1     -12.828   9.417  70.667  1.00  0.00    -0.058 OA 
HETATM   45  C   UNL     1      -9.814   7.320  73.697  1.00  0.00    -0.353 A  
HETATM   46  C   UNL     1      -8.912   6.264  73.568  1.00  0.00    -0.128 A  
HETATM   47  C   UNL     1      -8.975   5.414  72.460  1.00  0.00    -0.136 A  
HETATM   48  C   UNL     1      -9.914   5.623  71.446  1.00  0.00    -0.237 A  
HETATM   49  C   UNL     1     -10.804   6.694  71.569  1.00  0.00    -0.277 A  
ENDBRANCH  31  39
ENDBRANCH  23  26
ENDBRANCH  22  23
ENDBRANCH  12  22
ENDBRANCH   6   9
TORSDOF 8
ENDMDL
MODEL       56
REMARK 921   NORMALIZED FREE ENERGY PREDICTED BY IDOCK:   -5.62 KCAL/MOL
REMARK 922        TOTAL FREE ENERGY PREDICTED BY IDOCK:  -10.21 KCAL/MOL
REMARK 923 INTER-LIGAND FREE ENERGY PREDICTED BY IDOCK:   -7.83 KCAL/MOL
REMARK 924 INTRA-LIGAND FREE ENERGY PREDICTED BY IDOCK:   -2.38 KCAL/MOL
REMARK 927      BINDING AFFINITY PREDICTED BY RF-SCORE:    0.00 PKD
ROOT
HETATM    1  C   UNL     1     -13.163   9.025  71.351  1.00  0.00    -0.332 C  
HETATM    2  C   UNL     1     -12.057   7.969  71.444  1.00  0.00    -0.305 C  
HETATM    3  N   UNL     1     -11.516   7.513  70.124  1.00  0.00    -0.471 N  
HETATM    4  C   UNL     1     -12.697   6.726  72.126  1.00  0.00    -0.132 C  
HETATM    5  C   UNL     1     -10.950   8.459  72.390  1.00  0.00    -0.425 C  
HETATM    6  C   UNL     1     -10.827   8.014  69.052  1.00  0.00     0.003 C  
HETATM    7  H   UNL     1     -11.725   6.525  69.979  1.00  0.00     0.000 HD 
HETATM    8  O   UNL     1     -10.334   7.155  68.305  1.00  0.00    -0.181 OA 
ENDROOT
BRANCH   6   9
HETATM    9  C   UNL     1     -10.693   9.504  68.693  1.00  0.00    -0.184 C  
HETATM   10  C   UNL     1     -10.553   9.894  67.168  1.00  0.00    -0.228 C  
HETATM   11  N   UNL     1     -10.878  11.340  66.950  1.00  0.00    -0.270 NA 
HETATM   12  N   UNL     1      -9.706  10.236  69.537  1.00  0.00    -0.228 NA 
HETATM   13  C   UNL     1     -10.210  12.199  67.968  1.00  0.00    -0.201 C  
HETATM   14  C   UNL     1     -10.163  11.650  69.422  1.00  0.00     0.255 C  
BRANCH  11  15
HETATM   15  C   UNL     1     -10.491  11.848  65.612  1.00  0.00    -0.262 C  
BRANCH  15  16
HETATM   16  C   UNL     1     -11.035  13.189  65.185  1.00  0.00    -0.317 A  
HETATM   17  C   UNL     1     -12.178  13.267  64.393  1.00  0.00    -0.390 A  
HETATM   18  N   UNL     1     -12.655  14.408  63.838  1.00  0.00    -0.793 NA 
HETATM   19  C   UNL     1     -10.811  15.575  64.857  1.00  0.00    -0.447 A  
HETATM   20  C   UNL     1     -11.957  15.535  64.082  1.00  0.00    -0.072 A  
HETATM   21  C   UNL     1     -10.344  14.382  65.414  1.00  0.00    -0.400 A  
ENDBRANCH  15  16
ENDBRANCH  11  15
BRANCH  12  22
HETATM   22  C   UNL     1      -8.244  10.157  69.166  1.00  0.00    -0.145 C  
BRANCH  22  23
HETATM   23  C   UNL     1      -7.358   9.000  69.716  1.00  0.00    -0.058 C  
HETATM   24  O   UNL     1      -8.209   8.044  70.371  1.00  0.00    -0.113 OA 
HETATM   25  H   UNL     1      -7.668   7.338  70.706  1.00  0.00     0.000 HD 
BRANCH  23  26
HETATM   26  C   UNL     1      -6.618   8.107  68.678  1.00  0.00    -0.058 C  
HETATM   27  C   UNL     1      -7.119   6.679  68.341  1.00  0.00    -0.083 C  
HETATM   28  C   UNL     1      -6.469   6.205  66.995  1.00  0.00    -0.053 C  
HETATM   29  C   UNL     1      -6.743   5.692  69.466  1.00  0.00    -0.059 C  
HETATM   30  O   UNL     1      -5.791   5.881  70.218  1.00  0.00    -0.022 OA 
HETATM   31  N   UNL     1      -7.547   4.573  69.591  1.00  0.00    -0.054 N  
HETATM   32  H   UNL     1      -8.197   4.338  68.842  1.00  0.00     0.000 HD 
BRANCH  28  33
HETATM   33  C   UNL     1      -6.828   6.991  65.733  1.00  0.00    -0.056 A  
HETATM   34  C   UNL     1      -8.131   7.458  65.513  1.00  0.00    -0.131 A  
HETATM   35  C   UNL     1      -5.867   7.229  64.738  1.00  0.00    -0.037 A  
HETATM   36  C   UNL     1      -6.194   7.931  63.562  1.00  0.00    -0.063 A  
HETATM   37  C   UNL     1      -8.458   8.160  64.338  1.00  0.00     0.019 A  
HETATM   38  C   UNL     1      -7.488   8.398  63.365  1.00  0.00    -0.114 A  
ENDBRANCH  28  33
BRANCH  31  39
HETATM   39  C   UNL     1      -7.480   3.712  70.791  1.00  0.00    -0.040 C  
HETATM   40  C   UNL     1      -9.132   1.863  71.269  1.00  0.00    -0.149 C  
HETATM   41  C   UNL     1      -9.431   3.093  72.053  1.00  0.00    -0.203 A  
HETATM   42  H   UNL     1      -8.179   0.955  69.003  1.00  0.00     0.000 HD 
HETATM   43  C   UNL     1      -7.817   2.204  70.536  1.00  0.00    -0.042 C  
HETATM   44  O   UNL     1      -7.975   1.870  69.158  1.00  0.00    -0.045 OA 
HETATM   45  C   UNL     1     -10.475   3.260  72.964  1.00  0.00    -0.251 A  
HETATM   46  C   UNL     1     -10.568   4.468  73.655  1.00  0.00    -0.315 A  
HETATM   47  C   UNL     1      -9.622   5.476  73.444  1.00  0.00    -0.146 A  
HETATM   48  C   UNL     1      -8.590   5.310  72.517  1.00  0.00    -0.121 A  
HETATM   49  C   UNL     1      -8.511   4.106  71.811  1.00  0.00    -0.111 A  
ENDBRANCH  31  39
ENDBRANCH  23  26
ENDBRANCH  22  23
ENDBRANCH  12  22
ENDBRANCH   6   9
TORSDOF 8
ENDMDL
MODEL       57
REMARK 921   NORMALIZED FREE ENERGY PREDICTED BY IDOCK:   -5.61 KCAL/MOL
REMARK 922        TOTAL FREE ENERGY PREDICTED BY IDOCK:  -10.20 KCAL/MOL
REMARK 923 INTER-LIGAND FREE ENERGY PREDICTED BY IDOCK:  -10.55 KCAL/MOL
REMARK 924 INTRA-LIGAND FREE ENERGY PREDICTED BY IDOCK:    0.35 KCAL/MOL
REMARK 927      BINDING AFFINITY PREDICTED BY RF-SCORE:    0.00 PKD
ROOT
HETATM    1  C   UNL     1     -10.644   8.854  66.516  1.00  0.00    -0.051 C  
HETATM    2  C   UNL     1      -9.509   9.633  65.845  1.00  0.00    -0.236 C  
HETATM    3  N   UNL     1      -9.916  10.951  65.260  1.00  0.00    -0.255 N  
HETATM    4  C   UNL     1      -9.009   8.748  64.667  1.00  0.00     0.032 C  
HETATM    5  C   UNL     1      -8.327   9.767  66.817  1.00  0.00    -0.124 C  
HETATM    6  C   UNL     1     -10.394  12.168  65.667  1.00  0.00    -0.257 C  
HETATM    7  H   UNL     1      -9.802  10.937  64.247  1.00  0.00     0.000 HD 
HETATM    8  O   UNL     1     -10.295  13.072  64.824  1.00  0.00    -0.327 OA 
ENDROOT
BRANCH   6   9
HETATM    9  C   UNL     1     -11.079  12.453  67.015  1.00  0.00    -0.278 C  
HETATM   10  C   UNL     1     -11.222  13.958  67.475  1.00  0.00    -0.303 C  
HETATM   11  N   UNL     1     -12.269  14.099  68.538  1.00  0.00    -0.262 NA 
HETATM   12  N   UNL     1     -10.596  11.584  68.126  1.00  0.00    -0.188 NA 
HETATM   13  C   UNL     1     -12.117  13.047  69.583  1.00  0.00    -0.241 C  
HETATM   14  C   UNL     1     -11.734  11.623  69.089  1.00  0.00    -0.326 C  
BRANCH  11  15
HETATM   15  C   UNL     1     -12.256  15.414  69.222  1.00  0.00    -0.188 C  
BRANCH  15  16
HETATM   16  C   UNL     1     -12.574  15.442  70.697  1.00  0.00    -0.491 A  
HETATM   17  C   UNL     1     -13.869  15.197  71.144  1.00  0.00    -0.419 A  
HETATM   18  N   UNL     1     -14.284  15.345  72.427  1.00  0.00    -0.543 NA 
HETATM   19  C   UNL     1     -12.041  16.030  72.982  1.00  0.00    -0.628 A  
HETATM   20  C   UNL     1     -13.359  15.762  73.315  1.00  0.00    -0.549 A  
HETATM   21  C   UNL     1     -11.647  15.869  71.652  1.00  0.00    -0.541 A  
ENDBRANCH  15  16
ENDBRANCH  11  15
BRANCH  12  22
HETATM   22  C   UNL     1      -9.327  11.976  68.845  1.00  0.00     0.174 C  
BRANCH  22  23
HETATM   23  C   UNL     1      -8.740  13.408  68.672  1.00  0.00     0.015 C  
HETATM   24  O   UNL     1      -9.362  14.277  69.634  1.00  0.00    -0.192 OA 
HETATM   25  H   UNL     1      -9.003  15.151  69.528  1.00  0.00     0.000 HD 
BRANCH  23  26
HETATM   26  C   UNL     1      -7.230  13.609  68.993  1.00  0.00    -0.049 C  
HETATM   27  C   UNL     1      -6.663  15.003  69.363  1.00  0.00    -0.158 C  
HETATM   28  C   UNL     1      -5.260  14.830  70.041  1.00  0.00    -0.096 C  
HETATM   29  C   UNL     1      -6.517  15.881  68.102  1.00  0.00    -0.127 C  
HETATM   30  O   UNL     1      -6.377  15.405  66.979  1.00  0.00    -0.267 OA 
HETATM   31  N   UNL     1      -6.559  17.249  68.302  1.00  0.00    -0.167 N  
HETATM   32  H   UNL     1      -6.474  17.619  69.249  1.00  0.00     0.000 HD 
BRANCH  28  33
HETATM   33  C   UNL     1      -5.220  14.088  71.378  1.00  0.00    -0.170 A  
HETATM   34  C   UNL     1      -5.160  12.690  71.432  1.00  0.00    -0.146 A  
HETATM   35  C   UNL     1      -5.286  14.791  72.591  1.00  0.00    -0.112 A  
HETATM   36  C   UNL     1      -5.275  14.116  73.827  1.00  0.00    -0.351 A  
HETATM   37  C   UNL     1      -5.149  12.014  72.666  1.00  0.00     0.371 A  
HETATM   38  C   UNL     1      -5.203  12.729  73.862  1.00  0.00     0.287 A  
ENDBRANCH  28  33
BRANCH  31  39
HETATM   39  C   UNL     1      -6.725  18.185  67.169  1.00  0.00    -0.187 C  
HETATM   40  C   UNL     1      -7.139  20.659  67.458  1.00  0.00    -0.391 C  
HETATM   41  C   UNL     1      -8.393  19.916  67.151  1.00  0.00    -0.367 A  
HETATM   42  H   UNL     1      -4.810  20.514  68.650  1.00  0.00     0.000 HD 
HETATM   43  C   UNL     1      -6.040  19.579  67.364  1.00  0.00    -0.189 C  
HETATM   44  O   UNL     1      -5.227  19.668  68.532  1.00  0.00    -0.189 OA 
HETATM   45  C   UNL     1      -9.669  20.467  67.017  1.00  0.00    -0.588 A  
HETATM   46  C   UNL     1     -10.723  19.624  66.667  1.00  0.00    -0.552 A  
HETATM   47  C   UNL     1     -10.495  18.263  66.443  1.00  0.00    -0.387 A  
HETATM   48  C   UNL     1      -9.219  17.714  66.598  1.00  0.00    -0.284 A  
HETATM   49  C   UNL     1      -8.167  18.558  66.969  1.00  0.00    -0.252 A  
ENDBRANCH  31  39
ENDBRANCH  23  26
ENDBRANCH  22  23
ENDBRANCH  12  22
ENDBRANCH   6   9
TORSDOF 8
ENDMDL
MODEL       58
REMARK 921   NORMALIZED FREE ENERGY PREDICTED BY IDOCK:   -5.61 KCAL/MOL
REMARK 922        TOTAL FREE ENERGY PREDICTED BY IDOCK:  -10.19 KCAL/MOL
REMARK 923 INTER-LIGAND FREE ENERGY PREDICTED BY IDOCK:  -10.65 KCAL/MOL
REMARK 924 INTRA-LIGAND FREE ENERGY PREDICTED BY IDOCK:    0.46 KCAL/MOL
REMARK 927      BINDING AFFINITY PREDICTED BY RF-SCORE:    0.00 PKD
ROOT
HETATM    1  C   UNL     1     -13.570  15.336  70.713  1.00  0.00    -0.313 C  
HETATM    2  C   UNL     1     -12.568  14.578  71.590  1.00  0.00    -0.348 C  
HETATM    3  N   UNL     1     -12.284  13.176  71.145  1.00  0.00    -0.383 N  
HETATM    4  C   UNL     1     -13.210  14.484  73.004  1.00  0.00    -0.575 C  
HETATM    5  C   UNL     1     -11.287  15.410  71.751  1.00  0.00    -0.457 C  
HETATM    6  C   UNL     1     -11.725  12.514  70.085  1.00  0.00    -0.175 C  
HETATM    7  H   UNL     1     -12.606  12.511  71.847  1.00  0.00     0.000 HD 
HETATM    8  O   UNL     1     -11.438  11.328  70.308  1.00  0.00    -0.286 OA 
ENDROOT
BRANCH   6   9
HETATM    9  C   UNL     1     -11.508  13.099  68.678  1.00  0.00    -0.305 C  
HETATM   10  C   UNL     1     -11.887  12.205  67.432  1.00  0.00    -0.227 C  
HETATM   11  N   UNL     1     -12.045  13.040  66.198  1.00  0.00    -0.422 NA 
HETATM   12  N   UNL     1     -10.178  13.749  68.501  1.00  0.00    -0.237 NA 
HETATM   13  C   UNL     1     -10.923  14.012  66.062  1.00  0.00    -0.298 C  
HETATM   14  C   UNL     1     -10.423  14.689  67.369  1.00  0.00    -0.255 C  
BRANCH  11  15
HETATM   15  C   UNL     1     -12.110  12.253  64.944  1.00  0.00    -0.356 C  
BRANCH  15  16
HETATM   16  C   UNL     1     -10.845  11.584  64.468  1.00  0.00    -0.390 A  
HETATM   17  C   UNL     1     -10.313  11.889  63.217  1.00  0.00    -0.391 A  
HETATM   18  N   UNL     1      -9.272  11.238  62.642  1.00  0.00    -0.346 NA 
HETATM   19  C   UNL     1      -9.175   9.838  64.600  1.00  0.00    -0.312 A  
HETATM   20  C   UNL     1      -8.730  10.225  63.347  1.00  0.00    -0.206 A  
HETATM   21  C   UNL     1     -10.251  10.529  65.165  1.00  0.00    -0.358 A  
ENDBRANCH  15  16
ENDBRANCH  11  15
BRANCH  12  22
HETATM   22  C   UNL     1      -8.990  12.877  68.171  1.00  0.00    -0.202 C  
BRANCH  22  23
HETATM   23  C   UNL     1      -7.854  13.418  67.254  1.00  0.00    -0.095 C  
HETATM   24  O   UNL     1      -8.290  14.655  66.666  1.00  0.00    -0.405 OA 
HETATM   25  H   UNL     1      -7.596  14.985  66.106  1.00  0.00     0.000 HD 
BRANCH  23  26
HETATM   26  C   UNL     1      -6.521  13.844  67.936  1.00  0.00    -0.168 C  
HETATM   27  C   UNL     1      -6.393  15.198  68.679  1.00  0.00    -0.088 C  
HETATM   28  C   UNL     1      -5.131  15.163  69.610  1.00  0.00    -0.090 C  
HETATM   29  C   UNL     1      -6.254  16.359  67.671  1.00  0.00    -0.141 C  
HETATM   30  O   UNL     1      -5.807  16.199  66.539  1.00  0.00    -0.135 OA 
HETATM   31  N   UNL     1      -6.671  17.603  68.111  1.00  0.00    -0.199 N  
HETATM   32  H   UNL     1      -6.847  17.749  69.105  1.00  0.00     0.000 HD 
BRANCH  28  33
HETATM   33  C   UNL     1      -5.140  14.152  70.757  1.00  0.00    -0.112 A  
HETATM   34  C   UNL     1      -5.163  12.773  70.511  1.00  0.00    -0.125 A  
HETATM   35  C   UNL     1      -5.170  14.583  72.093  1.00  0.00    -0.168 A  
HETATM   36  C   UNL     1      -5.203  13.660  73.156  1.00  0.00    -0.112 A  
HETATM   37  C   UNL     1      -5.196  11.851  71.573  1.00  0.00     0.018 A  
HETATM   38  C   UNL     1      -5.213  12.296  72.895  1.00  0.00     0.549 A  
ENDBRANCH  28  33
BRANCH  31  39
HETATM   39  C   UNL     1      -6.865  18.723  67.167  1.00  0.00    -0.199 C  
HETATM   40  C   UNL     1      -7.480  21.062  67.893  1.00  0.00     0.027 C  
HETATM   41  C   UNL     1      -8.660  20.308  67.388  1.00  0.00    -0.420 A  
HETATM   42  H   UNL     1      -5.193  20.853  69.156  1.00  0.00     0.000 HD 
HETATM   43  C   UNL     1      -6.298  20.099  67.655  1.00  0.00    -0.225 C  
HETATM   44  O   UNL     1      -5.538  20.018  68.860  1.00  0.00    -0.212 OA 
HETATM   45  C   UNL     1      -9.968  20.785  67.293  1.00  0.00    -0.348 A  
HETATM   46  C   UNL     1     -10.941  19.955  66.738  1.00  0.00    -0.202 A  
HETATM   47  C   UNL     1     -10.600  18.680  66.275  1.00  0.00    -0.396 A  
HETATM   48  C   UNL     1      -9.292  18.200  66.390  1.00  0.00    -0.274 A  
HETATM   49  C   UNL     1      -8.324  19.028  66.966  1.00  0.00    -0.291 A  
ENDBRANCH  31  39
ENDBRANCH  23  26
ENDBRANCH  22  23
ENDBRANCH  12  22
ENDBRANCH   6   9
TORSDOF 8
ENDMDL
MODEL       59
REMARK 921   NORMALIZED FREE ENERGY PREDICTED BY IDOCK:   -5.58 KCAL/MOL
REMARK 922        TOTAL FREE ENERGY PREDICTED BY IDOCK:  -10.16 KCAL/MOL
REMARK 923 INTER-LIGAND FREE ENERGY PREDICTED BY IDOCK:   -9.39 KCAL/MOL
REMARK 924 INTRA-LIGAND FREE ENERGY PREDICTED BY IDOCK:   -0.77 KCAL/MOL
REMARK 927      BINDING AFFINITY PREDICTED BY RF-SCORE:    0.00 PKD
ROOT
HETATM    1  C   UNL     1      -8.577   8.981  69.429  1.00  0.00    -0.137 C  
HETATM    2  C   UNL     1     -10.053   8.844  69.815  1.00  0.00    -0.199 C  
HETATM    3  N   UNL     1     -10.926   9.974  69.362  1.00  0.00    -0.238 N  
HETATM    4  C   UNL     1     -10.097   8.832  71.370  1.00  0.00    -0.354 C  
HETATM    5  C   UNL     1     -10.584   7.478  69.357  1.00  0.00    -0.225 C  
HETATM    6  C   UNL     1     -11.373  10.543  68.199  1.00  0.00    -0.254 C  
HETATM    7  H   UNL     1     -11.302  10.474  70.167  1.00  0.00     0.000 HD 
HETATM    8  O   UNL     1     -12.345  11.301  68.334  1.00  0.00    -0.545 OA 
ENDROOT
BRANCH   6   9
HETATM    9  C   UNL     1     -10.730  10.364  66.812  1.00  0.00    -0.168 C  
HETATM   10  C   UNL     1      -9.488   9.396  66.685  1.00  0.00    -0.177 C  
HETATM   11  N   UNL     1      -9.268   8.988  65.260  1.00  0.00    -0.184 NA 
HETATM   12  N   UNL     1     -10.498  11.649  66.093  1.00  0.00    -0.239 NA 
HETATM   13  C   UNL     1      -9.351  10.163  64.347  1.00  0.00    -0.293 C  
HETATM   14  C   UNL     1     -10.446  11.219  64.666  1.00  0.00    -0.325 C  
BRANCH  11  15
HETATM   15  C   UNL     1      -7.965   8.324  65.020  1.00  0.00    -0.141 C  
BRANCH  15  16
HETATM   16  C   UNL     1      -7.943   6.817  64.961  1.00  0.00    -0.125 A  
HETATM   17  C   UNL     1      -7.917   6.159  63.734  1.00  0.00    -0.101 A  
HETATM   18  N   UNL     1      -8.045   4.819  63.574  1.00  0.00    -0.094 NA 
HETATM   19  C   UNL     1      -8.248   4.639  65.968  1.00  0.00    -0.110 A  
HETATM   20  C   UNL     1      -8.211   4.091  64.697  1.00  0.00    -0.097 A  
HETATM   21  C   UNL     1      -8.114   6.023  66.098  1.00  0.00    -0.110 A  
ENDBRANCH  15  16
ENDBRANCH  11  15
BRANCH  12  22
HETATM   22  C   UNL     1      -9.252  12.439  66.416  1.00  0.00    -0.192 C  
BRANCH  22  23
HETATM   23  C   UNL     1      -9.366  13.910  66.915  1.00  0.00    -0.258 C  
HETATM   24  O   UNL     1     -10.653  14.424  66.533  1.00  0.00    -0.289 OA 
HETATM   25  H   UNL     1     -10.722  15.322  66.837  1.00  0.00     0.000 HD 
BRANCH  23  26
HETATM   26  C   UNL     1      -9.373  14.148  68.453  1.00  0.00    -0.208 C  
HETATM   27  C   UNL     1      -9.240  15.573  69.049  1.00  0.00    -0.238 C  
HETATM   28  C   UNL     1      -9.708  15.556  70.546  1.00  0.00     0.663 C  
HETATM   29  C   UNL     1      -7.776  16.057  68.976  1.00  0.00    -0.216 C  
HETATM   30  O   UNL     1      -6.826  15.280  68.941  1.00  0.00    -0.111 OA 
HETATM   31  N   UNL     1      -7.587  17.427  68.944  1.00  0.00    -0.251 N  
HETATM   32  H   UNL     1      -8.365  18.045  69.173  1.00  0.00     0.000 HD 
BRANCH  28  33
HETATM   33  C   UNL     1     -11.175  15.218  70.812  1.00  0.00    -0.353 A  
HETATM   34  C   UNL     1     -12.004  16.091  71.530  1.00  0.00    -0.539 A  
HETATM   35  C   UNL     1     -11.721  13.999  70.381  1.00  0.00    -0.292 A  
HETATM   36  C   UNL     1     -13.064  13.668  70.643  1.00  0.00    -0.038 A  
HETATM   37  C   UNL     1     -13.346  15.761  71.792  1.00  0.00    -0.450 A  
HETATM   38  C   UNL     1     -13.876  14.551  71.345  1.00  0.00    -0.441 A  
ENDBRANCH  28  33
BRANCH  31  39
HETATM   39  C   UNL     1      -6.278  18.011  68.582  1.00  0.00    -0.206 C  
HETATM   40  C   UNL     1      -5.786  20.486  68.675  1.00  0.00    -0.356 C  
HETATM   41  C   UNL     1      -6.070  20.026  67.287  1.00  0.00    -0.201 A  
HETATM   42  H   UNL     1      -6.349  20.107  71.206  1.00  0.00     0.000 HD 
HETATM   43  C   UNL     1      -5.806  19.184  69.505  1.00  0.00    -0.245 C  
HETATM   44  O   UNL     1      -6.636  19.395  70.646  1.00  0.00     0.094 OA 
HETATM   45  C   UNL     1      -6.069  20.817  66.138  1.00  0.00    -0.277 A  
HETATM   46  C   UNL     1      -6.301  20.203  64.908  1.00  0.00    -0.329 A  
HETATM   47  C   UNL     1      -6.512  18.823  64.837  1.00  0.00    -0.053 A  
HETATM   48  C   UNL     1      -6.531  18.039  65.994  1.00  0.00    -0.299 A  
HETATM   49  C   UNL     1      -6.319  18.661  67.227  1.00  0.00    -0.192 A  
ENDBRANCH  31  39
ENDBRANCH  23  26
ENDBRANCH  22  23
ENDBRANCH  12  22
ENDBRANCH   6   9
TORSDOF 8
ENDMDL
MODEL       60
REMARK 921   NORMALIZED FREE ENERGY PREDICTED BY IDOCK:   -5.53 KCAL/MOL
REMARK 922        TOTAL FREE ENERGY PREDICTED BY IDOCK:  -10.08 KCAL/MOL
REMARK 923 INTER-LIGAND FREE ENERGY PREDICTED BY IDOCK:   -6.84 KCAL/MOL
REMARK 924 INTRA-LIGAND FREE ENERGY PREDICTED BY IDOCK:   -3.24 KCAL/MOL
REMARK 927      BINDING AFFINITY PREDICTED BY RF-SCORE:    0.00 PKD
ROOT
HETATM    1  C   UNL     1     -10.379  13.882  65.140  1.00  0.00    -0.403 C  
HETATM    2  C   UNL     1     -11.340  12.749  64.767  1.00  0.00    -0.309 C  
HETATM    3  N   UNL     1     -10.679  11.431  64.502  1.00  0.00    -0.326 N  
HETATM    4  C   UNL     1     -12.034  13.183  63.444  1.00  0.00    -0.552 C  
HETATM    5  C   UNL     1     -12.450  12.643  65.823  1.00  0.00    -0.159 C  
HETATM    6  C   UNL     1      -9.952  10.479  65.165  1.00  0.00    -0.309 C  
HETATM    7  H   UNL     1     -10.812  11.159  63.528  1.00  0.00     0.000 HD 
HETATM    8  O   UNL     1      -9.876   9.386  64.583  1.00  0.00     0.103 OA 
ENDROOT
BRANCH   6   9
HETATM    9  C   UNL     1      -9.197  10.692  66.489  1.00  0.00    -0.166 C  
HETATM   10  C   UNL     1      -7.656  10.347  66.533  1.00  0.00    -0.118 C  
HETATM   11  N   UNL     1      -6.989  11.008  67.701  1.00  0.00    -0.080 NA 
HETATM   12  N   UNL     1      -9.913  10.148  67.678  1.00  0.00    -0.174 NA 
HETATM   13  C   UNL     1      -7.792  10.835  68.944  1.00  0.00    -0.136 C  
HETATM   14  C   UNL     1      -9.336  10.945  68.799  1.00  0.00    -0.185 C  
BRANCH  11  15
HETATM   15  C   UNL     1      -5.623  10.503  67.976  1.00  0.00    -0.040 C  
BRANCH  15  16
HETATM   16  C   UNL     1      -5.490   9.122  68.568  1.00  0.00    -0.037 A  
HETATM   17  C   UNL     1      -5.755   7.995  67.794  1.00  0.00    -0.038 A  
HETATM   18  N   UNL     1      -5.808   6.727  68.270  1.00  0.00    -0.017 NA 
HETATM   19  C   UNL     1      -5.310   7.617  70.453  1.00  0.00    -0.023 A  
HETATM   20  C   UNL     1      -5.587   6.569  69.590  1.00  0.00    -0.014 A  
HETATM   21  C   UNL     1      -5.264   8.911  69.930  1.00  0.00    -0.029 A  
ENDBRANCH  15  16
ENDBRANCH  11  15
BRANCH  12  22
HETATM   22  C   UNL     1      -9.771   8.678  67.993  1.00  0.00    -0.158 C  
BRANCH  22  23
HETATM   23  C   UNL     1     -11.034   7.771  68.081  1.00  0.00     0.166 C  
HETATM   24  O   UNL     1     -11.275   7.197  66.786  1.00  0.00    -0.551 OA 
HETATM   25  H   UNL     1     -12.046   6.643  66.839  1.00  0.00     0.000 HD 
BRANCH  23  26
HETATM   26  C   UNL     1     -10.945   6.502  68.979  1.00  0.00    -0.378 C  
HETATM   27  C   UNL     1      -9.615   5.724  69.146  1.00  0.00    -0.171 C  
HETATM   28  C   UNL     1      -9.712   4.794  70.404  1.00  0.00    -0.289 C  
HETATM   29  C   UNL     1      -9.328   4.866  67.895  1.00  0.00    -0.128 C  
HETATM   30  O   UNL     1     -10.218   4.469  67.149  1.00  0.00    -0.158 OA 
HETATM   31  N   UNL     1      -7.999   4.569  67.651  1.00  0.00    -0.095 N  
HETATM   32  H   UNL     1      -7.307   4.735  68.381  1.00  0.00     0.000 HD 
BRANCH  28  33
HETATM   33  C   UNL     1      -9.873   5.475  71.763  1.00  0.00    -0.216 A  
HETATM   34  C   UNL     1      -9.415   6.781  71.981  1.00  0.00    -0.144 A  
HETATM   35  C   UNL     1     -10.448   4.791  72.846  1.00  0.00    -0.257 A  
HETATM   36  C   UNL     1     -10.578   5.401  74.108  1.00  0.00    -0.278 A  
HETATM   37  C   UNL     1      -9.546   7.392  73.242  1.00  0.00    -0.281 A  
HETATM   38  C   UNL     1     -10.130   6.702  74.303  1.00  0.00    -0.378 A  
ENDBRANCH  28  33
BRANCH  31  39
HETATM   39  C   UNL     1      -7.564   4.016  66.351  1.00  0.00    -0.089 C  
HETATM   40  C   UNL     1      -5.147   3.883  65.634  1.00  0.00    -0.009 C  
HETATM   41  C   UNL     1      -5.850   5.041  65.013  1.00  0.00    -0.017 A  
HETATM   42  H   UNL     1      -5.002   2.369  67.767  1.00  0.00     0.000 HD 
HETATM   43  C   UNL     1      -6.262   3.149  66.409  1.00  0.00    -0.025 C  
HETATM   44  O   UNL     1      -5.792   2.895  67.732  1.00  0.00    -0.018 OA 
HETATM   45  C   UNL     1      -5.295   5.967  64.128  1.00  0.00    -0.017 A  
HETATM   46  C   UNL     1      -6.122   6.956  63.598  1.00  0.00    -0.043 A  
HETATM   47  C   UNL     1      -7.477   7.002  63.939  1.00  0.00    -0.096 A  
HETATM   48  C   UNL     1      -8.022   6.083  64.841  1.00  0.00    -0.126 A  
HETATM   49  C   UNL     1      -7.186   5.105  65.387  1.00  0.00    -0.068 A  
ENDBRANCH  31  39
ENDBRANCH  23  26
ENDBRANCH  22  23
ENDBRANCH  12  22
ENDBRANCH   6   9
TORSDOF 8
ENDMDL
MODEL       61
REMARK 921   NORMALIZED FREE ENERGY PREDICTED BY IDOCK:   -5.52 KCAL/MOL
REMARK 922        TOTAL FREE ENERGY PREDICTED BY IDOCK:  -10.06 KCAL/MOL
REMARK 923 INTER-LIGAND FREE ENERGY PREDICTED BY IDOCK:  -10.28 KCAL/MOL
REMARK 924 INTRA-LIGAND FREE ENERGY PREDICTED BY IDOCK:    0.22 KCAL/MOL
REMARK 927      BINDING AFFINITY PREDICTED BY RF-SCORE:    0.00 PKD
ROOT
HETATM    1  C   UNL     1     -10.416  13.632  65.595  1.00  0.00    -0.304 C  
HETATM    2  C   UNL     1     -10.858  12.368  64.851  1.00  0.00    -0.297 C  
HETATM    3  N   UNL     1     -10.447  11.084  65.503  1.00  0.00    -0.257 N  
HETATM    4  C   UNL     1     -10.160  12.414  63.461  1.00  0.00    -0.250 C  
HETATM    5  C   UNL     1     -12.368  12.427  64.579  1.00  0.00    -0.519 C  
HETATM    6  C   UNL     1     -10.678  10.381  66.656  1.00  0.00    -0.128 C  
HETATM    7  H   UNL     1      -9.795  10.577  64.905  1.00  0.00     0.000 HD 
HETATM    8  O   UNL     1     -10.332   9.191  66.615  1.00  0.00    -0.259 OA 
ENDROOT
BRANCH   6   9
HETATM    9  C   UNL     1     -11.246  10.966  67.961  1.00  0.00    -0.314 C  
HETATM   10  C   UNL     1     -10.902  12.467  68.317  1.00  0.00    -0.237 C  
HETATM   11  N   UNL     1     -11.857  13.010  69.336  1.00  0.00    -0.322 NA 
HETATM   12  N   UNL     1     -11.075  10.071  69.141  1.00  0.00    -0.215 NA 
HETATM   13  C   UNL     1     -12.058  12.043  70.452  1.00  0.00    -0.321 C  
HETATM   14  C   UNL     1     -12.148  10.540  70.064  1.00  0.00    -0.274 C  
BRANCH  11  15
HETATM   15  C   UNL     1     -11.430  14.298  69.933  1.00  0.00    -0.243 C  
BRANCH  15  16
HETATM   16  C   UNL     1     -12.172  14.789  71.151  1.00  0.00    -0.388 A  
HETATM   17  C   UNL     1     -13.552  14.970  71.111  1.00  0.00    -0.427 A  
HETATM   18  N   UNL     1     -14.285  15.543  72.097  1.00  0.00    -0.539 NA 
HETATM   19  C   UNL     1     -12.236  15.831  73.333  1.00  0.00    -0.625 A  
HETATM   20  C   UNL     1     -13.607  15.963  73.184  1.00  0.00    -0.499 A  
HETATM   21  C   UNL     1     -11.511  15.237  72.298  1.00  0.00    -0.480 A  
ENDBRANCH  15  16
ENDBRANCH  11  15
BRANCH  12  22
HETATM   22  C   UNL     1      -9.753  10.088  69.870  1.00  0.00    -0.203 C  
BRANCH  22  23
HETATM   23  C   UNL     1      -8.788   8.870  69.772  1.00  0.00    -0.144 C  
HETATM   24  O   UNL     1      -8.069   8.754  71.011  1.00  0.00    -0.126 OA 
HETATM   25  H   UNL     1      -7.480   8.010  70.950  1.00  0.00     0.000 HD 
BRANCH  23  26
HETATM   26  C   UNL     1      -9.428   7.456  69.643  1.00  0.00    -0.156 C  
HETATM   27  C   UNL     1      -8.552   6.186  69.495  1.00  0.00    -0.127 C  
HETATM   28  C   UNL     1      -9.416   4.918  69.822  1.00  0.00    -0.223 C  
HETATM   29  C   UNL     1      -7.999   6.072  68.059  1.00  0.00    -0.109 C  
HETATM   30  O   UNL     1      -8.559   6.586  67.094  1.00  0.00    -0.112 OA 
HETATM   31  N   UNL     1      -6.823   5.359  67.911  1.00  0.00    -0.059 N  
HETATM   32  H   UNL     1      -6.490   4.780  68.682  1.00  0.00     0.000 HD 
BRANCH  28  33
HETATM   33  C   UNL     1      -9.952   4.790  71.248  1.00  0.00    -0.270 A  
HETATM   34  C   UNL     1     -11.035   5.562  71.690  1.00  0.00    -0.238 A  
HETATM   35  C   UNL     1      -9.343   3.924  72.169  1.00  0.00    -0.180 A  
HETATM   36  C   UNL     1      -9.813   3.817  73.492  1.00  0.00    -0.156 A  
HETATM   37  C   UNL     1     -11.506   5.455  73.012  1.00  0.00    -0.324 A  
HETATM   38  C   UNL     1     -10.896   4.580  73.910  1.00  0.00    -0.344 A  
ENDBRANCH  28  33
BRANCH  31  39
HETATM   39  C   UNL     1      -6.041   5.420  66.659  1.00  0.00    -0.026 C  
HETATM   40  C   UNL     1      -6.104   7.386  65.075  1.00  0.00    -0.038 C  
HETATM   41  C   UNL     1      -6.955   6.260  64.599  1.00  0.00    -0.051 A  
HETATM   42  H   UNL     1      -5.196   8.626  67.197  1.00  0.00     0.000 HD 
HETATM   43  C   UNL     1      -5.422   6.822  66.340  1.00  0.00    -0.018 C  
HETATM   44  O   UNL     1      -5.572   7.775  67.390  1.00  0.00    -0.034 OA 
HETATM   45  C   UNL     1      -7.709   6.233  63.425  1.00  0.00    -0.098 A  
HETATM   46  C   UNL     1      -8.403   5.065  63.108  1.00  0.00    -0.118 A  
HETATM   47  C   UNL     1      -8.326   3.949  63.946  1.00  0.00    -0.092 A  
HETATM   48  C   UNL     1      -7.584   3.989  65.130  1.00  0.00    -0.081 A  
HETATM   49  C   UNL     1      -6.906   5.167  65.455  1.00  0.00    -0.061 A  
ENDBRANCH  31  39
ENDBRANCH  23  26
ENDBRANCH  22  23
ENDBRANCH  12  22
ENDBRANCH   6   9
TORSDOF 8
ENDMDL
MODEL       62
REMARK 921   NORMALIZED FREE ENERGY PREDICTED BY IDOCK:   -5.51 KCAL/MOL
REMARK 922        TOTAL FREE ENERGY PREDICTED BY IDOCK:  -10.06 KCAL/MOL
REMARK 923 INTER-LIGAND FREE ENERGY PREDICTED BY IDOCK:   -9.59 KCAL/MOL
REMARK 924 INTRA-LIGAND FREE ENERGY PREDICTED BY IDOCK:   -0.47 KCAL/MOL
REMARK 927      BINDING AFFINITY PREDICTED BY RF-SCORE:    0.00 PKD
ROOT
HETATM    1  C   UNL     1      -9.492   7.717  66.303  1.00  0.00    -0.201 C  
HETATM    2  C   UNL     1      -8.336   6.713  66.240  1.00  0.00    -0.125 C  
HETATM    3  N   UNL     1      -7.024   7.239  66.736  1.00  0.00    -0.072 N  
HETATM    4  C   UNL     1      -8.146   6.362  64.736  1.00  0.00    -0.114 C  
HETATM    5  C   UNL     1      -8.744   5.408  66.941  1.00  0.00    -0.112 C  
HETATM    6  C   UNL     1      -6.454   7.689  67.896  1.00  0.00    -0.054 C  
HETATM    7  H   UNL     1      -6.347   7.271  65.974  1.00  0.00     0.000 HD 
HETATM    8  O   UNL     1      -5.215   7.739  67.880  1.00  0.00    -0.029 OA 
ENDROOT
BRANCH   6   9
HETATM    9  C   UNL     1      -7.221   8.182  69.136  1.00  0.00    -0.073 C  
HETATM   10  C   UNL     1      -8.601   7.493  69.482  1.00  0.00    -0.133 C  
HETATM   11  N   UNL     1      -8.989   7.752  70.906  1.00  0.00    -0.146 NA 
HETATM   12  N   UNL     1      -7.312   9.667  69.230  1.00  0.00    -0.074 NA 
HETATM   13  C   UNL     1      -8.802   9.187  71.261  1.00  0.00    -0.112 C  
HETATM   14  C   UNL     1      -7.538   9.888  70.687  1.00  0.00     0.124 C  
BRANCH  11  15
HETATM   15  C   UNL     1     -10.393   7.393  71.220  1.00  0.00    -0.192 C  
BRANCH  15  16
HETATM   16  C   UNL     1     -11.369   8.517  71.462  1.00  0.00    -0.348 A  
HETATM   17  C   UNL     1     -12.488   8.319  72.267  1.00  0.00    -0.335 A  
HETATM   18  N   UNL     1     -13.494   9.214  72.424  1.00  0.00    -0.471 NA 
HETATM   19  C   UNL     1     -12.312  10.676  70.916  1.00  0.00    -0.502 A  
HETATM   20  C   UNL     1     -13.383  10.371  71.741  1.00  0.00    -0.354 A  
HETATM   21  C   UNL     1     -11.293   9.732  70.775  1.00  0.00    -0.416 A  
ENDBRANCH  15  16
ENDBRANCH  11  15
BRANCH  12  22
HETATM   22  C   UNL     1      -8.396  10.372  68.449  1.00  0.00    -0.119 C  
BRANCH  22  23
HETATM   23  C   UNL     1      -8.733  11.862  68.749  1.00  0.00     0.061 C  
HETATM   24  O   UNL     1      -7.658  12.681  68.259  1.00  0.00    -0.116 OA 
HETATM   25  H   UNL     1      -7.864  13.591  68.442  1.00  0.00     0.000 HD 
BRANCH  23  26
HETATM   26  C   UNL     1      -9.961  12.481  68.019  1.00  0.00    -0.219 C  
HETATM   27  C   UNL     1      -9.853  13.830  67.263  1.00  0.00    -0.241 C  
HETATM   28  C   UNL     1     -11.075  13.980  66.291  1.00  0.00    -0.307 C  
HETATM   29  C   UNL     1      -9.841  15.011  68.257  1.00  0.00    -0.219 C  
HETATM   30  O   UNL     1     -10.344  14.936  69.375  1.00  0.00    -0.235 OA 
HETATM   31  N   UNL     1      -9.223  16.169  67.822  1.00  0.00    -0.202 N  
HETATM   32  H   UNL     1      -8.995  16.274  66.833  1.00  0.00     0.000 HD 
BRANCH  28  33
HETATM   33  C   UNL     1     -11.187  12.966  65.153  1.00  0.00    -0.319 A  
HETATM   34  C   UNL     1     -10.073  12.240  64.712  1.00  0.00    -0.271 A  
HETATM   35  C   UNL     1     -12.407  12.766  64.487  1.00  0.00    -0.515 A  
HETATM   36  C   UNL     1     -12.515  11.853  63.420  1.00  0.00    -0.582 A  
HETATM   37  C   UNL     1     -10.180  11.327  63.646  1.00  0.00    -0.446 A  
HETATM   38  C   UNL     1     -11.402  11.132  63.004  1.00  0.00     0.539 A  
ENDBRANCH  28  33
BRANCH  31  39
HETATM   39  C   UNL     1      -8.886  17.258  68.763  1.00  0.00    -0.233 C  
HETATM   40  C   UNL     1      -8.979  19.705  68.151  1.00  0.00    -0.381 C  
HETATM   41  C   UNL     1      -7.588  19.175  68.118  1.00  0.00    -0.321 A  
HETATM   42  H   UNL     1     -11.500  19.110  67.753  1.00  0.00     0.000 HD 
HETATM   43  C   UNL     1      -9.814  18.516  68.671  1.00  0.00    -0.385 C  
HETATM   44  O   UNL     1     -10.937  18.346  67.808  1.00  0.00    -0.323 OA 
HETATM   45  C   UNL     1      -6.435  19.897  67.804  1.00  0.00    -0.263 A  
HETATM   46  C   UNL     1      -5.203  19.249  67.882  1.00  0.00    -0.171 A  
HETATM   47  C   UNL     1      -5.133  17.911  68.281  1.00  0.00    -0.154 A  
HETATM   48  C   UNL     1      -6.293  17.188  68.575  1.00  0.00    -0.157 A  
HETATM   49  C   UNL     1      -7.528  17.835  68.476  1.00  0.00    -0.272 A  
ENDBRANCH  31  39
ENDBRANCH  23  26
ENDBRANCH  22  23
ENDBRANCH  12  22
ENDBRANCH   6   9
TORSDOF 8
ENDMDL
MODEL       63
REMARK 921   NORMALIZED FREE ENERGY PREDICTED BY IDOCK:   -5.50 KCAL/MOL
REMARK 922        TOTAL FREE ENERGY PREDICTED BY IDOCK:  -10.04 KCAL/MOL
REMARK 923 INTER-LIGAND FREE ENERGY PREDICTED BY IDOCK:   -9.13 KCAL/MOL
REMARK 924 INTRA-LIGAND FREE ENERGY PREDICTED BY IDOCK:   -0.91 KCAL/MOL
REMARK 927      BINDING AFFINITY PREDICTED BY RF-SCORE:    0.00 PKD
ROOT
HETATM    1  C   UNL     1      -9.074   5.052  65.984  1.00  0.00    -0.146 C  
HETATM    2  C   UNL     1      -8.574   4.946  64.540  1.00  0.00    -0.146 C  
HETATM    3  N   UNL     1      -8.400   6.259  63.841  1.00  0.00    -0.324 N  
HETATM    4  C   UNL     1      -9.663   4.157  63.758  1.00  0.00    -0.121 C  
HETATM    5  C   UNL     1      -7.301   4.088  64.494  1.00  0.00    -0.071 C  
HETATM    6  C   UNL     1      -7.637   7.393  63.931  1.00  0.00    -0.110 C  
HETATM    7  H   UNL     1      -9.049   6.331  63.058  1.00  0.00     0.000 HD 
HETATM    8  O   UNL     1      -7.649   8.107  62.917  1.00  0.00    -0.109 OA 
ENDROOT
BRANCH   6   9
HETATM    9  C   UNL     1      -6.860   7.852  65.177  1.00  0.00    -0.051 C  
HETATM   10  C   UNL     1      -6.972   6.978  66.489  1.00  0.00    -0.069 C  
HETATM   11  N   UNL     1      -5.850   7.282  67.435  1.00  0.00    -0.029 NA 
HETATM   12  N   UNL     1      -7.012   9.305  65.474  1.00  0.00    -0.080 NA 
HETATM   13  C   UNL     1      -5.651   8.752  67.575  1.00  0.00    -0.039 C  
HETATM   14  C   UNL     1      -5.794   9.602  66.281  1.00  0.00    -0.058 C  
BRANCH  11  15
HETATM   15  C   UNL     1      -6.045   6.725  68.795  1.00  0.00    -0.026 C  
BRANCH  15  16
HETATM   16  C   UNL     1      -6.548   5.308  68.909  1.00  0.00    -0.051 A  
HETATM   17  C   UNL     1      -7.656   5.014  69.699  1.00  0.00    -0.057 A  
HETATM   18  N   UNL     1      -8.092   3.762  69.982  1.00  0.00    -0.053 NA 
HETATM   19  C   UNL     1      -6.270   2.919  68.650  1.00  0.00    -0.029 A  
HETATM   20  C   UNL     1      -7.385   2.743  69.453  1.00  0.00    -0.044 A  
HETATM   21  C   UNL     1      -5.846   4.222  68.379  1.00  0.00    -0.026 A  
ENDBRANCH  15  16
ENDBRANCH  11  15
BRANCH  12  22
HETATM   22  C   UNL     1      -8.233   9.760  66.237  1.00  0.00    -0.116 C  
BRANCH  22  23
HETATM   23  C   UNL     1      -9.652   9.580  65.621  1.00  0.00    -0.277 C  
HETATM   24  O   UNL     1     -10.162   8.295  66.015  1.00  0.00    -0.410 OA 
HETATM   25  H   UNL     1     -11.028   8.185  65.639  1.00  0.00     0.000 HD 
BRANCH  23  26
HETATM   26  C   UNL     1     -10.777  10.533  66.120  1.00  0.00    -0.115 C  
HETATM   27  C   UNL     1     -10.660  11.280  67.473  1.00  0.00    -0.257 C  
HETATM   28  C   UNL     1     -11.690  12.462  67.506  1.00  0.00    -0.425 C  
HETATM   29  C   UNL     1     -10.944  10.320  68.649  1.00  0.00    -0.244 C  
HETATM   30  O   UNL     1     -11.635   9.313  68.525  1.00  0.00     0.454 OA 
HETATM   31  N   UNL     1     -10.369  10.653  69.862  1.00  0.00    -0.444 N  
HETATM   32  H   UNL     1      -9.973  11.585  69.989  1.00  0.00     0.000 HD 
BRANCH  28  33
HETATM   33  C   UNL     1     -11.493  13.585  66.487  1.00  0.00    -0.365 A  
HETATM   34  C   UNL     1     -10.389  14.444  66.556  1.00  0.00    -0.281 A  
HETATM   35  C   UNL     1     -12.441  13.812  65.477  1.00  0.00    -0.548 A  
HETATM   36  C   UNL     1     -12.282  14.859  64.549  1.00  0.00    -0.396 A  
HETATM   37  C   UNL     1     -10.228  15.490  65.628  1.00  0.00    -0.403 A  
HETATM   38  C   UNL     1     -11.174  15.694  64.624  1.00  0.00    -0.380 A  
ENDBRANCH  28  33
BRANCH  31  39
HETATM   39  C   UNL     1     -10.317   9.684  70.977  1.00  0.00    -0.222 C  
HETATM   40  C   UNL     1     -10.396   7.182  70.650  1.00  0.00    -0.217 C  
HETATM   41  C   UNL     1     -11.716   7.731  71.064  1.00  0.00    -0.299 A  
HETATM   42  H   UNL     1      -8.204   7.681  69.302  1.00  0.00     0.000 HD 
HETATM   43  C   UNL     1      -9.457   8.407  70.697  1.00  0.00    -0.167 C  
HETATM   44  O   UNL     1      -8.727   8.456  69.472  1.00  0.00    -0.134 OA 
HETATM   45  C   UNL     1     -12.887   7.001  71.272  1.00  0.00    -0.376 A  
HETATM   46  C   UNL     1     -14.022   7.677  71.718  1.00  0.00    -0.471 A  
HETATM   47  C   UNL     1     -13.974   9.052  71.962  1.00  0.00    -0.472 A  
HETATM   48  C   UNL     1     -12.804   9.782  71.734  1.00  0.00    -0.530 A  
HETATM   49  C   UNL     1     -11.673   9.105  71.268  1.00  0.00    -0.396 A  
ENDBRANCH  31  39
ENDBRANCH  23  26
ENDBRANCH  22  23
ENDBRANCH  12  22
ENDBRANCH   6   9
TORSDOF 8
ENDMDL
MODEL       64
REMARK 921   NORMALIZED FREE ENERGY PREDICTED BY IDOCK:   -5.50 KCAL/MOL
REMARK 922        TOTAL FREE ENERGY PREDICTED BY IDOCK:  -10.03 KCAL/MOL
REMARK 923 INTER-LIGAND FREE ENERGY PREDICTED BY IDOCK:   -8.82 KCAL/MOL
REMARK 924 INTRA-LIGAND FREE ENERGY PREDICTED BY IDOCK:   -1.21 KCAL/MOL
REMARK 927      BINDING AFFINITY PREDICTED BY RF-SCORE:    0.00 PKD
ROOT
HETATM    1  C   UNL     1      -9.976   7.299  66.672  1.00  0.00    -0.246 C  
HETATM    2  C   UNL     1      -8.776   6.349  66.614  1.00  0.00    -0.127 C  
HETATM    3  N   UNL     1      -7.509   6.907  67.186  1.00  0.00    -0.093 N  
HETATM    4  C   UNL     1      -8.511   6.073  65.106  1.00  0.00    -0.112 C  
HETATM    5  C   UNL     1      -9.153   4.998  67.241  1.00  0.00    -0.117 C  
HETATM    6  C   UNL     1      -7.006   7.329  68.387  1.00  0.00    -0.079 C  
HETATM    7  H   UNL     1      -6.804   7.002  66.455  1.00  0.00     0.000 HD 
HETATM    8  O   UNL     1      -5.771   7.432  68.425  1.00  0.00    -0.022 OA 
ENDROOT
BRANCH   6   9
HETATM    9  C   UNL     1      -7.843   7.734  69.614  1.00  0.00    -0.107 C  
HETATM   10  C   UNL     1      -8.915   6.708  70.157  1.00  0.00    -0.152 C  
HETATM   11  N   UNL     1      -9.311   7.037  71.564  1.00  0.00    -0.154 NA 
HETATM   12  N   UNL     1      -8.402   9.114  69.526  1.00  0.00    -0.120 NA 
HETATM   13  C   UNL     1      -9.580   8.495  71.718  1.00  0.00    -0.267 C  
HETATM   14  C   UNL     1      -8.631   9.464  70.957  1.00  0.00     0.019 C  
BRANCH  11  15
HETATM   15  C   UNL     1     -10.512   6.308  72.036  1.00  0.00    -0.207 C  
BRANCH  15  16
HETATM   16  C   UNL     1     -10.303   4.982  72.725  1.00  0.00    -0.243 A  
HETATM   17  C   UNL     1      -9.021   4.459  72.874  1.00  0.00    -0.117 A  
HETATM   18  N   UNL     1      -8.744   3.217  73.342  1.00  0.00    -0.077 NA 
HETATM   19  C   UNL     1     -11.117   2.869  73.574  1.00  0.00    -0.316 A  
HETATM   20  C   UNL     1      -9.801   2.450  73.678  1.00  0.00    -0.095 A  
HETATM   21  C   UNL     1     -11.368   4.154  73.088  1.00  0.00    -0.208 A  
ENDBRANCH  15  16
ENDBRANCH  11  15
BRANCH  12  22
HETATM   22  C   UNL     1      -9.683   9.323  68.755  1.00  0.00    -0.157 C  
BRANCH  22  23
HETATM   23  C   UNL     1     -10.182  10.764  68.443  1.00  0.00    -0.175 C  
HETATM   24  O   UNL     1      -9.147  11.695  68.803  1.00  0.00    -0.338 OA 
HETATM   25  H   UNL     1      -9.452  12.575  68.613  1.00  0.00     0.000 HD 
BRANCH  23  26
HETATM   26  C   UNL     1     -10.432  11.130  66.951  1.00  0.00    -0.289 C  
HETATM   27  C   UNL     1      -9.705  12.325  66.281  1.00  0.00    -0.254 C  
HETATM   28  C   UNL     1      -9.808  12.188  64.722  1.00  0.00    -0.157 C  
HETATM   29  C   UNL     1     -10.340  13.661  66.721  1.00  0.00    -0.268 C  
HETATM   30  O   UNL     1     -11.504  13.745  67.100  1.00  0.00    -0.310 OA 
HETATM   31  N   UNL     1      -9.518  14.773  66.672  1.00  0.00    -0.259 N  
HETATM   32  H   UNL     1      -8.631  14.718  66.171  1.00  0.00     0.000 HD 
BRANCH  28  33
HETATM   33  C   UNL     1      -9.122  10.980  64.083  1.00  0.00    -0.110 A  
HETATM   34  C   UNL     1      -9.634  10.382  62.924  1.00  0.00    -0.331 A  
HETATM   35  C   UNL     1      -7.982  10.409  64.669  1.00  0.00    -0.092 A  
HETATM   36  C   UNL     1      -7.358   9.281  64.102  1.00  0.00    -0.106 A  
HETATM   37  C   UNL     1      -9.011   9.255  62.357  1.00  0.00    -0.216 A  
HETATM   38  C   UNL     1      -7.871   8.708  62.945  1.00  0.00    -0.137 A  
ENDBRANCH  28  33
BRANCH  31  39
HETATM   39  C   UNL     1      -9.901  16.039  67.332  1.00  0.00    -0.236 C  
HETATM   40  C   UNL     1      -9.549  18.313  66.292  1.00  0.00    -0.256 C  
HETATM   41  C   UNL     1      -8.502  17.994  67.301  1.00  0.00    -0.237 A  
HETATM   42  H   UNL     1     -11.143  17.298  64.476  1.00  0.00     0.000 HD 
HETATM   43  C   UNL     1     -10.520  17.116  66.379  1.00  0.00    -0.255 C  
HETATM   44  O   UNL     1     -10.767  16.645  65.055  1.00  0.00    -0.677 OA 
HETATM   45  C   UNL     1      -7.437  18.815  67.676  1.00  0.00    -0.244 A  
HETATM   46  C   UNL     1      -6.582  18.375  68.686  1.00  0.00    -0.241 A  
HETATM   47  C   UNL     1      -6.804  17.146  69.312  1.00  0.00    -0.209 A  
HETATM   48  C   UNL     1      -7.860  16.319  68.920  1.00  0.00    -0.224 A  
HETATM   49  C   UNL     1      -8.704  16.753  67.893  1.00  0.00    -0.203 A  
ENDBRANCH  31  39
ENDBRANCH  23  26
ENDBRANCH  22  23
ENDBRANCH  12  22
ENDBRANCH   6   9
TORSDOF 8
ENDMDL
MODEL       65
REMARK 921   NORMALIZED FREE ENERGY PREDICTED BY IDOCK:   -5.49 KCAL/MOL
REMARK 922        TOTAL FREE ENERGY PREDICTED BY IDOCK:  -10.03 KCAL/MOL
REMARK 923 INTER-LIGAND FREE ENERGY PREDICTED BY IDOCK:   -9.72 KCAL/MOL
REMARK 924 INTRA-LIGAND FREE ENERGY PREDICTED BY IDOCK:   -0.31 KCAL/MOL
REMARK 927      BINDING AFFINITY PREDICTED BY RF-SCORE:    0.00 PKD
ROOT
HETATM    1  C   UNL     1     -10.275   4.687  66.170  1.00  0.00    -0.308 C  
HETATM    2  C   UNL     1      -9.653   4.213  64.852  1.00  0.00    -0.178 C  
HETATM    3  N   UNL     1      -8.902   5.269  64.101  1.00  0.00    -0.338 N  
HETATM    4  C   UNL     1     -10.837   3.767  63.947  1.00  0.00    -0.196 C  
HETATM    5  C   UNL     1      -8.803   2.958  65.102  1.00  0.00    -0.129 C  
HETATM    6  C   UNL     1      -7.790   6.056  64.242  1.00  0.00    -0.113 C  
HETATM    7  H   UNL     1      -9.360   5.461  63.210  1.00  0.00     0.000 HD 
HETATM    8  O   UNL     1      -7.391   6.582  63.193  1.00  0.00    -0.054 OA 
ENDROOT
BRANCH   6   9
HETATM    9  C   UNL     1      -7.082   6.371  65.571  1.00  0.00    -0.065 C  
HETATM   10  C   UNL     1      -7.004   5.232  66.664  1.00  0.00    -0.064 C  
HETATM   11  N   UNL     1      -5.935   5.526  67.672  1.00  0.00    -0.021 NA 
HETATM   12  N   UNL     1      -7.488   7.676  66.169  1.00  0.00    -0.081 NA 
HETATM   13  C   UNL     1      -6.003   6.944  68.127  1.00  0.00    -0.032 C  
HETATM   14  C   UNL     1      -6.326   8.010  67.042  1.00  0.00    -0.056 C  
BRANCH  11  15
HETATM   15  C   UNL     1      -5.995   4.666  68.878  1.00  0.00    -0.025 C  
BRANCH  15  16
HETATM   16  C   UNL     1      -7.357   4.326  69.432  1.00  0.00    -0.051 A  
HETATM   17  C   UNL     1      -8.014   5.211  70.283  1.00  0.00    -0.082 A  
HETATM   18  N   UNL     1      -9.164   4.934  70.945  1.00  0.00    -0.140 NA 
HETATM   19  C   UNL     1      -9.125   2.751  69.926  1.00  0.00    -0.190 A  
HETATM   20  C   UNL     1      -9.690   3.708  70.753  1.00  0.00    -0.152 A  
HETATM   21  C   UNL     1      -7.939   3.068  69.259  1.00  0.00    -0.058 A  
ENDBRANCH  15  16
ENDBRANCH  11  15
BRANCH  12  22
HETATM   22  C   UNL     1      -8.754   7.727  66.991  1.00  0.00    -0.129 C  
BRANCH  22  23
HETATM   23  C   UNL     1      -9.651   8.999  66.966  1.00  0.00    -0.176 C  
HETATM   24  O   UNL     1     -11.010   8.596  66.728  1.00  0.00    -0.169 OA 
HETATM   25  H   UNL     1     -11.558   9.373  66.713  1.00  0.00     0.000 HD 
BRANCH  23  26
HETATM   26  C   UNL     1      -9.788   9.807  68.290  1.00  0.00    -0.167 C  
HETATM   27  C   UNL     1     -11.029  10.692  68.570  1.00  0.00    -0.296 C  
HETATM   28  C   UNL     1     -11.099  11.019  70.102  1.00  0.00    -0.175 C  
HETATM   29  C   UNL     1     -10.950  12.008  67.769  1.00  0.00    -0.232 C  
HETATM   30  O   UNL     1      -9.884  12.491  67.399  1.00  0.00    -0.197 OA 
HETATM   31  N   UNL     1     -12.156  12.621  67.478  1.00  0.00    -0.231 N  
HETATM   32  H   UNL     1     -13.001  12.314  67.960  1.00  0.00     0.000 HD 
BRANCH  28  33
HETATM   33  C   UNL     1     -11.305   9.842  71.057  1.00  0.00    -0.460 A  
HETATM   34  C   UNL     1     -12.578   9.514  71.543  1.00  0.00    -0.462 A  
HETATM   35  C   UNL     1     -10.213   9.083  71.507  1.00  0.00    -0.414 A  
HETATM   36  C   UNL     1     -10.390   8.013  72.405  1.00  0.00    -0.355 A  
HETATM   37  C   UNL     1     -12.754   8.445  72.440  1.00  0.00    -0.346 A  
HETATM   38  C   UNL     1     -11.660   7.693  72.868  1.00  0.00    -0.280 A  
ENDBRANCH  28  33
BRANCH  31  39
HETATM   39  C   UNL     1     -12.242  13.710  66.483  1.00  0.00    -0.404 C  
HETATM   40  C   UNL     1     -10.580  14.015  64.607  1.00  0.00    -0.416 C  
HETATM   41  C   UNL     1     -10.318  14.945  65.741  1.00  0.00    -0.351 A  
HETATM   42  H   UNL     1     -11.462  11.634  63.960  1.00  0.00     0.000 HD 
HETATM   43  C   UNL     1     -11.880  13.291  65.019  1.00  0.00    -0.352 C  
HETATM   44  O   UNL     1     -11.682  11.888  64.848  1.00  0.00    -0.290 OA 
HETATM   45  C   UNL     1      -9.299  15.897  65.811  1.00  0.00    -0.280 A  
HETATM   46  C   UNL     1      -9.240  16.725  66.931  1.00  0.00    -0.249 A  
HETATM   47  C   UNL     1     -10.193  16.608  67.947  1.00  0.00    -0.284 A  
HETATM   48  C   UNL     1     -11.199  15.639  67.880  1.00  0.00    -0.328 A  
HETATM   49  C   UNL     1     -11.243  14.797  66.766  1.00  0.00    -0.344 A  
ENDBRANCH  31  39
ENDBRANCH  23  26
ENDBRANCH  22  23
ENDBRANCH  12  22
ENDBRANCH   6   9
TORSDOF 8
ENDMDL
MODEL       66
REMARK 921   NORMALIZED FREE ENERGY PREDICTED BY IDOCK:   -5.49 KCAL/MOL
REMARK 922        TOTAL FREE ENERGY PREDICTED BY IDOCK:  -10.02 KCAL/MOL
REMARK 923 INTER-LIGAND FREE ENERGY PREDICTED BY IDOCK:   -7.76 KCAL/MOL
REMARK 924 INTRA-LIGAND FREE ENERGY PREDICTED BY IDOCK:   -2.26 KCAL/MOL
REMARK 927      BINDING AFFINITY PREDICTED BY RF-SCORE:    0.00 PKD
ROOT
HETATM    1  C   UNL     1     -10.088   5.674  67.944  1.00  0.00    -0.207 C  
HETATM    2  C   UNL     1      -9.541   4.957  66.705  1.00  0.00    -0.161 C  
HETATM    3  N   UNL     1      -8.359   5.622  66.069  1.00  0.00    -0.119 N  
HETATM    4  C   UNL     1     -10.687   4.967  65.654  1.00  0.00    -0.139 C  
HETATM    5  C   UNL     1      -9.271   3.481  67.037  1.00  0.00    -0.213 C  
HETATM    6  C   UNL     1      -7.056   5.929  66.360  1.00  0.00    -0.068 C  
HETATM    7  H   UNL     1      -8.598   5.945  65.132  1.00  0.00     0.000 HD 
HETATM    8  O   UNL     1      -6.363   6.229  65.376  1.00  0.00    -0.036 OA 
ENDROOT
BRANCH   6   9
HETATM    9  C   UNL     1      -6.446   5.993  67.771  1.00  0.00    -0.046 C  
HETATM   10  C   UNL     1      -6.909   4.918  68.833  1.00  0.00    -0.051 C  
HETATM   11  N   UNL     1      -5.935   4.829  69.968  1.00  0.00    -0.020 NA 
HETATM   12  N   UNL     1      -6.430   7.366  68.353  1.00  0.00    -0.043 NA 
HETATM   13  C   UNL     1      -5.547   6.184  70.450  1.00  0.00    -0.014 C  
HETATM   14  C   UNL     1      -5.338   7.278  69.365  1.00  0.00    -0.015 C  
BRANCH  11  15
HETATM   15  C   UNL     1      -6.440   4.066  71.134  1.00  0.00    -0.026 C  
BRANCH  15  16
HETATM   16  C   UNL     1      -7.833   4.374  71.625  1.00  0.00    -0.080 A  
HETATM   17  C   UNL     1      -8.060   5.463  72.463  1.00  0.00    -0.103 A  
HETATM   18  N   UNL     1      -9.240   5.734  73.073  1.00  0.00    -0.140 NA 
HETATM   19  C   UNL     1     -10.139   3.761  72.021  1.00  0.00    -0.209 A  
HETATM   20  C   UNL     1     -10.251   4.873  72.839  1.00  0.00    -0.173 A  
HETATM   21  C   UNL     1      -8.909   3.510  71.409  1.00  0.00    -0.137 A  
ENDBRANCH  15  16
ENDBRANCH  11  15
BRANCH  12  22
HETATM   22  C   UNL     1      -7.684   7.878  69.021  1.00  0.00    -0.101 C  
BRANCH  22  23
HETATM   23  C   UNL     1      -7.621   9.126  69.951  1.00  0.00    -0.080 C  
HETATM   24  O   UNL     1      -6.817  10.132  69.312  1.00  0.00    -0.054 OA 
HETATM   25  H   UNL     1      -6.778  10.893  69.879  1.00  0.00     0.000 HD 
BRANCH  23  26
HETATM   26  C   UNL     1      -8.948   9.897  70.208  1.00  0.00    -0.094 C  
HETATM   27  C   UNL     1     -10.029  10.032  69.105  1.00  0.00    -0.213 C  
HETATM   28  C   UNL     1     -11.389  10.457  69.760  1.00  0.00    -0.353 C  
HETATM   29  C   UNL     1      -9.610  11.090  68.062  1.00  0.00    -0.170 C  
HETATM   30  O   UNL     1      -8.840  12.009  68.328  1.00  0.00    -0.179 OA 
HETATM   31  N   UNL     1     -10.147  10.945  66.796  1.00  0.00    -0.208 N  
HETATM   32  H   UNL     1     -10.928  10.305  66.654  1.00  0.00     0.000 HD 
BRANCH  28  33
HETATM   33  C   UNL     1     -12.030   9.469  70.736  1.00  0.00    -0.326 A  
HETATM   34  C   UNL     1     -11.683   8.112  70.731  1.00  0.00    -0.211 A  
HETATM   35  C   UNL     1     -13.020   9.892  71.637  1.00  0.00    -0.536 A  
HETATM   36  C   UNL     1     -13.634   8.985  72.523  1.00  0.00    -0.492 A  
HETATM   37  C   UNL     1     -12.295   7.206  71.616  1.00  0.00    -0.398 A  
HETATM   38  C   UNL     1     -13.268   7.645  72.513  1.00  0.00     0.299 A  
ENDBRANCH  28  33
BRANCH  31  39
HETATM   39  C   UNL     1      -9.610  11.701  65.645  1.00  0.00    -0.229 C  
HETATM   40  C   UNL     1     -10.714  11.749  63.374  1.00  0.00    -0.468 C  
HETATM   41  C   UNL     1      -9.562  10.806  63.414  1.00  0.00    -0.375 A  
HETATM   42  H   UNL     1     -12.666  12.794  64.777  1.00  0.00     0.000 HD 
HETATM   43  C   UNL     1     -10.692  12.416  64.767  1.00  0.00    -0.298 C  
HETATM   44  O   UNL     1     -12.009  12.360  65.310  1.00  0.00    -0.404 OA 
HETATM   45  C   UNL     1      -9.097  10.026  62.355  1.00  0.00    -0.310 A  
HETATM   46  C   UNL     1      -7.962   9.240  62.557  1.00  0.00    -0.128 A  
HETATM   47  C   UNL     1      -7.305   9.253  63.790  1.00  0.00    -0.101 A  
HETATM   48  C   UNL     1      -7.788  10.022  64.853  1.00  0.00    -0.141 A  
HETATM   49  C   UNL     1      -8.937  10.793  64.654  1.00  0.00    -0.191 A  
ENDBRANCH  31  39
ENDBRANCH  23  26
ENDBRANCH  22  23
ENDBRANCH  12  22
ENDBRANCH   6   9
TORSDOF 8
ENDMDL
MODEL       67
REMARK 921   NORMALIZED FREE ENERGY PREDICTED BY IDOCK:   -5.46 KCAL/MOL
REMARK 922        TOTAL FREE ENERGY PREDICTED BY IDOCK:   -9.99 KCAL/MOL
REMARK 923 INTER-LIGAND FREE ENERGY PREDICTED BY IDOCK:   -7.41 KCAL/MOL
REMARK 924 INTRA-LIGAND FREE ENERGY PREDICTED BY IDOCK:   -2.57 KCAL/MOL
REMARK 927      BINDING AFFINITY PREDICTED BY RF-SCORE:    0.00 PKD
ROOT
HETATM    1  C   UNL     1     -13.419   9.754  70.985  1.00  0.00    -0.243 C  
HETATM    2  C   UNL     1     -12.199  10.628  70.673  1.00  0.00    -0.365 C  
HETATM    3  N   UNL     1     -10.927  10.179  71.323  1.00  0.00    -0.180 N  
HETATM    4  C   UNL     1     -12.522  12.043  71.234  1.00  0.00    -0.303 C  
HETATM    5  C   UNL     1     -12.053  10.789  69.152  1.00  0.00    -0.227 C  
HETATM    6  C   UNL     1     -10.063   9.117  71.297  1.00  0.00    -0.318 C  
HETATM    7  H   UNL     1     -10.604  10.881  71.988  1.00  0.00     0.000 HD 
HETATM    8  O   UNL     1      -8.956   9.337  71.810  1.00  0.00    -0.298 OA 
ENDROOT
BRANCH   6   9
HETATM    9  C   UNL     1     -10.390   7.711  70.763  1.00  0.00    -0.203 C  
HETATM   10  C   UNL     1      -9.806   6.464  71.537  1.00  0.00    -0.168 C  
HETATM   11  N   UNL     1     -10.552   5.213  71.185  1.00  0.00    -0.173 NA 
HETATM   12  N   UNL     1     -10.207   7.575  69.290  1.00  0.00    -0.196 NA 
HETATM   13  C   UNL     1     -10.752   5.106  69.712  1.00  0.00     0.039 C  
HETATM   14  C   UNL     1     -11.091   6.422  68.956  1.00  0.00    -0.358 C  
BRANCH  11  15
HETATM   15  C   UNL     1      -9.886   3.969  71.638  1.00  0.00    -0.183 C  
BRANCH  15  16
HETATM   16  C   UNL     1      -8.627   4.104  72.458  1.00  0.00    -0.108 A  
HETATM   17  C   UNL     1      -7.395   3.737  71.924  1.00  0.00    -0.055 A  
HETATM   18  N   UNL     1      -6.235   3.681  72.624  1.00  0.00    -0.009 NA 
HETATM   19  C   UNL     1      -7.474   4.390  74.565  1.00  0.00    -0.076 A  
HETATM   20  C   UNL     1      -6.305   4.006  73.931  1.00  0.00    -0.037 A  
HETATM   21  C   UNL     1      -8.652   4.436  73.815  1.00  0.00    -0.099 A  
ENDBRANCH  15  16
ENDBRANCH  11  15
BRANCH  12  22
HETATM   22  C   UNL     1      -8.819   7.303  68.760  1.00  0.00    -0.127 C  
BRANCH  22  23
HETATM   23  C   UNL     1      -8.045   8.413  67.989  1.00  0.00    -0.123 C  
HETATM   24  O   UNL     1      -8.917   9.541  67.812  1.00  0.00    -0.123 OA 
HETATM   25  H   UNL     1      -8.445  10.218  67.341  1.00  0.00     0.000 HD 
BRANCH  23  26
HETATM   26  C   UNL     1      -6.824   9.064  68.701  1.00  0.00    -0.063 C  
HETATM   27  C   UNL     1      -6.945  10.433  69.418  1.00  0.00    -0.091 C  
HETATM   28  C   UNL     1      -5.727  10.623  70.386  1.00  0.00    -0.094 C  
HETATM   29  C   UNL     1      -6.965  11.584  68.389  1.00  0.00    -0.077 C  
HETATM   30  O   UNL     1      -6.460  11.481  67.275  1.00  0.00    -0.086 OA 
HETATM   31  N   UNL     1      -7.595  12.749  68.789  1.00  0.00    -0.277 N  
HETATM   32  H   UNL     1      -7.826  12.881  69.773  1.00  0.00     0.000 HD 
BRANCH  28  33
HETATM   33  C   UNL     1      -5.607   9.644  71.555  1.00  0.00    -0.067 A  
HETATM   34  C   UNL     1      -5.916   8.286  71.401  1.00  0.00    -0.037 A  
HETATM   35  C   UNL     1      -5.226  10.091  72.830  1.00  0.00     0.092 A  
HETATM   36  C   UNL     1      -5.138   9.202  73.918  1.00  0.00    -0.109 A  
HETATM   37  C   UNL     1      -5.827   7.397  72.488  1.00  0.00    -0.040 A  
HETATM   38  C   UNL     1      -5.435   7.856  73.745  1.00  0.00    -0.049 A  
ENDBRANCH  28  33
BRANCH  31  39
HETATM   39  C   UNL     1      -7.940  13.806  67.815  1.00  0.00    -0.169 C  
HETATM   40  C   UNL     1      -9.527  15.703  68.324  1.00  0.00    -0.200 C  
HETATM   41  C   UNL     1     -10.182  14.627  67.530  1.00  0.00    -0.225 A  
HETATM   42  H   UNL     1      -7.720  16.207  70.154  1.00  0.00     0.000 HD 
HETATM   43  C   UNL     1      -8.056  15.245  68.421  1.00  0.00    -0.137 C  
HETATM   44  O   UNL     1      -7.650  15.334  69.786  1.00  0.00    -0.203 OA 
HETATM   45  C   UNL     1     -11.504  14.616  67.085  1.00  0.00    -0.380 A  
HETATM   46  C   UNL     1     -11.933  13.547  66.299  1.00  0.00    -0.457 A  
HETATM   47  C   UNL     1     -11.046  12.522  65.958  1.00  0.00    -0.329 A  
HETATM   48  C   UNL     1      -9.728  12.528  66.423  1.00  0.00    -0.253 A  
HETATM   49  C   UNL     1      -9.307  13.591  67.228  1.00  0.00    -0.233 A  
ENDBRANCH  31  39
ENDBRANCH  23  26
ENDBRANCH  22  23
ENDBRANCH  12  22
ENDBRANCH   6   9
TORSDOF 8
ENDMDL
MODEL       68
REMARK 921   NORMALIZED FREE ENERGY PREDICTED BY IDOCK:   -5.44 KCAL/MOL
REMARK 922        TOTAL FREE ENERGY PREDICTED BY IDOCK:   -9.95 KCAL/MOL
REMARK 923 INTER-LIGAND FREE ENERGY PREDICTED BY IDOCK:   -9.62 KCAL/MOL
REMARK 924 INTRA-LIGAND FREE ENERGY PREDICTED BY IDOCK:   -0.33 KCAL/MOL
REMARK 927      BINDING AFFINITY PREDICTED BY RF-SCORE:    0.00 PKD
ROOT
HETATM    1  C   UNL     1     -10.636   6.025  66.951  1.00  0.00    -0.384 C  
HETATM    2  C   UNL     1      -9.696   4.894  66.521  1.00  0.00    -0.186 C  
HETATM    3  N   UNL     1      -8.336   5.342  66.086  1.00  0.00    -0.114 N  
HETATM    4  C   UNL     1     -10.366   4.214  65.292  1.00  0.00    -0.184 C  
HETATM    5  C   UNL     1      -9.633   3.826  67.624  1.00  0.00    -0.199 C  
HETATM    6  C   UNL     1      -7.224   5.951  66.604  1.00  0.00    -0.074 C  
HETATM    7  H   UNL     1      -8.193   5.129  65.098  1.00  0.00     0.000 HD 
HETATM    8  O   UNL     1      -6.202   5.840  65.911  1.00  0.00    -0.032 OA 
ENDROOT
BRANCH   6   9
HETATM    9  C   UNL     1      -7.183   6.784  67.897  1.00  0.00    -0.091 C  
HETATM   10  C   UNL     1      -7.995   6.262  69.148  1.00  0.00    -0.110 C  
HETATM   11  N   UNL     1      -7.511   6.906  70.411  1.00  0.00    -0.084 NA 
HETATM   12  N   UNL     1      -7.400   8.243  67.674  1.00  0.00    -0.091 NA 
HETATM   13  C   UNL     1      -7.347   8.377  70.234  1.00  0.00    -0.055 C  
HETATM   14  C   UNL     1      -6.762   8.855  68.875  1.00  0.00    -0.053 C  
BRANCH  11  15
HETATM   15  C   UNL     1      -8.405   6.693  71.574  1.00  0.00    -0.120 C  
BRANCH  15  16
HETATM   16  C   UNL     1      -8.743   5.272  71.949  1.00  0.00    -0.134 A  
HETATM   17  C   UNL     1      -7.732   4.353  72.217  1.00  0.00    -0.086 A  
HETATM   18  N   UNL     1      -7.927   3.026  72.415  1.00  0.00    -0.058 NA 
HETATM   19  C   UNL     1     -10.282   3.410  72.084  1.00  0.00    -0.145 A  
HETATM   20  C   UNL     1      -9.199   2.586  72.340  1.00  0.00    -0.085 A  
HETATM   21  C   UNL     1     -10.046   4.772  71.883  1.00  0.00    -0.264 A  
ENDBRANCH  15  16
ENDBRANCH  11  15
BRANCH  12  22
HETATM   22  C   UNL     1      -8.818   8.748  67.556  1.00  0.00    -0.134 C  
BRANCH  22  23
HETATM   23  C   UNL     1      -9.109  10.278  67.587  1.00  0.00    -0.137 C  
HETATM   24  O   UNL     1     -10.123  10.571  66.611  1.00  0.00    -0.206 OA 
HETATM   25  H   UNL     1     -10.300  11.504  66.630  1.00  0.00     0.000 HD 
BRANCH  23  26
HETATM   26  C   UNL     1      -9.740  10.863  68.884  1.00  0.00    -0.198 C  
HETATM   27  C   UNL     1     -11.100  11.604  68.855  1.00  0.00    -0.287 C  
HETATM   28  C   UNL     1     -11.677  11.689  70.311  1.00  0.00    -0.355 C  
HETATM   29  C   UNL     1     -10.929  13.030  68.289  1.00  0.00    -0.260 C  
HETATM   30  O   UNL     1      -9.864  13.638  68.344  1.00  0.00    -0.225 OA 
HETATM   31  N   UNL     1     -12.049  13.593  67.703  1.00  0.00    -0.346 N  
HETATM   32  H   UNL     1     -12.960  13.158  67.846  1.00  0.00     0.000 HD 
BRANCH  28  33
HETATM   33  C   UNL     1     -12.031  10.369  70.997  1.00  0.00    -0.481 A  
HETATM   34  C   UNL     1     -11.036   9.478  71.417  1.00  0.00    -0.415 A  
HETATM   35  C   UNL     1     -13.371   9.994  71.184  1.00  0.00    -0.379 A  
HETATM   36  C   UNL     1     -13.707   8.769  71.793  1.00  0.00    -0.461 A  
HETATM   37  C   UNL     1     -11.371   8.254  72.026  1.00  0.00    -0.390 A  
HETATM   38  C   UNL     1     -12.707   7.903  72.215  1.00  0.00    -0.191 A  
ENDBRANCH  28  33
BRANCH  31  39
HETATM   39  C   UNL     1     -11.948  14.812  66.873  1.00  0.00    -0.192 C  
HETATM   40  C   UNL     1      -9.906  15.405  65.512  1.00  0.00    -0.359 C  
HETATM   41  C   UNL     1      -9.963  16.165  66.791  1.00  0.00    -0.264 A  
HETATM   42  H   UNL     1     -10.498  13.130  64.354  1.00  0.00     0.000 HD 
HETATM   43  C   UNL     1     -11.230  14.612  65.497  1.00  0.00    -0.343 C  
HETATM   44  O   UNL     1     -10.933  13.251  65.190  1.00  0.00    -0.285 OA 
HETATM   45  C   UNL     1      -9.035  17.110  67.233  1.00  0.00    -0.228 A  
HETATM   46  C   UNL     1      -9.281  17.771  68.436  1.00  0.00    -0.285 A  
HETATM   47  C   UNL     1     -10.441  17.497  69.168  1.00  0.00    -0.190 A  
HETATM   48  C   UNL     1     -11.356  16.535  68.730  1.00  0.00    -0.221 A  
HETATM   49  C   UNL     1     -11.096  15.860  67.534  1.00  0.00    -0.235 A  
ENDBRANCH  31  39
ENDBRANCH  23  26
ENDBRANCH  22  23
ENDBRANCH  12  22
ENDBRANCH   6   9
TORSDOF 8
ENDMDL
MODEL       69
REMARK 921   NORMALIZED FREE ENERGY PREDICTED BY IDOCK:   -5.43 KCAL/MOL
REMARK 922        TOTAL FREE ENERGY PREDICTED BY IDOCK:   -9.94 KCAL/MOL
REMARK 923 INTER-LIGAND FREE ENERGY PREDICTED BY IDOCK:   -9.73 KCAL/MOL
REMARK 924 INTRA-LIGAND FREE ENERGY PREDICTED BY IDOCK:   -0.21 KCAL/MOL
REMARK 927      BINDING AFFINITY PREDICTED BY RF-SCORE:    0.00 PKD
ROOT
HETATM    1  C   UNL     1     -13.775   7.294  70.856  1.00  0.00     0.093 C  
HETATM    2  C   UNL     1     -13.229   8.335  71.838  1.00  0.00    -0.344 C  
HETATM    3  N   UNL     1     -12.096   7.856  72.692  1.00  0.00    -0.592 N  
HETATM    4  C   UNL     1     -14.403   8.688  72.797  1.00  0.00    -0.076 C  
HETATM    5  C   UNL     1     -12.884   9.629  71.084  1.00  0.00    -0.400 C  
HETATM    6  C   UNL     1     -10.801   7.429  72.560  1.00  0.00    -0.283 C  
HETATM    7  H   UNL     1     -12.374   7.843  73.673  1.00  0.00     0.000 HD 
HETATM    8  O   UNL     1     -10.149   7.420  73.615  1.00  0.00    -0.319 OA 
ENDROOT
BRANCH   6   9
HETATM    9  C   UNL     1     -10.157   6.915  71.261  1.00  0.00    -0.190 C  
HETATM   10  C   UNL     1      -8.589   6.720  71.232  1.00  0.00    -0.125 C  
HETATM   11  N   UNL     1      -8.180   5.822  70.105  1.00  0.00    -0.114 NA 
HETATM   12  N   UNL     1     -10.644   7.614  70.037  1.00  0.00    -0.234 NA 
HETATM   13  C   UNL     1      -8.872   6.198  68.840  1.00  0.00    -0.122 C  
HETATM   14  C   UNL     1     -10.364   6.620  68.961  1.00  0.00    -0.192 C  
BRANCH  11  15
HETATM   15  C   UNL     1      -6.722   5.824  69.834  1.00  0.00    -0.052 C  
BRANCH  15  16
HETATM   16  C   UNL     1      -6.055   7.155  69.590  1.00  0.00    -0.030 A  
HETATM   17  C   UNL     1      -5.979   8.103  70.607  1.00  0.00    -0.032 A  
HETATM   18  N   UNL     1      -5.536   9.374  70.446  1.00  0.00    -0.034 NA 
HETATM   19  C   UNL     1      -5.178   8.863  68.119  1.00  0.00    -0.034 A  
HETATM   20  C   UNL     1      -5.149   9.725  69.203  1.00  0.00    -0.036 A  
HETATM   21  C   UNL     1      -5.641   7.560  68.319  1.00  0.00    -0.027 A  
ENDBRANCH  15  16
ENDBRANCH  11  15
BRANCH  12  22
HETATM   22  C   UNL     1     -10.014   8.935  69.665  1.00  0.00    -0.191 C  
BRANCH  22  23
HETATM   23  C   UNL     1     -10.835  10.001  68.880  1.00  0.00    -0.220 C  
HETATM   24  O   UNL     1     -10.266  11.295  69.135  1.00  0.00    -0.340 OA 
HETATM   25  H   UNL     1     -10.767  11.946  68.657  1.00  0.00     0.000 HD 
BRANCH  23  26
HETATM   26  C   UNL     1     -10.795   9.937  67.326  1.00  0.00    -0.268 C  
HETATM   27  C   UNL     1     -10.131  11.060  66.490  1.00  0.00    -0.270 C  
HETATM   28  C   UNL     1      -9.857  10.535  65.038  1.00  0.00    -0.369 C  
HETATM   29  C   UNL     1     -11.048  12.300  66.421  1.00  0.00    -0.303 C  
HETATM   30  O   UNL     1     -12.267  12.226  66.550  1.00  0.00    -0.588 OA 
HETATM   31  N   UNL     1     -10.420  13.514  66.210  1.00  0.00    -0.285 N  
HETATM   32  H   UNL     1      -9.445  13.527  65.909  1.00  0.00     0.000 HD 
BRANCH  28  33
HETATM   33  C   UNL     1      -8.866   9.379  64.892  1.00  0.00    -0.240 A  
HETATM   34  C   UNL     1      -7.839   9.418  63.940  1.00  0.00    -0.129 A  
HETATM   35  C   UNL     1      -8.988   8.225  65.682  1.00  0.00    -0.157 A  
HETATM   36  C   UNL     1      -8.095   7.145  65.537  1.00  0.00    -0.135 A  
HETATM   37  C   UNL     1      -6.946   8.340  63.795  1.00  0.00    -0.080 A  
HETATM   38  C   UNL     1      -7.074   7.206  64.597  1.00  0.00    -0.061 A  
ENDBRANCH  28  33
BRANCH  31  39
HETATM   39  C   UNL     1     -11.134  14.792  66.413  1.00  0.00    -0.340 C  
HETATM   40  C   UNL     1      -9.966  16.972  66.923  1.00  0.00    -0.289 C  
HETATM   41  C   UNL     1     -10.539  16.348  68.147  1.00  0.00    -0.318 A  
HETATM   42  H   UNL     1      -8.880  16.486  64.588  1.00  0.00     0.000 HD 
HETATM   43  C   UNL     1     -10.434  16.042  65.782  1.00  0.00    -0.374 C  
HETATM   44  O   UNL     1      -9.304  15.727  64.971  1.00  0.00     0.040 OA 
HETATM   45  C   UNL     1     -10.479  16.863  69.443  1.00  0.00    -0.283 A  
HETATM   46  C   UNL     1     -11.126  16.169  70.465  1.00  0.00    -0.338 A  
HETATM   47  C   UNL     1     -11.829  14.994  70.184  1.00  0.00    -0.357 A  
HETATM   48  C   UNL     1     -11.869  14.472  68.888  1.00  0.00    -0.359 A  
HETATM   49  C   UNL     1     -11.203  15.160  67.869  1.00  0.00    -0.334 A  
ENDBRANCH  31  39
ENDBRANCH  23  26
ENDBRANCH  22  23
ENDBRANCH  12  22
ENDBRANCH   6   9
TORSDOF 8
ENDMDL
MODEL       70
REMARK 921   NORMALIZED FREE ENERGY PREDICTED BY IDOCK:   -5.41 KCAL/MOL
REMARK 922        TOTAL FREE ENERGY PREDICTED BY IDOCK:   -9.91 KCAL/MOL
REMARK 923 INTER-LIGAND FREE ENERGY PREDICTED BY IDOCK:   -6.94 KCAL/MOL
REMARK 924 INTRA-LIGAND FREE ENERGY PREDICTED BY IDOCK:   -2.97 KCAL/MOL
REMARK 927      BINDING AFFINITY PREDICTED BY RF-SCORE:    0.00 PKD
ROOT
HETATM    1  C   UNL     1     -11.236  13.381  69.031  1.00  0.00    -0.323 C  
HETATM    2  C   UNL     1     -10.914  12.951  67.596  1.00  0.00    -0.247 C  
HETATM    3  N   UNL     1      -9.468  12.651  67.342  1.00  0.00    -0.184 N  
HETATM    4  C   UNL     1     -11.296  14.152  66.684  1.00  0.00    -0.352 C  
HETATM    5  C   UNL     1     -11.831  11.788  67.185  1.00  0.00    -0.157 C  
HETATM    6  C   UNL     1      -8.506  11.760  67.733  1.00  0.00    -0.147 C  
HETATM    7  H   UNL     1      -9.083  13.317  66.673  1.00  0.00     0.000 HD 
HETATM    8  O   UNL     1      -7.503  11.727  67.004  1.00  0.00    -0.141 OA 
ENDROOT
BRANCH   6   9
HETATM    9  C   UNL     1      -8.556  10.889  69.001  1.00  0.00    -0.103 C  
HETATM   10  C   UNL     1      -7.212  10.226  69.504  1.00  0.00    -0.122 C  
HETATM   11  N   UNL     1      -7.324   9.804  70.937  1.00  0.00    -0.324 NA 
HETATM   12  N   UNL     1      -9.684   9.914  69.011  1.00  0.00    -0.183 NA 
HETATM   13  C   UNL     1      -8.607   9.088  71.186  1.00  0.00    -0.190 C  
HETATM   14  C   UNL     1      -9.868   9.643  70.466  1.00  0.00    -0.231 C  
BRANCH  11  15
HETATM   15  C   UNL     1      -6.223   8.921  71.391  1.00  0.00    -0.064 C  
BRANCH  15  16
HETATM   16  C   UNL     1      -6.482   7.435  71.422  1.00  0.00    -0.036 A  
HETATM   17  C   UNL     1      -6.704   6.783  72.633  1.00  0.00    -0.063 A  
HETATM   18  N   UNL     1      -6.797   5.439  72.780  1.00  0.00    -0.075 NA 
HETATM   19  C   UNL     1      -6.441   5.241  70.405  1.00  0.00    -0.031 A  
HETATM   20  C   UNL     1      -6.659   4.699  71.661  1.00  0.00    -0.027 A  
HETATM   21  C   UNL     1      -6.349   6.630  70.288  1.00  0.00    -0.039 A  
ENDBRANCH  15  16
ENDBRANCH  11  15
BRANCH  12  22
HETATM   22  C   UNL     1      -9.507   8.602  68.283  1.00  0.00    -0.141 C  
BRANCH  22  23
HETATM   23  C   UNL     1     -10.750   7.744  67.903  1.00  0.00    -0.097 C  
HETATM   24  O   UNL     1     -10.675   7.425  66.504  1.00  0.00    -0.478 OA 
HETATM   25  H   UNL     1     -11.433   6.902  66.272  1.00  0.00     0.000 HD 
BRANCH  23  26
HETATM   26  C   UNL     1     -10.870   6.331  68.544  1.00  0.00    -0.394 C  
HETATM   27  C   UNL     1      -9.649   5.380  68.633  1.00  0.00    -0.173 C  
HETATM   28  C   UNL     1      -9.945   4.253  69.683  1.00  0.00    -0.149 C  
HETATM   29  C   UNL     1      -9.360   4.738  67.260  1.00  0.00    -0.136 C  
HETATM   30  O   UNL     1     -10.227   4.596  66.403  1.00  0.00    -0.244 OA 
HETATM   31  N   UNL     1      -8.056   4.332  67.038  1.00  0.00    -0.100 N  
HETATM   32  H   UNL     1      -7.409   4.275  67.824  1.00  0.00     0.000 HD 
BRANCH  28  33
HETATM   33  C   UNL     1     -10.136   4.687  71.136  1.00  0.00    -0.243 A  
HETATM   34  C   UNL     1     -10.282   3.746  72.164  1.00  0.00    -0.179 A  
HETATM   35  C   UNL     1     -10.215   6.047  71.474  1.00  0.00    -0.249 A  
HETATM   36  C   UNL     1     -10.416   6.457  72.806  1.00  0.00    -0.238 A  
HETATM   37  C   UNL     1     -10.483   4.155  73.495  1.00  0.00    -0.257 A  
HETATM   38  C   UNL     1     -10.546   5.511  73.815  1.00  0.00    -0.316 A  
ENDBRANCH  28  33
BRANCH  31  39
HETATM   39  C   UNL     1      -7.584   3.978  65.683  1.00  0.00    -0.085 C  
HETATM   40  C   UNL     1      -5.147   3.950  65.022  1.00  0.00    -0.009 C  
HETATM   41  C   UNL     1      -5.835   5.188  64.562  1.00  0.00    -0.017 A  
HETATM   42  H   UNL     1      -5.059   2.132  66.908  1.00  0.00     0.000 HD 
HETATM   43  C   UNL     1      -6.282   3.110  65.647  1.00  0.00    -0.024 C  
HETATM   44  O   UNL     1      -5.849   2.660  66.929  1.00  0.00    -0.021 OA 
HETATM   45  C   UNL     1      -5.258   6.235  63.842  1.00  0.00    -0.018 A  
HETATM   46  C   UNL     1      -6.071   7.295  63.442  1.00  0.00    -0.048 A  
HETATM   47  C   UNL     1      -7.435   7.292  63.748  1.00  0.00    -0.097 A  
HETATM   48  C   UNL     1      -8.003   6.250  64.487  1.00  0.00    -0.121 A  
HETATM   49  C   UNL     1      -7.181   5.199  64.903  1.00  0.00    -0.063 A  
ENDBRANCH  31  39
ENDBRANCH  23  26
ENDBRANCH  22  23
ENDBRANCH  12  22
ENDBRANCH   6   9
TORSDOF 8
ENDMDL
MODEL       71
REMARK 921   NORMALIZED FREE ENERGY PREDICTED BY IDOCK:   -5.41 KCAL/MOL
REMARK 922        TOTAL FREE ENERGY PREDICTED BY IDOCK:   -9.90 KCAL/MOL
REMARK 923 INTER-LIGAND FREE ENERGY PREDICTED BY IDOCK:   -7.50 KCAL/MOL
REMARK 924 INTRA-LIGAND FREE ENERGY PREDICTED BY IDOCK:   -2.40 KCAL/MOL
REMARK 927      BINDING AFFINITY PREDICTED BY RF-SCORE:    0.00 PKD
ROOT
HETATM    1  C   UNL     1      -7.474   5.439  64.611  1.00  0.00    -0.070 C  
HETATM    2  C   UNL     1      -6.073   6.045  64.483  1.00  0.00    -0.026 C  
HETATM    3  N   UNL     1      -5.951   7.126  63.453  1.00  0.00    -0.043 N  
HETATM    4  C   UNL     1      -5.134   4.886  64.039  1.00  0.00    -0.009 C  
HETATM    5  C   UNL     1      -5.576   6.498  65.865  1.00  0.00    -0.021 C  
HETATM    6  C   UNL     1      -6.425   8.386  63.205  1.00  0.00    -0.085 C  
HETATM    7  H   UNL     1      -5.322   6.832  62.706  1.00  0.00     0.000 HD 
HETATM    8  O   UNL     1      -5.790   9.019  62.348  1.00  0.00    -0.090 OA 
ENDROOT
BRANCH   6   9
HETATM    9  C   UNL     1      -7.679   9.011  63.841  1.00  0.00    -0.125 C  
HETATM   10  C   UNL     1      -8.493  10.071  62.998  1.00  0.00    -0.178 C  
HETATM   11  N   UNL     1      -9.879  10.241  63.542  1.00  0.00    -0.208 NA 
HETATM   12  N   UNL     1      -7.471   9.470  65.244  1.00  0.00    -0.104 NA 
HETATM   13  C   UNL     1      -9.861  10.375  65.026  1.00  0.00    -0.319 C  
HETATM   14  C   UNL     1      -8.857   9.470  65.796  1.00  0.00    -0.162 C  
BRANCH  11  15
HETATM   15  C   UNL     1     -10.599  11.416  62.995  1.00  0.00    -0.093 C  
BRANCH  15  16
HETATM   16  C   UNL     1     -11.259  12.353  63.975  1.00  0.00    -0.458 A  
HETATM   17  C   UNL     1     -12.624  12.254  64.236  1.00  0.00    -0.372 A  
HETATM   18  N   UNL     1     -13.333  13.137  64.981  1.00  0.00    -0.448 NA 
HETATM   19  C   UNL     1     -11.292  14.376  65.301  1.00  0.00    -0.346 A  
HETATM   20  C   UNL     1     -12.649  14.180  65.493  1.00  0.00    -0.479 A  
HETATM   21  C   UNL     1     -10.590  13.448  64.528  1.00  0.00    -0.441 A  
ENDBRANCH  15  16
ENDBRANCH  11  15
BRANCH  12  22
HETATM   22  C   UNL     1      -6.849  10.827  65.472  1.00  0.00     0.015 C  
BRANCH  22  23
HETATM   23  C   UNL     1      -6.105  11.133  66.805  1.00  0.00    -0.119 C  
HETATM   24  O   UNL     1      -6.120  12.554  67.021  1.00  0.00    -0.385 OA 
HETATM   25  H   UNL     1      -5.666  12.741  67.835  1.00  0.00     0.000 HD 
BRANCH  23  26
HETATM   26  C   UNL     1      -6.745  10.605  68.122  1.00  0.00    -0.064 C  
HETATM   27  C   UNL     1      -8.137  11.095  68.595  1.00  0.00    -0.150 C  
HETATM   28  C   UNL     1      -8.699  10.103  69.672  1.00  0.00    -0.176 C  
HETATM   29  C   UNL     1      -8.036  12.510  69.205  1.00  0.00     0.433 C  
HETATM   30  O   UNL     1      -6.998  12.943  69.697  1.00  0.00     0.085 OA 
HETATM   31  N   UNL     1      -9.186  13.277  69.162  1.00  0.00    -0.114 N  
HETATM   32  H   UNL     1     -10.076  12.832  68.936  1.00  0.00     0.000 HD 
BRANCH  28  33
HETATM   33  C   UNL     1      -8.985   8.672  69.217  1.00  0.00    -0.145 A  
HETATM   34  C   UNL     1      -8.025   7.661  69.349  1.00  0.00    -0.125 A  
HETATM   35  C   UNL     1     -10.209   8.342  68.612  1.00  0.00    -0.220 A  
HETATM   36  C   UNL     1     -10.473   7.033  68.168  1.00  0.00    -0.242 A  
HETATM   37  C   UNL     1      -8.289   6.352  68.905  1.00  0.00    -0.121 A  
HETATM   38  C   UNL     1      -9.514   6.039  68.318  1.00  0.00    -0.117 A  
ENDBRANCH  28  33
BRANCH  31  39
HETATM   39  C   UNL     1      -9.150  14.728  69.439  1.00  0.00     0.046 C  
HETATM   40  C   UNL     1     -11.162  16.237  69.217  1.00  0.00    -0.312 C  
HETATM   41  C   UNL     1     -10.255  16.343  68.041  1.00  0.00    -0.264 A  
HETATM   42  H   UNL     1     -12.091  14.621  71.059  1.00  0.00     0.000 HD 
HETATM   43  C   UNL     1     -10.413  15.288  70.176  1.00  0.00    -0.230 C  
HETATM   44  O   UNL     1     -11.325  14.281  70.611  1.00  0.00    -0.144 OA 
HETATM   45  C   UNL     1     -10.437  17.164  66.927  1.00  0.00    -0.274 A  
HETATM   46  C   UNL     1      -9.450  17.177  65.943  1.00  0.00    -0.077 A  
HETATM   47  C   UNL     1      -8.301  16.393  66.084  1.00  0.00    -0.291 A  
HETATM   48  C   UNL     1      -8.134  15.557  67.192  1.00  0.00    -0.249 A  
HETATM   49  C   UNL     1      -9.134  15.531  68.168  1.00  0.00    -0.184 A  
ENDBRANCH  31  39
ENDBRANCH  23  26
ENDBRANCH  22  23
ENDBRANCH  12  22
ENDBRANCH   6   9
TORSDOF 8
ENDMDL
MODEL       72
REMARK 921   NORMALIZED FREE ENERGY PREDICTED BY IDOCK:   -5.38 KCAL/MOL
REMARK 922        TOTAL FREE ENERGY PREDICTED BY IDOCK:   -9.86 KCAL/MOL
REMARK 923 INTER-LIGAND FREE ENERGY PREDICTED BY IDOCK:   -8.07 KCAL/MOL
REMARK 924 INTRA-LIGAND FREE ENERGY PREDICTED BY IDOCK:   -1.78 KCAL/MOL
REMARK 927      BINDING AFFINITY PREDICTED BY RF-SCORE:    0.00 PKD
ROOT
HETATM    1  C   UNL     1      -9.786  13.893  64.659  1.00  0.00     0.235 C  
HETATM    2  C   UNL     1     -10.721  12.706  64.400  1.00  0.00    -0.359 C  
HETATM    3  N   UNL     1     -10.848  11.749  65.545  1.00  0.00    -0.291 N  
HETATM    4  C   UNL     1     -10.101  11.915  63.213  1.00  0.00    -0.427 C  
HETATM    5  C   UNL     1     -12.085  13.218  63.914  1.00  0.00    -0.531 C  
HETATM    6  C   UNL     1     -11.312  11.722  66.833  1.00  0.00    -0.320 C  
HETATM    7  H   UNL     1     -10.473  10.837  65.286  1.00  0.00     0.000 HD 
HETATM    8  O   UNL     1     -11.479  10.585  67.300  1.00  0.00    -0.366 OA 
ENDROOT
BRANCH   6   9
HETATM    9  C   UNL     1     -11.561  12.955  67.720  1.00  0.00    -0.343 C  
HETATM   10  C   UNL     1     -10.425  14.050  67.810  1.00  0.00    -0.236 C  
HETATM   11  N   UNL     1     -10.969  15.349  68.321  1.00  0.00    -0.276 NA 
HETATM   12  N   UNL     1     -12.107  12.621  69.066  1.00  0.00    -0.216 NA 
HETATM   13  C   UNL     1     -11.844  15.133  69.508  1.00  0.00    -0.332 C  
HETATM   14  C   UNL     1     -12.778  13.890  69.470  1.00  0.00     0.294 C  
BRANCH  11  15
HETATM   15  C   UNL     1      -9.924  16.327  68.708  1.00  0.00    -0.237 C  
BRANCH  15  16
HETATM   16  C   UNL     1      -9.690  17.503  67.793  1.00  0.00    -0.274 A  
HETATM   17  C   UNL     1      -8.790  17.406  66.735  1.00  0.00    -0.251 A  
HETATM   18  N   UNL     1      -8.402  18.443  65.953  1.00  0.00    -0.488 NA 
HETATM   19  C   UNL     1      -9.844  19.859  67.266  1.00  0.00    -0.536 A  
HETATM   20  C   UNL     1      -8.937  19.647  66.241  1.00  0.00    -0.375 A  
HETATM   21  C   UNL     1     -10.222  18.769  68.053  1.00  0.00    -0.438 A  
ENDBRANCH  15  16
ENDBRANCH  11  15
BRANCH  12  22
HETATM   22  C   UNL     1     -11.141  12.207  70.151  1.00  0.00     0.586 C  
BRANCH  22  23
HETATM   23  C   UNL     1     -10.936  10.699  70.482  1.00  0.00     0.020 C  
HETATM   24  O   UNL     1     -11.884   9.931  69.722  1.00  0.00    -0.450 OA 
HETATM   25  H   UNL     1     -11.759   9.011  69.924  1.00  0.00     0.000 HD 
BRANCH  23  26
HETATM   26  C   UNL     1      -9.588  10.047  70.056  1.00  0.00    -0.205 C  
HETATM   27  C   UNL     1      -9.377   8.513  70.124  1.00  0.00    -0.164 C  
HETATM   28  C   UNL     1      -8.135   8.121  69.250  1.00  0.00    -0.117 C  
HETATM   29  C   UNL     1      -9.141   8.062  71.580  1.00  0.00    -0.150 C  
HETATM   30  O   UNL     1      -8.689   8.814  72.439  1.00  0.00    -0.392 OA 
HETATM   31  N   UNL     1      -9.476   6.752  71.876  1.00  0.00    -0.147 N  
HETATM   32  H   UNL     1      -9.657   6.098  71.114  1.00  0.00     0.000 HD 
BRANCH  28  33
HETATM   33  C   UNL     1      -8.233   8.378  67.746  1.00  0.00    -0.126 A  
HETATM   34  C   UNL     1      -7.371   9.278  67.104  1.00  0.00    -0.091 A  
HETATM   35  C   UNL     1      -9.222   7.750  66.973  1.00  0.00    -0.176 A  
HETATM   36  C   UNL     1      -9.336   8.000  65.591  1.00  0.00     0.086 A  
HETATM   37  C   UNL     1      -7.484   9.527  65.724  1.00  0.00    -0.100 A  
HETATM   38  C   UNL     1      -8.465   8.885  64.969  1.00  0.00    -0.194 A  
ENDBRANCH  28  33
BRANCH  31  39
HETATM   39  C   UNL     1      -9.577   6.284  73.274  1.00  0.00    -0.147 C  
HETATM   40  C   UNL     1      -8.227   4.361  74.198  1.00  0.00    -0.092 C  
HETATM   41  C   UNL     1      -9.619   3.953  73.861  1.00  0.00    -0.128 A  
HETATM   42  H   UNL     1      -6.246   5.942  73.532  1.00  0.00     0.000 HD 
HETATM   43  C   UNL     1      -8.215   5.882  73.932  1.00  0.00    -0.108 C  
HETATM   44  O   UNL     1      -7.073   6.186  73.133  1.00  0.00    -0.082 OA 
HETATM   45  C   UNL     1     -10.169   2.681  74.024  1.00  0.00    -0.188 A  
HETATM   46  C   UNL     1     -11.514   2.494  73.709  1.00  0.00    -0.199 A  
HETATM   47  C   UNL     1     -12.289   3.565  73.256  1.00  0.00     0.691 A  
HETATM   48  C   UNL     1     -11.727   4.833  73.076  1.00  0.00    -0.190 A  
HETATM   49  C   UNL     1     -10.373   5.013  73.374  1.00  0.00    -0.243 A  
ENDBRANCH  31  39
ENDBRANCH  23  26
ENDBRANCH  22  23
ENDBRANCH  12  22
ENDBRANCH   6   9
TORSDOF 8
ENDMDL
MODEL       73
REMARK 921   NORMALIZED FREE ENERGY PREDICTED BY IDOCK:   -5.29 KCAL/MOL
REMARK 922        TOTAL FREE ENERGY PREDICTED BY IDOCK:   -9.74 KCAL/MOL
REMARK 923 INTER-LIGAND FREE ENERGY PREDICTED BY IDOCK:   -9.09 KCAL/MOL
REMARK 924 INTRA-LIGAND FREE ENERGY PREDICTED BY IDOCK:   -0.65 KCAL/MOL
REMARK 927      BINDING AFFINITY PREDICTED BY RF-SCORE:    0.00 PKD
ROOT
HETATM    1  C   UNL     1      -7.613  15.280  69.466  1.00  0.00    -0.219 C  
HETATM    2  C   UNL     1      -6.296  14.813  68.837  1.00  0.00    -0.087 C  
HETATM    3  N   UNL     1      -6.213  13.339  68.583  1.00  0.00    -0.078 N  
HETATM    4  C   UNL     1      -5.177  15.161  69.860  1.00  0.00    -0.098 C  
HETATM    5  C   UNL     1      -6.002  15.640  67.576  1.00  0.00    -0.123 C  
HETATM    6  C   UNL     1      -6.819  12.379  67.817  1.00  0.00    -0.113 C  
HETATM    7  H   UNL     1      -5.480  12.923  69.157  1.00  0.00     0.000 HD 
HETATM    8  O   UNL     1      -6.189  11.314  67.728  1.00  0.00    -0.050 OA 
ENDROOT
BRANCH   6   9
HETATM    9  C   UNL     1      -8.200  12.506  67.152  1.00  0.00    -0.168 C  
HETATM   10  C   UNL     1      -9.388  13.102  68.007  1.00  0.00    -0.219 C  
HETATM   11  N   UNL     1     -10.505  13.570  67.124  1.00  0.00    -0.256 NA 
HETATM   12  N   UNL     1      -8.621  11.283  66.410  1.00  0.00    -0.172 NA 
HETATM   13  C   UNL     1     -10.821  12.557  66.078  1.00  0.00    -0.276 C  
HETATM   14  C   UNL     1      -9.613  11.819  65.434  1.00  0.00    -0.190 C  
BRANCH  11  15
HETATM   15  C   UNL     1     -11.761  13.867  67.853  1.00  0.00    -0.361 C  
BRANCH  15  16
HETATM   16  C   UNL     1     -12.138  12.966  69.002  1.00  0.00    -0.198 A  
HETATM   17  C   UNL     1     -12.472  13.506  70.242  1.00  0.00    -0.239 A  
HETATM   18  N   UNL     1     -12.679  12.781  71.369  1.00  0.00    -0.320 NA 
HETATM   19  C   UNL     1     -12.217  10.800  70.077  1.00  0.00    -0.409 A  
HETATM   20  C   UNL     1     -12.543  11.444  71.259  1.00  0.00    -0.374 A  
HETATM   21  C   UNL     1     -12.010  11.576  68.934  1.00  0.00    -0.364 A  
ENDBRANCH  15  16
ENDBRANCH  11  15
BRANCH  12  22
HETATM   22  C   UNL     1      -9.252  10.153  67.187  1.00  0.00    -0.138 C  
BRANCH  22  23
HETATM   23  C   UNL     1     -10.029   9.028  66.440  1.00  0.00    -0.300 C  
HETATM   24  O   UNL     1      -9.127   8.375  65.531  1.00  0.00    -0.348 OA 
HETATM   25  H   UNL     1      -9.601   7.689  65.075  1.00  0.00     0.000 HD 
BRANCH  23  26
HETATM   26  C   UNL     1     -10.547   7.829  67.287  1.00  0.00    -0.376 C  
HETATM   27  C   UNL     1      -9.569   6.809  67.924  1.00  0.00    -0.125 C  
HETATM   28  C   UNL     1     -10.315   6.002  69.042  1.00  0.00    -0.283 C  
HETATM   29  C   UNL     1      -9.035   5.831  66.856  1.00  0.00    -0.114 C  
HETATM   30  O   UNL     1      -9.654   5.576  65.827  1.00  0.00    -0.121 OA 
HETATM   31  N   UNL     1      -7.805   5.254  67.117  1.00  0.00    -0.100 N  
HETATM   32  H   UNL     1      -7.409   5.323  68.055  1.00  0.00     0.000 HD 
BRANCH  28  33
HETATM   33  C   UNL     1     -10.812   6.790  70.255  1.00  0.00    -0.314 A  
HETATM   34  C   UNL     1      -9.938   7.567  71.026  1.00  0.00    -0.189 A  
HETATM   35  C   UNL     1     -12.156   6.720  70.655  1.00  0.00    -0.371 A  
HETATM   36  C   UNL     1     -12.618   7.422  71.785  1.00  0.00    -0.367 A  
HETATM   37  C   UNL     1     -10.399   8.268  72.155  1.00  0.00    -0.370 A  
HETATM   38  C   UNL     1     -11.740   8.198  72.531  1.00  0.00    -0.457 A  
ENDBRANCH  28  33
BRANCH  31  39
HETATM   39  C   UNL     1      -7.054   4.540  66.063  1.00  0.00    -0.071 C  
HETATM   40  C   UNL     1      -7.299   5.039  63.600  1.00  0.00    -0.051 C  
HETATM   41  C   UNL     1      -8.070   3.829  64.003  1.00  0.00    -0.089 A  
HETATM   42  H   UNL     1      -6.449   7.388  64.390  1.00  0.00     0.000 HD 
HETATM   43  C   UNL     1      -6.551   5.444  64.889  1.00  0.00    -0.043 C  
HETATM   44  O   UNL     1      -6.755   6.840  65.103  1.00  0.00    -0.048 OA 
HETATM   45  C   UNL     1      -8.842   3.024  63.164  1.00  0.00    -0.092 A  
HETATM   46  C   UNL     1      -9.450   1.892  63.705  1.00  0.00    -0.119 A  
HETATM   47  C   UNL     1      -9.270   1.571  65.054  1.00  0.00    -0.098 A  
HETATM   48  C   UNL     1      -8.511   2.391  65.893  1.00  0.00    -0.100 A  
HETATM   49  C   UNL     1      -7.920   3.537  65.353  1.00  0.00    -0.090 A  
ENDBRANCH  31  39
ENDBRANCH  23  26
ENDBRANCH  22  23
ENDBRANCH  12  22
ENDBRANCH   6   9
TORSDOF 8
ENDMDL
MODEL       74
REMARK 921   NORMALIZED FREE ENERGY PREDICTED BY IDOCK:   -5.27 KCAL/MOL
REMARK 922        TOTAL FREE ENERGY PREDICTED BY IDOCK:   -9.70 KCAL/MOL
REMARK 923 INTER-LIGAND FREE ENERGY PREDICTED BY IDOCK:   -8.56 KCAL/MOL
REMARK 924 INTRA-LIGAND FREE ENERGY PREDICTED BY IDOCK:   -1.14 KCAL/MOL
REMARK 927      BINDING AFFINITY PREDICTED BY RF-SCORE:    0.00 PKD
ROOT
HETATM    1  C   UNL     1     -11.413   8.125  72.170  1.00  0.00    -0.412 C  
HETATM    2  C   UNL     1     -12.208   7.006  71.491  1.00  0.00    -0.368 C  
HETATM    3  N   UNL     1     -11.855   6.772  70.054  1.00  0.00    -0.641 N  
HETATM    4  C   UNL     1     -13.700   7.447  71.526  1.00  0.00    -0.467 C  
HETATM    5  C   UNL     1     -12.117   5.722  72.330  1.00  0.00    -0.088 C  
HETATM    6  C   UNL     1     -10.792   6.358  69.297  1.00  0.00    -0.327 C  
HETATM    7  H   UNL     1     -12.652   6.988  69.456  1.00  0.00     0.000 HD 
HETATM    8  O   UNL     1     -11.079   6.031  68.136  1.00  0.00    -0.306 OA 
ENDROOT
BRANCH   6   9
HETATM    9  C   UNL     1      -9.322   6.341  69.754  1.00  0.00    -0.145 C  
HETATM   10  C   UNL     1      -9.015   6.003  71.267  1.00  0.00    -0.136 C  
HETATM   11  N   UNL     1      -7.585   5.593  71.446  1.00  0.00    -0.101 NA 
HETATM   12  N   UNL     1      -8.539   7.521  69.287  1.00  0.00    -0.136 NA 
HETATM   13  C   UNL     1      -6.667   6.518  70.724  1.00  0.00    -0.058 C  
HETATM   14  C   UNL     1      -7.136   7.017  69.328  1.00  0.00    -0.083 C  
BRANCH  11  15
HETATM   15  C   UNL     1      -7.148   5.543  72.862  1.00  0.00    -0.089 C  
BRANCH  15  16
HETATM   16  C   UNL     1      -7.197   4.210  73.567  1.00  0.00    -0.070 A  
HETATM   17  C   UNL     1      -6.031   3.476  73.769  1.00  0.00    -0.004 A  
HETATM   18  N   UNL     1      -5.990   2.211  74.254  1.00  0.00    -0.004 NA 
HETATM   19  C   UNL     1      -8.394   2.280  74.397  1.00  0.00    -0.059 A  
HETATM   20  C   UNL     1      -7.175   1.642  74.554  1.00  0.00    -0.027 A  
HETATM   21  C   UNL     1      -8.402   3.582  73.893  1.00  0.00    -0.082 A  
ENDBRANCH  15  16
ENDBRANCH  11  15
BRANCH  12  22
HETATM   22  C   UNL     1      -8.628   8.802  70.081  1.00  0.00    -0.146 C  
BRANCH  22  23
HETATM   23  C   UNL     1      -7.949  10.100  69.551  1.00  0.00    -0.165 C  
HETATM   24  O   UNL     1      -7.555   9.885  68.186  1.00  0.00    -0.081 OA 
HETATM   25  H   UNL     1      -7.140  10.676  67.863  1.00  0.00     0.000 HD 
BRANCH  23  26
HETATM   26  C   UNL     1      -8.833  11.374  69.429  1.00  0.00     0.520 C  
HETATM   27  C   UNL     1      -9.858  11.537  68.277  1.00  0.00    -0.203 C  
HETATM   28  C   UNL     1     -10.878  12.670  68.645  1.00  0.00    -0.281 C  
HETATM   29  C   UNL     1      -9.140  11.902  66.960  1.00  0.00    -0.191 C  
HETATM   30  O   UNL     1      -8.049  12.465  66.938  1.00  0.00    -0.151 OA 
HETATM   31  N   UNL     1      -9.793  11.553  65.792  1.00  0.00    -0.225 N  
HETATM   32  H   UNL     1     -10.773  11.273  65.831  1.00  0.00     0.000 HD 
BRANCH  28  33
HETATM   33  C   UNL     1     -11.776  12.430  69.859  1.00  0.00    -0.339 A  
HETATM   34  C   UNL     1     -12.164  11.137  70.233  1.00  0.00    -0.436 A  
HETATM   35  C   UNL     1     -12.273  13.509  70.608  1.00  0.00    -0.434 A  
HETATM   36  C   UNL     1     -13.121  13.300  71.713  1.00  0.00    -0.472 A  
HETATM   37  C   UNL     1     -13.011  10.928  71.337  1.00  0.00    -0.527 A  
HETATM   38  C   UNL     1     -13.486  12.010  72.078  1.00  0.00    -0.364 A  
ENDBRANCH  28  33
BRANCH  31  39
HETATM   39  C   UNL     1      -9.096  11.577  64.488  1.00  0.00     0.176 C  
HETATM   40  C   UNL     1      -9.889  10.294  62.463  1.00  0.00     0.057 C  
HETATM   41  C   UNL     1      -8.767   9.602  63.157  1.00  0.00    -0.236 A  
HETATM   42  H   UNL     1     -11.992  11.820  62.803  1.00  0.00     0.000 HD 
HETATM   43  C   UNL     1     -10.040  11.619  63.240  1.00  0.00    -0.423 C  
HETATM   44  O   UNL     1     -11.419  11.793  63.561  1.00  0.00    -0.422 OA 
HETATM   45  C   UNL     1      -8.177   8.396  62.776  1.00  0.00    -0.166 A  
HETATM   46  C   UNL     1      -7.092   7.924  63.514  1.00  0.00    -0.079 A  
HETATM   47  C   UNL     1      -6.605   8.657  64.599  1.00  0.00    -0.066 A  
HETATM   48  C   UNL     1      -7.212   9.855  64.988  1.00  0.00    -0.135 A  
HETATM   49  C   UNL     1      -8.312  10.315  64.259  1.00  0.00    -0.165 A  
ENDBRANCH  31  39
ENDBRANCH  23  26
ENDBRANCH  22  23
ENDBRANCH  12  22
ENDBRANCH   6   9
TORSDOF 8
ENDMDL
MODEL       75
REMARK 921   NORMALIZED FREE ENERGY PREDICTED BY IDOCK:   -5.22 KCAL/MOL
REMARK 922        TOTAL FREE ENERGY PREDICTED BY IDOCK:   -9.63 KCAL/MOL
REMARK 923 INTER-LIGAND FREE ENERGY PREDICTED BY IDOCK:   -8.33 KCAL/MOL
REMARK 924 INTRA-LIGAND FREE ENERGY PREDICTED BY IDOCK:   -1.30 KCAL/MOL
REMARK 927      BINDING AFFINITY PREDICTED BY RF-SCORE:    0.00 PKD
ROOT
HETATM    1  C   UNL     1      -7.740  10.299  64.754  1.00  0.00    -0.119 C  
HETATM    2  C   UNL     1      -6.793   9.977  65.914  1.00  0.00    -0.108 C  
HETATM    3  N   UNL     1      -6.792  10.988  67.019  1.00  0.00    -0.101 N  
HETATM    4  C   UNL     1      -5.358   9.960  65.313  1.00  0.00    -0.056 C  
HETATM    5  C   UNL     1      -7.064   8.554  66.426  1.00  0.00    -0.079 C  
HETATM    6  C   UNL     1      -7.640  11.495  67.967  1.00  0.00    -0.112 C  
HETATM    7  H   UNL     1      -5.879  11.437  67.086  1.00  0.00     0.000 HD 
HETATM    8  O   UNL     1      -7.083  12.125  68.878  1.00  0.00    -0.107 OA 
ENDROOT
BRANCH   6   9
HETATM    9  C   UNL     1      -9.176  11.399  67.936  1.00  0.00    -0.164 C  
HETATM   10  C   UNL     1      -9.967  11.657  69.279  1.00  0.00     0.252 C  
HETATM   11  N   UNL     1     -11.407  11.966  69.005  1.00  0.00    -0.257 NA 
HETATM   12  N   UNL     1      -9.684  10.190  67.226  1.00  0.00    -0.162 NA 
HETATM   13  C   UNL     1     -11.981  11.012  68.014  1.00  0.00     0.087 C  
HETATM   14  C   UNL     1     -11.062  10.600  66.830  1.00  0.00    -0.030 C  
BRANCH  11  15
HETATM   15  C   UNL     1     -12.269  11.931  70.211  1.00  0.00    -0.271 C  
BRANCH  15  16
HETATM   16  C   UNL     1     -12.515  13.231  70.937  1.00  0.00    -0.424 A  
HETATM   17  C   UNL     1     -13.314  13.261  72.076  1.00  0.00    -0.489 A  
HETATM   18  N   UNL     1     -13.714  14.392  72.709  1.00  0.00    -0.611 NA 
HETATM   19  C   UNL     1     -12.495  15.647  71.051  1.00  0.00    -0.501 A  
HETATM   20  C   UNL     1     -13.296  15.559  72.178  1.00  0.00    -0.467 A  
HETATM   21  C   UNL     1     -12.103  14.463  70.422  1.00  0.00    -0.399 A  
ENDBRANCH  15  16
ENDBRANCH  11  15
BRANCH  12  22
HETATM   22  C   UNL     1      -9.755   8.887  67.985  1.00  0.00    -0.156 C  
BRANCH  22  23
HETATM   23  C   UNL     1     -10.785   7.795  67.571  1.00  0.00    -0.195 C  
HETATM   24  O   UNL     1     -10.399   7.265  66.292  1.00  0.00    -0.462 OA 
HETATM   25  H   UNL     1     -11.028   6.598  66.038  1.00  0.00     0.000 HD 
BRANCH  23  26
HETATM   26  C   UNL     1     -10.854   6.506  68.440  1.00  0.00    -0.357 C  
HETATM   27  C   UNL     1      -9.607   5.610  68.653  1.00  0.00    -0.163 C  
HETATM   28  C   UNL     1      -9.850   4.666  69.883  1.00  0.00    -0.296 C  
HETATM   29  C   UNL     1      -9.333   4.754  67.398  1.00  0.00    -0.137 C  
HETATM   30  O   UNL     1     -10.216   4.453  66.600  1.00  0.00    -0.219 OA 
HETATM   31  N   UNL     1      -8.025   4.345  67.212  1.00  0.00    -0.100 N  
HETATM   32  H   UNL     1      -7.359   4.434  67.979  1.00  0.00     0.000 HD 
BRANCH  28  33
HETATM   33  C   UNL     1     -10.019   5.333  71.248  1.00  0.00    -0.256 A  
HETATM   34  C   UNL     1     -10.415   4.597  72.373  1.00  0.00    -0.250 A  
HETATM   35  C   UNL     1      -9.824   6.714  71.402  1.00  0.00    -0.191 A  
HETATM   36  C   UNL     1     -10.002   7.342  72.650  1.00  0.00    -0.223 A  
HETATM   37  C   UNL     1     -10.592   5.223  73.621  1.00  0.00    -0.322 A  
HETATM   38  C   UNL     1     -10.382   6.594  73.758  1.00  0.00    -0.373 A  
ENDBRANCH  28  33
BRANCH  31  39
HETATM   39  C   UNL     1      -7.575   3.781  65.922  1.00  0.00    -0.085 C  
HETATM   40  C   UNL     1      -5.167   3.794  65.162  1.00  0.00    -0.009 C  
HETATM   41  C   UNL     1      -5.959   4.879  64.519  1.00  0.00    -0.021 A  
HETATM   42  H   UNL     1      -4.880   2.363  67.339  1.00  0.00     0.000 HD 
HETATM   43  C   UNL     1      -6.214   3.009  65.982  1.00  0.00    -0.024 C  
HETATM   44  O   UNL     1      -5.705   2.832  67.302  1.00  0.00    -0.020 OA 
HETATM   45  C   UNL     1      -5.487   5.812  63.595  1.00  0.00    -0.017 A  
HETATM   46  C   UNL     1      -6.389   6.724  63.050  1.00  0.00    -0.043 A  
HETATM   47  C   UNL     1      -7.738   6.686  63.416  1.00  0.00    -0.109 A  
HETATM   48  C   UNL     1      -8.202   5.762  64.357  1.00  0.00    -0.114 A  
HETATM   49  C   UNL     1      -7.291   4.862  64.916  1.00  0.00    -0.068 A  
ENDBRANCH  31  39
ENDBRANCH  23  26
ENDBRANCH  22  23
ENDBRANCH  12  22
ENDBRANCH   6   9
TORSDOF 8
ENDMDL
MODEL       76
REMARK 921   NORMALIZED FREE ENERGY PREDICTED BY IDOCK:   -5.21 KCAL/MOL
REMARK 922        TOTAL FREE ENERGY PREDICTED BY IDOCK:   -9.62 KCAL/MOL
REMARK 923 INTER-LIGAND FREE ENERGY PREDICTED BY IDOCK:   -7.76 KCAL/MOL
REMARK 924 INTRA-LIGAND FREE ENERGY PREDICTED BY IDOCK:   -1.86 KCAL/MOL
REMARK 927      BINDING AFFINITY PREDICTED BY RF-SCORE:    0.00 PKD
ROOT
HETATM    1  C   UNL     1     -10.634  13.718  64.681  1.00  0.00    -0.443 C  
HETATM    2  C   UNL     1     -11.185  12.315  64.407  1.00  0.00    -0.334 C  
HETATM    3  N   UNL     1     -10.737  11.267  65.379  1.00  0.00    -0.257 N  
HETATM    4  C   UNL     1     -10.644  11.899  63.009  1.00  0.00    -0.154 C  
HETATM    5  C   UNL     1     -12.715  12.375  64.278  1.00  0.00    -0.437 C  
HETATM    6  C   UNL     1     -10.858  10.960  66.708  1.00  0.00    -0.224 C  
HETATM    7  H   UNL     1     -10.168  10.567  64.905  1.00  0.00     0.000 HD 
HETATM    8  O   UNL     1     -10.547   9.796  67.001  1.00  0.00    -0.239 OA 
ENDROOT
BRANCH   6   9
HETATM    9  C   UNL     1     -11.265  11.944  67.819  1.00  0.00    -0.267 C  
HETATM   10  C   UNL     1     -10.326  13.184  68.098  1.00  0.00    -0.244 C  
HETATM   11  N   UNL     1     -11.054  14.250  68.859  1.00  0.00    -0.251 NA 
HETATM   12  N   UNL     1     -11.679  11.275  69.086  1.00  0.00    -0.312 NA 
HETATM   13  C   UNL     1     -11.820  13.668  69.997  1.00  0.00    -0.308 C  
HETATM   14  C   UNL     1     -12.533  12.310  69.737  1.00  0.00     0.126 C  
BRANCH  11  15
HETATM   15  C   UNL     1     -10.170  15.305  69.408  1.00  0.00    -0.256 C  
BRANCH  15  16
HETATM   16  C   UNL     1      -8.755  15.377  68.890  1.00  0.00    -0.208 A  
HETATM   17  C   UNL     1      -8.468  16.071  67.718  1.00  0.00    -0.161 A  
HETATM   18  N   UNL     1      -7.264  16.070  67.095  1.00  0.00    -0.208 NA 
HETATM   19  C   UNL     1      -6.462  14.609  68.836  1.00  0.00    -0.090 A  
HETATM   20  C   UNL     1      -6.290  15.334  67.669  1.00  0.00    -0.146 A  
HETATM   21  C   UNL     1      -7.716  14.631  69.452  1.00  0.00    -0.051 A  
ENDBRANCH  15  16
ENDBRANCH  11  15
BRANCH  12  22
HETATM   22  C   UNL     1     -10.605  10.841  70.054  1.00  0.00     0.005 C  
BRANCH  22  23
HETATM   23  C   UNL     1     -10.340   9.326  70.301  1.00  0.00    -0.229 C  
HETATM   24  O   UNL     1     -11.170   8.565  69.408  1.00  0.00    -0.444 OA 
HETATM   25  H   UNL     1     -11.008   7.641  69.559  1.00  0.00     0.000 HD 
BRANCH  23  26
HETATM   26  C   UNL     1      -8.923   8.780  69.960  1.00  0.00    -0.162 C  
HETATM   27  C   UNL     1      -8.571   7.281  70.142  1.00  0.00    -0.140 C  
HETATM   28  C   UNL     1      -7.269   6.951  69.333  1.00  0.00    -0.089 C  
HETATM   29  C   UNL     1      -8.344   6.955  71.634  1.00  0.00    -0.109 C  
HETATM   30  O   UNL     1      -7.993   7.804  72.448  1.00  0.00    -0.100 OA 
HETATM   31  N   UNL     1      -8.564   5.643  72.013  1.00  0.00    -0.130 N  
HETATM   32  H   UNL     1      -8.657   4.924  71.295  1.00  0.00     0.000 HD 
BRANCH  28  33
HETATM   33  C   UNL     1      -7.340   7.095  67.813  1.00  0.00    -0.097 A  
HETATM   34  C   UNL     1      -6.629   8.100  67.143  1.00  0.00    -0.058 A  
HETATM   35  C   UNL     1      -8.156   6.246  67.049  1.00  0.00    -0.109 A  
HETATM   36  C   UNL     1      -8.247   6.386  65.650  1.00  0.00    -0.140 A  
HETATM   37  C   UNL     1      -6.719   8.240  65.746  1.00  0.00    -0.053 A  
HETATM   38  C   UNL     1      -7.526   7.381  65.001  1.00  0.00    -0.085 A  
ENDBRANCH  28  33
BRANCH  31  39
HETATM   39  C   UNL     1      -8.668   5.264  73.437  1.00  0.00    -0.115 C  
HETATM   40  C   UNL     1      -7.335   3.389  74.479  1.00  0.00    -0.053 C  
HETATM   41  C   UNL     1      -8.732   2.974  74.169  1.00  0.00    -0.076 A  
HETATM   42  H   UNL     1      -5.340   4.905  73.714  1.00  0.00     0.000 HD 
HETATM   43  C   UNL     1      -7.308   4.890  74.118  1.00  0.00    -0.082 C  
HETATM   44  O   UNL     1      -6.165   5.131  73.300  1.00  0.00    -0.043 OA 
HETATM   45  C   UNL     1      -9.295   1.720  74.411  1.00  0.00    -0.083 A  
HETATM   46  C   UNL     1     -10.643   1.528  74.109  1.00  0.00    -0.170 A  
HETATM   47  C   UNL     1     -11.407   2.577  73.590  1.00  0.00    -0.300 A  
HETATM   48  C   UNL     1     -10.832   3.825  73.332  1.00  0.00    -0.315 A  
HETATM   49  C   UNL     1      -9.476   4.009  73.617  1.00  0.00    -0.121 A  
ENDBRANCH  31  39
ENDBRANCH  23  26
ENDBRANCH  22  23
ENDBRANCH  12  22
ENDBRANCH   6   9
TORSDOF 8
ENDMDL
MODEL       77
REMARK 921   NORMALIZED FREE ENERGY PREDICTED BY IDOCK:   -5.21 KCAL/MOL
REMARK 922        TOTAL FREE ENERGY PREDICTED BY IDOCK:   -9.62 KCAL/MOL
REMARK 923 INTER-LIGAND FREE ENERGY PREDICTED BY IDOCK:   -7.82 KCAL/MOL
REMARK 924 INTRA-LIGAND FREE ENERGY PREDICTED BY IDOCK:   -1.80 KCAL/MOL
REMARK 927      BINDING AFFINITY PREDICTED BY RF-SCORE:    0.00 PKD
ROOT
HETATM    1  C   UNL     1      -9.461   4.401  72.756  1.00  0.00    -0.162 C  
HETATM    2  C   UNL     1      -8.140   5.128  73.030  1.00  0.00    -0.105 C  
HETATM    3  N   UNL     1      -7.234   5.244  71.844  1.00  0.00    -0.082 N  
HETATM    4  C   UNL     1      -7.388   4.278  74.095  1.00  0.00    -0.072 C  
HETATM    5  C   UNL     1      -8.423   6.488  73.684  1.00  0.00    -0.130 C  
HETATM    6  C   UNL     1      -7.204   5.839  70.610  1.00  0.00    -0.082 C  
HETATM    7  H   UNL     1      -6.374   4.720  72.004  1.00  0.00     0.000 HD 
HETATM    8  O   UNL     1      -6.080   5.895  70.089  1.00  0.00    -0.024 OA 
ENDROOT
BRANCH   6   9
HETATM    9  C   UNL     1      -8.431   6.351  69.836  1.00  0.00    -0.131 C  
HETATM   10  C   UNL     1      -8.843   5.599  68.508  1.00  0.00    -0.108 C  
HETATM   11  N   UNL     1     -10.258   5.911  68.130  1.00  0.00    -0.166 NA 
HETATM   12  N   UNL     1      -8.446   7.831  69.653  1.00  0.00    -0.132 NA 
HETATM   13  C   UNL     1     -10.531   7.373  68.232  1.00  0.00    -0.189 C  
HETATM   14  C   UNL     1      -9.893   8.118  69.439  1.00  0.00    -0.182 C  
BRANCH  11  15
HETATM   15  C   UNL     1     -10.621   5.484  66.758  1.00  0.00    -0.291 C  
BRANCH  15  16
HETATM   16  C   UNL     1      -9.589   4.723  65.962  1.00  0.00    -0.187 A  
HETATM   17  C   UNL     1      -9.455   3.346  66.116  1.00  0.00    -0.112 A  
HETATM   18  N   UNL     1      -8.467   2.600  65.563  1.00  0.00    -0.097 NA 
HETATM   19  C   UNL     1      -7.597   4.627  64.593  1.00  0.00    -0.073 A  
HETATM   20  C   UNL     1      -7.559   3.261  64.816  1.00  0.00    -0.077 A  
HETATM   21  C   UNL     1      -8.628   5.367  65.179  1.00  0.00    -0.149 A  
ENDBRANCH  15  16
ENDBRANCH  11  15
BRANCH  12  22
HETATM   22  C   UNL     1      -7.651   8.422  68.513  1.00  0.00    -0.096 C  
BRANCH  22  23
HETATM   23  C   UNL     1      -8.168   9.693  67.775  1.00  0.00    -0.114 C  
HETATM   24  O   UNL     1      -7.067  10.601  67.602  1.00  0.00    -0.081 OA 
HETATM   25  H   UNL     1      -7.382  11.376  67.152  1.00  0.00     0.000 HD 
BRANCH  23  26
HETATM   26  C   UNL     1      -8.668   9.519  66.312  1.00  0.00    -0.158 C  
HETATM   27  C   UNL     1      -8.789  10.731  65.352  1.00  0.00    -0.202 C  
HETATM   28  C   UNL     1      -8.887  10.215  63.874  1.00  0.00    -0.248 C  
HETATM   29  C   UNL     1     -10.042  11.566  65.688  1.00  0.00    -0.237 C  
HETATM   30  O   UNL     1     -11.024  11.086  66.247  1.00  0.00    -0.224 OA 
HETATM   31  N   UNL     1     -10.001  12.901  65.327  1.00  0.00    -0.452 N  
HETATM   32  H   UNL     1      -9.271  13.226  64.694  1.00  0.00     0.000 HD 
BRANCH  28  33
HETATM   33  C   UNL     1      -7.677   9.466  63.316  1.00  0.00    -0.115 A  
HETATM   34  C   UNL     1      -7.705   8.079  63.123  1.00  0.00    -0.139 A  
HETATM   35  C   UNL     1      -6.485  10.147  63.022  1.00  0.00    -0.136 A  
HETATM   36  C   UNL     1      -5.356   9.463  62.531  1.00  0.00    -0.084 A  
HETATM   37  C   UNL     1      -6.578   7.395  62.632  1.00  0.00    -0.065 A  
HETATM   38  C   UNL     1      -5.405   8.088  62.334  1.00  0.00    -0.064 A  
ENDBRANCH  28  33
BRANCH  31  39
HETATM   39  C   UNL     1     -10.995  13.865  65.844  1.00  0.00    -0.284 C  
HETATM   40  C   UNL     1     -11.900  15.793  64.488  1.00  0.00    -0.126 C  
HETATM   41  C   UNL     1     -10.841  16.230  65.440  1.00  0.00    -0.284 A  
HETATM   42  H   UNL     1     -12.717  13.827  62.961  1.00  0.00     0.000 HD 
HETATM   43  C   UNL     1     -12.090  14.296  64.812  1.00  0.00    -0.446 C  
HETATM   44  O   UNL     1     -12.052  13.566  63.587  1.00  0.00    -0.524 OA 
HETATM   45  C   UNL     1     -10.371  17.533  65.613  1.00  0.00    -0.145 A  
HETATM   46  C   UNL     1      -9.412  17.769  66.597  1.00  0.00    -0.299 A  
HETATM   47  C   UNL     1      -8.949  16.720  67.397  1.00  0.00    -0.211 A  
HETATM   48  C   UNL     1      -9.409  15.414  67.206  1.00  0.00    -0.218 A  
HETATM   49  C   UNL     1     -10.356  15.177  66.205  1.00  0.00    -0.313 A  
ENDBRANCH  31  39
ENDBRANCH  23  26
ENDBRANCH  22  23
ENDBRANCH  12  22
ENDBRANCH   6   9
TORSDOF 8
ENDMDL
MODEL       78
REMARK 921   NORMALIZED FREE ENERGY PREDICTED BY IDOCK:   -5.21 KCAL/MOL
REMARK 922        TOTAL FREE ENERGY PREDICTED BY IDOCK:   -9.61 KCAL/MOL
REMARK 923 INTER-LIGAND FREE ENERGY PREDICTED BY IDOCK:   -8.15 KCAL/MOL
REMARK 924 INTRA-LIGAND FREE ENERGY PREDICTED BY IDOCK:   -1.46 KCAL/MOL
REMARK 927      BINDING AFFINITY PREDICTED BY RF-SCORE:    0.00 PKD
ROOT
HETATM    1  C   UNL     1     -11.731  10.176  68.479  1.00  0.00     0.166 C  
HETATM    2  C   UNL     1     -11.144  10.791  69.753  1.00  0.00    -0.281 C  
HETATM    3  N   UNL     1      -9.842  10.196  70.193  1.00  0.00    -0.408 N  
HETATM    4  C   UNL     1     -12.175  10.516  70.885  1.00  0.00    -0.490 C  
HETATM    5  C   UNL     1     -11.065  12.318  69.603  1.00  0.00    -0.021 C  
HETATM    6  C   UNL     1      -8.549  10.081  69.757  1.00  0.00    -0.173 C  
HETATM    7  H   UNL     1      -9.953   9.732  71.094  1.00  0.00     0.000 HD 
HETATM    8  O   UNL     1      -7.736   9.744  70.630  1.00  0.00    -0.270 OA 
ENDROOT
BRANCH   6   9
HETATM    9  C   UNL     1      -8.077  10.266  68.304  1.00  0.00    -0.107 C  
HETATM   10  C   UNL     1      -9.173  10.409  67.175  1.00  0.00    -0.143 C  
HETATM   11  N   UNL     1      -8.592  11.014  65.934  1.00  0.00    -0.177 NA 
HETATM   12  N   UNL     1      -6.998   9.318  67.902  1.00  0.00    -0.076 NA 
HETATM   13  C   UNL     1      -7.291  10.376  65.585  1.00  0.00    -0.148 C  
HETATM   14  C   UNL     1      -6.343  10.031  66.768  1.00  0.00    -0.069 C  
BRANCH  11  15
HETATM   15  C   UNL     1      -9.473  10.912  64.746  1.00  0.00    -0.238 C  
BRANCH  15  16
HETATM   16  C   UNL     1     -10.543  11.962  64.573  1.00  0.00    -0.358 A  
HETATM   17  C   UNL     1     -11.512  11.823  63.583  1.00  0.00    -0.431 A  
HETATM   18  N   UNL     1     -12.419  12.776  63.252  1.00  0.00    -0.674 NA 
HETATM   19  C   UNL     1     -11.438  14.177  64.949  1.00  0.00    -0.366 A  
HETATM   20  C   UNL     1     -12.357  13.932  63.942  1.00  0.00    -0.272 A  
HETATM   21  C   UNL     1     -10.517  13.175  65.264  1.00  0.00    -0.319 A  
ENDBRANCH  15  16
ENDBRANCH  11  15
BRANCH  12  22
HETATM   22  C   UNL     1      -7.392   7.931  67.452  1.00  0.00    -0.092 C  
BRANCH  22  23
HETATM   23  C   UNL     1      -6.299   6.911  67.017  1.00  0.00    -0.045 C  
HETATM   24  O   UNL     1      -5.421   6.678  68.131  1.00  0.00    -0.011 OA 
HETATM   25  H   UNL     1      -4.754   6.055  67.865  1.00  0.00     0.000 HD 
BRANCH  23  26
HETATM   26  C   UNL     1      -6.763   5.466  66.672  1.00  0.00    -0.058 C  
HETATM   27  C   UNL     1      -8.008   4.836  67.347  1.00  0.00    -0.094 C  
HETATM   28  C   UNL     1      -8.478   3.593  66.513  1.00  0.00    -0.107 C  
HETATM   29  C   UNL     1      -7.678   4.391  68.787  1.00  0.00    -0.066 C  
HETATM   30  O   UNL     1      -6.538   4.109  69.145  1.00  0.00    -0.038 OA 
HETATM   31  N   UNL     1      -8.743   4.333  69.668  1.00  0.00    -0.072 N  
HETATM   32  H   UNL     1      -9.695   4.375  69.304  1.00  0.00     0.000 HD 
BRANCH  28  33
HETATM   33  C   UNL     1      -8.967   3.855  65.089  1.00  0.00    -0.132 A  
HETATM   34  C   UNL     1      -8.148   4.485  64.143  1.00  0.00    -0.100 A  
HETATM   35  C   UNL     1     -10.271   3.508  64.702  1.00  0.00    -0.092 A  
HETATM   36  C   UNL     1     -10.739   3.767  63.400  1.00  0.00    -0.205 A  
HETATM   37  C   UNL     1      -8.615   4.744  62.841  1.00  0.00    -0.119 A  
HETATM   38  C   UNL     1      -9.909   4.382  62.470  1.00  0.00    -0.071 A  
ENDBRANCH  28  33
BRANCH  31  39
HETATM   39  C   UNL     1      -8.528   4.210  71.125  1.00  0.00    -0.084 C  
HETATM   40  C   UNL     1     -10.313   3.440  72.736  1.00  0.00    -0.240 C  
HETATM   41  C   UNL     1     -10.158   4.922  72.742  1.00  0.00    -0.215 A  
HETATM   42  H   UNL     1     -10.176   1.286  71.250  1.00  0.00     0.000 HD 
HETATM   43  C   UNL     1      -9.197   2.958  71.785  1.00  0.00    -0.110 C  
HETATM   44  O   UNL     1      -9.771   2.047  70.849  1.00  0.00    -0.132 OA 
HETATM   45  C   UNL     1     -10.877   5.825  73.527  1.00  0.00    -0.272 A  
HETATM   46  C   UNL     1     -10.556   7.179  73.445  1.00  0.00    -0.424 A  
HETATM   47  C   UNL     1      -9.527   7.610  72.603  1.00  0.00    -0.230 A  
HETATM   48  C   UNL     1      -8.824   6.704  71.804  1.00  0.00    -0.130 A  
HETATM   49  C   UNL     1      -9.161   5.349  71.874  1.00  0.00    -0.155 A  
ENDBRANCH  31  39
ENDBRANCH  23  26
ENDBRANCH  22  23
ENDBRANCH  12  22
ENDBRANCH   6   9
TORSDOF 8
ENDMDL
MODEL       79
REMARK 921   NORMALIZED FREE ENERGY PREDICTED BY IDOCK:   -5.19 KCAL/MOL
REMARK 922        TOTAL FREE ENERGY PREDICTED BY IDOCK:   -9.58 KCAL/MOL
REMARK 923 INTER-LIGAND FREE ENERGY PREDICTED BY IDOCK:   -8.48 KCAL/MOL
REMARK 924 INTRA-LIGAND FREE ENERGY PREDICTED BY IDOCK:   -1.11 KCAL/MOL
REMARK 927      BINDING AFFINITY PREDICTED BY RF-SCORE:    0.00 PKD
ROOT
HETATM    1  C   UNL     1      -7.968   7.824  72.192  1.00  0.00    -0.130 C  
HETATM    2  C   UNL     1      -8.261   6.652  73.134  1.00  0.00    -0.112 C  
HETATM    3  N   UNL     1      -9.697   6.231  73.181  1.00  0.00    -0.157 N  
HETATM    4  C   UNL     1      -7.882   7.137  74.563  1.00  0.00    -0.165 C  
HETATM    5  C   UNL     1      -7.320   5.481  72.812  1.00  0.00    -0.092 C  
HETATM    6  C   UNL     1     -10.653   5.696  72.359  1.00  0.00    -0.224 C  
HETATM    7  H   UNL     1     -10.082   6.394  74.111  1.00  0.00     0.000 HD 
HETATM    8  O   UNL     1     -11.643   5.236  72.947  1.00  0.00    -0.310 OA 
ENDROOT
BRANCH   6   9
HETATM    9  C   UNL     1     -10.610   5.694  70.821  1.00  0.00    -0.265 C  
HETATM   10  C   UNL     1      -9.250   5.307  70.114  1.00  0.00    -0.139 C  
HETATM   11  N   UNL     1      -9.479   4.922  68.684  1.00  0.00    -0.135 NA 
HETATM   12  N   UNL     1     -11.222   6.906  70.206  1.00  0.00    -0.297 NA 
HETATM   13  C   UNL     1     -10.383   5.892  68.005  1.00  0.00    -0.208 C  
HETATM   14  C   UNL     1     -11.580   6.431  68.838  1.00  0.00     0.152 C  
BRANCH  11  15
HETATM   15  C   UNL     1      -8.236   4.831  67.881  1.00  0.00    -0.096 C  
BRANCH  15  16
HETATM   16  C   UNL     1      -7.249   3.747  68.235  1.00  0.00    -0.054 A  
HETATM   17  C   UNL     1      -6.796   3.606  69.544  1.00  0.00    -0.041 A  
HETATM   18  N   UNL     1      -5.805   2.766  69.932  1.00  0.00    -0.021 NA 
HETATM   19  C   UNL     1      -5.601   2.082  67.630  1.00  0.00    -0.018 A  
HETATM   20  C   UNL     1      -5.229   2.026  68.963  1.00  0.00    -0.012 A  
HETATM   21  C   UNL     1      -6.625   2.959  67.264  1.00  0.00    -0.037 A  
ENDBRANCH  15  16
ENDBRANCH  11  15
BRANCH  12  22
HETATM   22  C   UNL     1     -10.382   8.156  70.090  1.00  0.00    -0.215 C  
BRANCH  22  23
HETATM   23  C   UNL     1     -10.946   9.414  69.367  1.00  0.00    -0.145 C  
HETATM   24  O   UNL     1     -10.395  10.586  69.990  1.00  0.00    -0.419 OA 
HETATM   25  H   UNL     1     -10.739  11.354  69.549  1.00  0.00     0.000 HD 
BRANCH  23  26
HETATM   26  C   UNL     1     -10.544   9.628  67.879  1.00  0.00    -0.308 C  
HETATM   27  C   UNL     1      -9.899  10.953  67.400  1.00  0.00    -0.199 C  
HETATM   28  C   UNL     1      -9.219  10.727  66.005  1.00  0.00    -0.210 C  
HETATM   29  C   UNL     1     -10.966  12.062  67.276  1.00  0.00    -0.262 C  
HETATM   30  O   UNL     1     -12.153  11.816  67.084  1.00  0.00    -0.592 OA 
HETATM   31  N   UNL     1     -10.512  13.363  67.401  1.00  0.00    -0.243 N  
HETATM   32  H   UNL     1      -9.510  13.550  67.359  1.00  0.00     0.000 HD 
BRANCH  28  33
HETATM   33  C   UNL     1      -8.046   9.748  65.953  1.00  0.00    -0.114 A  
HETATM   34  C   UNL     1      -8.223   8.423  65.532  1.00  0.00    -0.140 A  
HETATM   35  C   UNL     1      -6.764  10.140  66.369  1.00  0.00    -0.092 A  
HETATM   36  C   UNL     1      -5.683   9.238  66.348  1.00  0.00    -0.053 A  
HETATM   37  C   UNL     1      -7.143   7.522  65.511  1.00  0.00    -0.061 A  
HETATM   38  C   UNL     1      -5.873   7.932  65.916  1.00  0.00    -0.037 A  
ENDBRANCH  28  33
BRANCH  31  39
HETATM   39  C   UNL     1     -11.452  14.487  67.594  1.00  0.00    -0.353 C  
HETATM   40  C   UNL     1     -10.711  16.869  67.984  1.00  0.00    -0.364 C  
HETATM   41  C   UNL     1     -11.109  16.195  69.251  1.00  0.00    -0.327 A  
HETATM   42  H   UNL     1      -9.635  16.510  65.622  1.00  0.00     0.000 HD 
HETATM   43  C   UNL     1     -11.031  15.823  66.895  1.00  0.00    -0.207 C  
HETATM   44  O   UNL     1      -9.891  15.699  66.047  1.00  0.00    -0.282 OA 
HETATM   45  C   UNL     1     -11.103  16.762  70.527  1.00  0.00     0.195 A  
HETATM   46  C   UNL     1     -11.566  15.997  71.596  1.00  0.00    -0.538 A  
HETATM   47  C   UNL     1     -12.038  14.698  71.383  1.00  0.00    -0.416 A  
HETATM   48  C   UNL     1     -12.023  14.129  70.107  1.00  0.00    -0.400 A  
HETATM   49  C   UNL     1     -11.539  14.891  69.040  1.00  0.00    -0.330 A  
ENDBRANCH  31  39
ENDBRANCH  23  26
ENDBRANCH  22  23
ENDBRANCH  12  22
ENDBRANCH   6   9
TORSDOF 8
ENDMDL
MODEL       80
REMARK 921   NORMALIZED FREE ENERGY PREDICTED BY IDOCK:   -5.18 KCAL/MOL
REMARK 922        TOTAL FREE ENERGY PREDICTED BY IDOCK:   -9.57 KCAL/MOL
REMARK 923 INTER-LIGAND FREE ENERGY PREDICTED BY IDOCK:   -8.44 KCAL/MOL
REMARK 924 INTRA-LIGAND FREE ENERGY PREDICTED BY IDOCK:   -1.12 KCAL/MOL
REMARK 927      BINDING AFFINITY PREDICTED BY RF-SCORE:    0.00 PKD
ROOT
HETATM    1  C   UNL     1      -9.458   7.608  66.137  1.00  0.00    -0.117 C  
HETATM    2  C   UNL     1      -8.088   7.052  65.736  1.00  0.00    -0.123 C  
HETATM    3  N   UNL     1      -6.938   7.973  66.002  1.00  0.00    -0.057 N  
HETATM    4  C   UNL     1      -8.143   6.826  64.197  1.00  0.00    -0.029 C  
HETATM    5  C   UNL     1      -7.885   5.667  66.369  1.00  0.00    -0.101 C  
HETATM    6  C   UNL     1      -6.294   8.556  67.060  1.00  0.00    -0.057 C  
HETATM    7  H   UNL     1      -6.499   8.251  65.124  1.00  0.00     0.000 HD 
HETATM    8  O   UNL     1      -5.174   9.019  66.794  1.00  0.00    -0.037 OA 
ENDROOT
BRANCH   6   9
HETATM    9  C   UNL     1      -6.875   8.729  68.474  1.00  0.00    -0.064 C  
HETATM   10  C   UNL     1      -7.982   7.709  68.956  1.00  0.00    -0.121 C  
HETATM   11  N   UNL     1      -8.114   7.724  70.448  1.00  0.00    -0.113 NA 
HETATM   12  N   UNL     1      -7.249  10.136  68.798  1.00  0.00    -0.078 NA 
HETATM   13  C   UNL     1      -8.158   9.119  70.969  1.00  0.00    -0.134 C  
HETATM   14  C   UNL     1      -7.212  10.148  70.289  1.00  0.00    -0.121 C  
BRANCH  11  15
HETATM   15  C   UNL     1      -9.318   7.020  70.951  1.00  0.00    -0.157 C  
BRANCH  15  16
HETATM   16  C   UNL     1      -9.151   5.602  71.439  1.00  0.00    -0.152 A  
HETATM   17  C   UNL     1      -7.916   5.157  71.904  1.00  0.00    -0.112 A  
HETATM   18  N   UNL     1      -7.629   3.871  72.221  1.00  0.00    -0.068 NA 
HETATM   19  C   UNL     1      -9.892   3.306  71.616  1.00  0.00    -0.220 A  
HETATM   20  C   UNL     1      -8.624   2.975  72.066  1.00  0.00    -0.073 A  
HETATM   21  C   UNL     1     -10.154   4.641  71.296  1.00  0.00    -0.245 A  
ENDBRANCH  15  16
ENDBRANCH  11  15
BRANCH  12  22
HETATM   22  C   UNL     1      -8.592  10.647  68.333  1.00  0.00    -0.134 C  
BRANCH  22  23
HETATM   23  C   UNL     1      -9.090  12.054  68.779  1.00  0.00     0.083 C  
HETATM   24  O   UNL     1      -8.060  13.015  68.494  1.00  0.00    -0.208 OA 
HETATM   25  H   UNL     1      -8.364  13.874  68.767  1.00  0.00     0.000 HD 
BRANCH  23  26
HETATM   26  C   UNL     1     -10.306  12.659  68.019  1.00  0.00    -0.231 C  
HETATM   27  C   UNL     1     -10.197  14.012  67.271  1.00  0.00    -0.260 C  
HETATM   28  C   UNL     1     -11.395  14.149  66.267  1.00  0.00    -0.340 C  
HETATM   29  C   UNL     1     -10.230  15.188  68.269  1.00  0.00    -0.223 C  
HETATM   30  O   UNL     1     -10.761  15.102  69.373  1.00  0.00    -0.243 OA 
HETATM   31  N   UNL     1      -9.616  16.357  67.856  1.00  0.00    -0.227 N  
HETATM   32  H   UNL     1      -9.363  16.469  66.875  1.00  0.00     0.000 HD 
BRANCH  28  33
HETATM   33  C   UNL     1     -11.461  13.138  65.121  1.00  0.00    -0.327 A  
HETATM   34  C   UNL     1     -10.297  12.634  64.527  1.00  0.00    -0.369 A  
HETATM   35  C   UNL     1     -12.698  12.721  64.603  1.00  0.00    -0.439 A  
HETATM   36  C   UNL     1     -12.769  11.810  63.532  1.00  0.00    -0.428 A  
HETATM   37  C   UNL     1     -10.368  11.723  63.457  1.00  0.00    -0.490 A  
HETATM   38  C   UNL     1     -11.605  11.310  62.963  1.00  0.00     0.487 A  
ENDBRANCH  28  33
BRANCH  31  39
HETATM   39  C   UNL     1      -9.321  17.446  68.811  1.00  0.00    -0.244 C  
HETATM   40  C   UNL     1      -8.879  19.831  68.108  1.00  0.00    -0.347 C  
HETATM   41  C   UNL     1      -7.619  19.097  68.410  1.00  0.00    -0.347 A  
HETATM   42  H   UNL     1     -11.314  19.595  67.170  1.00  0.00     0.000 HD 
HETATM   43  C   UNL     1      -9.989  18.820  68.467  1.00  0.00    -0.400 C  
HETATM   44  O   UNL     1     -10.908  18.761  67.378  1.00  0.00    -0.449 OA 
HETATM   45  C   UNL     1      -6.324  19.613  68.341  1.00  0.00    -0.289 A  
HETATM   46  C   UNL     1      -5.261  18.794  68.719  1.00  0.00    -0.189 A  
HETATM   47  C   UNL     1      -5.498  17.492  69.169  1.00  0.00    -0.177 A  
HETATM   48  C   UNL     1      -6.795  16.974  69.218  1.00  0.00    -0.219 A  
HETATM   49  C   UNL     1      -7.858  17.791  68.820  1.00  0.00    -0.251 A  
ENDBRANCH  31  39
ENDBRANCH  23  26
ENDBRANCH  22  23
ENDBRANCH  12  22
ENDBRANCH   6   9
TORSDOF 8
ENDMDL
MODEL       81
REMARK 921   NORMALIZED FREE ENERGY PREDICTED BY IDOCK:   -5.14 KCAL/MOL
REMARK 922        TOTAL FREE ENERGY PREDICTED BY IDOCK:   -9.50 KCAL/MOL
REMARK 923 INTER-LIGAND FREE ENERGY PREDICTED BY IDOCK:   -8.22 KCAL/MOL
REMARK 924 INTRA-LIGAND FREE ENERGY PREDICTED BY IDOCK:   -1.28 KCAL/MOL
REMARK 927      BINDING AFFINITY PREDICTED BY RF-SCORE:    0.00 PKD
ROOT
HETATM    1  C   UNL     1     -12.293  12.434  63.858  1.00  0.00    -0.602 C  
HETATM    2  C   UNL     1     -11.893  13.516  64.866  1.00  0.00    -0.374 C  
HETATM    3  N   UNL     1     -12.151  13.163  66.298  1.00  0.00    -0.409 N  
HETATM    4  C   UNL     1     -12.769  14.760  64.540  1.00  0.00     0.072 C  
HETATM    5  C   UNL     1     -10.436  13.938  64.622  1.00  0.00    -0.419 C  
HETATM    6  C   UNL     1     -11.736  12.258  67.238  1.00  0.00    -0.324 C  
HETATM    7  H   UNL     1     -12.850  13.790  66.696  1.00  0.00     0.000 HD 
HETATM    8  O   UNL     1     -12.026  12.555  68.407  1.00  0.00    -0.322 OA 
ENDROOT
BRANCH   6   9
HETATM    9  C   UNL     1     -11.030  10.923  66.943  1.00  0.00    -0.223 C  
HETATM   10  C   UNL     1     -10.946   9.852  68.102  1.00  0.00    -0.207 C  
HETATM   11  N   UNL     1     -10.650   8.488  67.554  1.00  0.00    -0.247 NA 
HETATM   12  N   UNL     1      -9.720  11.081  66.249  1.00  0.00    -0.200 NA 
HETATM   13  C   UNL     1      -9.548   8.541  66.553  1.00  0.00    -0.236 C  
HETATM   14  C   UNL     1      -9.541   9.757  65.585  1.00  0.00    -0.263 C  
BRANCH  11  15
HETATM   15  C   UNL     1     -10.270   7.496  68.588  1.00  0.00    -0.197 C  
BRANCH  15  16
HETATM   16  C   UNL     1      -9.492   6.282  68.143  1.00  0.00    -0.113 A  
HETATM   17  C   UNL     1      -8.131   6.178  68.419  1.00  0.00    -0.108 A  
HETATM   18  N   UNL     1      -7.318   5.206  67.937  1.00  0.00    -0.074 NA 
HETATM   19  C   UNL     1      -9.233   4.290  66.797  1.00  0.00    -0.156 A  
HETATM   20  C   UNL     1      -7.889   4.286  67.134  1.00  0.00    -0.096 A  
HETATM   21  C   UNL     1     -10.042   5.306  67.309  1.00  0.00    -0.234 A  
ENDBRANCH  15  16
ENDBRANCH  11  15
BRANCH  12  22
HETATM   22  C   UNL     1      -8.498  11.385  67.081  1.00  0.00    -0.153 C  
BRANCH  22  23
HETATM   23  C   UNL     1      -7.647  12.656  66.786  1.00  0.00     0.275 C  
HETATM   24  O   UNL     1      -8.444  13.817  67.076  1.00  0.00    -0.312 OA 
HETATM   25  H   UNL     1      -7.925  14.593  66.896  1.00  0.00     0.000 HD 
BRANCH  23  26
HETATM   26  C   UNL     1      -6.393  12.903  67.675  1.00  0.00    -0.158 C  
HETATM   27  C   UNL     1      -6.377  14.016  68.754  1.00  0.00    -0.090 C  
HETATM   28  C   UNL     1      -5.198  13.752  69.754  1.00  0.00    -0.086 C  
HETATM   29  C   UNL     1      -6.194  15.402  68.102  1.00  0.00    -0.127 C  
HETATM   30  O   UNL     1      -5.647  15.552  67.013  1.00  0.00    -0.260 OA 
HETATM   31  N   UNL     1      -6.690  16.481  68.811  1.00  0.00    -0.159 N  
HETATM   32  H   UNL     1      -6.955  16.358  69.789  1.00  0.00     0.000 HD 
BRANCH  28  33
HETATM   33  C   UNL     1      -5.268  12.474  70.592  1.00  0.00    -0.138 A  
HETATM   34  C   UNL     1      -5.179  12.515  71.989  1.00  0.00     0.139 A  
HETATM   35  C   UNL     1      -5.381  11.218  69.976  1.00  0.00    -0.068 A  
HETATM   36  C   UNL     1      -5.421  10.034  70.738  1.00  0.00    -0.069 A  
HETATM   37  C   UNL     1      -5.220  11.332  72.751  1.00  0.00     0.568 A  
HETATM   38  C   UNL     1      -5.344  10.093  72.124  1.00  0.00     0.097 A  
ENDBRANCH  28  33
BRANCH  31  39
HETATM   39  C   UNL     1      -6.844  17.809  68.180  1.00  0.00    -0.206 C  
HETATM   40  C   UNL     1      -7.622  19.862  69.427  1.00  0.00    -0.011 C  
HETATM   41  C   UNL     1      -8.717  19.248  68.625  1.00  0.00    -0.402 A  
HETATM   42  H   UNL     1      -5.456  19.362  70.814  1.00  0.00     0.000 HD 
HETATM   43  C   UNL     1      -6.383  19.015  69.065  1.00  0.00    -0.267 C  
HETATM   44  O   UNL     1      -5.736  18.630  70.277  1.00  0.00    -0.238 OA 
HETATM   45  C   UNL     1     -10.030  19.712  68.528  1.00  0.00    -0.542 A  
HETATM   46  C   UNL     1     -10.910  19.043  67.679  1.00  0.00    -0.439 A  
HETATM   47  C   UNL     1     -10.474  17.942  66.935  1.00  0.00    -0.334 A  
HETATM   48  C   UNL     1      -9.163  17.470  67.052  1.00  0.00    -0.253 A  
HETATM   49  C   UNL     1      -8.289  18.132  67.919  1.00  0.00    -0.254 A  
ENDBRANCH  31  39
ENDBRANCH  23  26
ENDBRANCH  22  23
ENDBRANCH  12  22
ENDBRANCH   6   9
TORSDOF 8
ENDMDL
MODEL       82
REMARK 921   NORMALIZED FREE ENERGY PREDICTED BY IDOCK:   -5.12 KCAL/MOL
REMARK 922        TOTAL FREE ENERGY PREDICTED BY IDOCK:   -9.49 KCAL/MOL
REMARK 923 INTER-LIGAND FREE ENERGY PREDICTED BY IDOCK:   -9.62 KCAL/MOL
REMARK 924 INTRA-LIGAND FREE ENERGY PREDICTED BY IDOCK:    0.14 KCAL/MOL
REMARK 927      BINDING AFFINITY PREDICTED BY RF-SCORE:    0.00 PKD
ROOT
HETATM    1  C   UNL     1     -10.563  16.069  67.480  1.00  0.00    -0.313 C  
HETATM    2  C   UNL     1      -9.646  15.645  66.328  1.00  0.00    -0.308 C  
HETATM    3  N   UNL     1      -8.697  14.536  66.660  1.00  0.00    -0.432 N  
HETATM    4  C   UNL     1      -8.784  16.892  65.976  1.00  0.00    -0.193 C  
HETATM    5  C   UNL     1     -10.489  15.338  65.081  1.00  0.00    -0.438 C  
HETATM    6  C   UNL     1      -8.723  13.213  67.010  1.00  0.00    -0.189 C  
HETATM    7  H   UNL     1      -7.734  14.869  66.610  1.00  0.00     0.000 HD 
HETATM    8  O   UNL     1      -7.639  12.623  66.889  1.00  0.00    -0.040 OA 
ENDROOT
BRANCH   6   9
HETATM    9  C   UNL     1      -9.938  12.464  67.585  1.00  0.00    -0.200 C  
HETATM   10  C   UNL     1     -10.397  12.808  69.058  1.00  0.00     0.069 C  
HETATM   11  N   UNL     1     -11.804  12.354  69.303  1.00  0.00    -0.313 NA 
HETATM   12  N   UNL     1      -9.896  10.992  67.355  1.00  0.00    -0.172 NA 
HETATM   13  C   UNL     1     -12.016  10.969  68.797  1.00  0.00    -0.225 C  
HETATM   14  C   UNL     1     -11.334  10.606  67.448  1.00  0.00    -0.105 C  
BRANCH  11  15
HETATM   15  C   UNL     1     -12.201  12.375  70.731  1.00  0.00    -0.242 C  
BRANCH  15  16
HETATM   16  C   UNL     1     -12.504  13.714  71.357  1.00  0.00    -0.374 A  
HETATM   17  C   UNL     1     -11.549  14.728  71.348  1.00  0.00    -0.245 A  
HETATM   18  N   UNL     1     -11.668  15.905  72.009  1.00  0.00    -0.464 NA 
HETATM   19  C   UNL     1     -13.816  15.148  72.796  1.00  0.00    -0.508 A  
HETATM   20  C   UNL     1     -12.799  16.086  72.721  1.00  0.00    -0.437 A  
HETATM   21  C   UNL     1     -13.661  13.944  72.105  1.00  0.00    -0.599 A  
ENDBRANCH  15  16
ENDBRANCH  11  15
BRANCH  12  22
HETATM   22  C   UNL     1      -9.094  10.138  68.307  1.00  0.00    -0.122 C  
BRANCH  22  23
HETATM   23  C   UNL     1      -8.658   8.701  67.892  1.00  0.00    -0.137 C  
HETATM   24  O   UNL     1      -7.475   8.351  68.630  1.00  0.00    -0.089 OA 
HETATM   25  H   UNL     1      -7.209   7.475  68.377  1.00  0.00     0.000 HD 
BRANCH  23  26
HETATM   26  C   UNL     1      -9.615   7.528  68.253  1.00  0.00    -0.157 C  
HETATM   27  C   UNL     1      -9.101   6.069  68.349  1.00  0.00    -0.112 C  
HETATM   28  C   UNL     1     -10.146   5.201  69.132  1.00  0.00    -0.274 C  
HETATM   29  C   UNL     1      -8.892   5.473  66.941  1.00  0.00    -0.112 C  
HETATM   30  O   UNL     1      -9.503   5.878  65.956  1.00  0.00    -0.144 OA 
HETATM   31  N   UNL     1      -7.964   4.451  66.842  1.00  0.00    -0.101 N  
HETATM   32  H   UNL     1      -7.622   4.002  67.691  1.00  0.00     0.000 HD 
BRANCH  28  33
HETATM   33  C   UNL     1     -10.397   5.564  70.596  1.00  0.00    -0.332 A  
HETATM   34  C   UNL     1      -9.956   4.737  71.637  1.00  0.00    -0.257 A  
HETATM   35  C   UNL     1     -11.117   6.721  70.935  1.00  0.00    -0.322 A  
HETATM   36  C   UNL     1     -11.374   7.051  72.279  1.00  0.00    -0.305 A  
HETATM   37  C   UNL     1     -10.212   5.067  72.980  1.00  0.00    -0.214 A  
HETATM   38  C   UNL     1     -10.919   6.226  73.300  1.00  0.00    -0.221 A  
ENDBRANCH  28  33
BRANCH  31  39
HETATM   39  C   UNL     1      -7.460   3.999  65.528  1.00  0.00    -0.081 C  
HETATM   40  C   UNL     1      -7.344   5.491  63.494  1.00  0.00    -0.053 C  
HETATM   41  C   UNL     1      -8.528   4.588  63.456  1.00  0.00    -0.114 A  
HETATM   42  H   UNL     1      -5.747   6.851  65.064  1.00  0.00     0.000 HD 
HETATM   43  C   UNL     1      -6.585   5.049  64.764  1.00  0.00    -0.040 C  
HETATM   44  O   UNL     1      -6.278   6.214  65.528  1.00  0.00    -0.035 OA 
HETATM   45  C   UNL     1      -9.485   4.521  62.443  1.00  0.00    -0.107 A  
HETATM   46  C   UNL     1     -10.498   3.569  62.546  1.00  0.00    -0.182 A  
HETATM   47  C   UNL     1     -10.537   2.696  63.637  1.00  0.00    -0.166 A  
HETATM   48  C   UNL     1      -9.587   2.780  64.659  1.00  0.00    -0.112 A  
HETATM   49  C   UNL     1      -8.584   3.749  64.562  1.00  0.00    -0.105 A  
ENDBRANCH  31  39
ENDBRANCH  23  26
ENDBRANCH  22  23
ENDBRANCH  12  22
ENDBRANCH   6   9
TORSDOF 8
ENDMDL
MODEL       83
REMARK 921   NORMALIZED FREE ENERGY PREDICTED BY IDOCK:   -5.12 KCAL/MOL
REMARK 922        TOTAL FREE ENERGY PREDICTED BY IDOCK:   -9.48 KCAL/MOL
REMARK 923 INTER-LIGAND FREE ENERGY PREDICTED BY IDOCK:   -7.02 KCAL/MOL
REMARK 924 INTRA-LIGAND FREE ENERGY PREDICTED BY IDOCK:   -2.46 KCAL/MOL
REMARK 927      BINDING AFFINITY PREDICTED BY RF-SCORE:    0.00 PKD
ROOT
HETATM    1  C   UNL     1      -9.770   6.773  68.592  1.00  0.00    -0.131 C  
HETATM    2  C   UNL     1      -9.897   6.799  67.066  1.00  0.00    -0.167 C  
HETATM    3  N   UNL     1      -8.602   6.962  66.333  1.00  0.00    -0.128 N  
HETATM    4  C   UNL     1     -10.773   8.038  66.722  1.00  0.00    -0.077 C  
HETATM    5  C   UNL     1     -10.685   5.568  66.591  1.00  0.00    -0.332 C  
HETATM    6  C   UNL     1      -7.425   6.290  66.136  1.00  0.00    -0.085 C  
HETATM    7  H   UNL     1      -8.594   7.845  65.824  1.00  0.00     0.000 HD 
HETATM    8  O   UNL     1      -6.748   6.699  65.181  1.00  0.00    -0.047 OA 
ENDROOT
BRANCH   6   9
HETATM    9  C   UNL     1      -6.880   5.161  67.028  1.00  0.00    -0.060 C  
HETATM   10  C   UNL     1      -7.884   4.038  67.506  1.00  0.00    -0.090 C  
HETATM   11  N   UNL     1      -7.147   2.817  67.965  1.00  0.00    -0.048 NA 
HETATM   12  N   UNL     1      -6.028   5.646  68.152  1.00  0.00    -0.017 NA 
HETATM   13  C   UNL     1      -6.011   3.181  68.858  1.00  0.00    -0.024 C  
HETATM   14  C   UNL     1      -5.198   4.449  68.472  1.00  0.00    -0.007 C  
BRANCH  11  15
HETATM   15  C   UNL     1      -7.994   1.843  68.693  1.00  0.00    -0.052 C  
BRANCH  15  16
HETATM   16  C   UNL     1      -8.237   2.083  70.163  1.00  0.00    -0.061 A  
HETATM   17  C   UNL     1      -7.399   1.513  71.118  1.00  0.00    -0.032 A  
HETATM   18  N   UNL     1      -7.618   1.547  72.456  1.00  0.00    -0.041 NA 
HETATM   19  C   UNL     1      -9.636   2.785  72.007  1.00  0.00    -0.209 A  
HETATM   20  C   UNL     1      -8.735   2.180  72.868  1.00  0.00    -0.066 A  
HETATM   21  C   UNL     1      -9.381   2.731  70.635  1.00  0.00    -0.218 A  
ENDBRANCH  15  16
ENDBRANCH  11  15
BRANCH  12  22
HETATM   22  C   UNL     1      -6.706   6.128  69.412  1.00  0.00    -0.060 C  
BRANCH  22  23
HETATM   23  C   UNL     1      -6.262   7.464  70.078  1.00  0.00    -0.027 C  
HETATM   24  O   UNL     1      -6.200   8.481  69.064  1.00  0.00    -0.042 OA 
HETATM   25  H   UNL     1      -5.928   9.297  69.471  1.00  0.00     0.000 HD 
BRANCH  23  26
HETATM   26  C   UNL     1      -7.230   8.107  71.114  1.00  0.00    -0.060 C  
HETATM   27  C   UNL     1      -8.579   8.732  70.676  1.00  0.00    -0.203 C  
HETATM   28  C   UNL     1      -9.507   8.895  71.930  1.00  0.00    -0.301 C  
HETATM   29  C   UNL     1      -8.351  10.112  70.024  1.00  0.00    -0.018 C  
HETATM   30  O   UNL     1      -7.370  10.806  70.274  1.00  0.00    -0.106 OA 
HETATM   31  N   UNL     1      -9.318  10.531  69.127  1.00  0.00    -0.247 N  
HETATM   32  H   UNL     1     -10.210  10.038  69.087  1.00  0.00     0.000 HD 
BRANCH  28  33
HETATM   33  C   UNL     1      -9.947   7.616  72.642  1.00  0.00    -0.279 A  
HETATM   34  C   UNL     1      -9.311   7.179  73.812  1.00  0.00    -0.272 A  
HETATM   35  C   UNL     1     -10.975   6.819  72.115  1.00  0.00    -0.270 A  
HETATM   36  C   UNL     1     -11.371   5.626  72.750  1.00  0.00    -0.350 A  
HETATM   37  C   UNL     1      -9.707   5.987  74.447  1.00  0.00    -0.242 A  
HETATM   38  C   UNL     1     -10.738   5.214  73.916  1.00  0.00    -0.342 A  
ENDBRANCH  28  33
BRANCH  31  39
HETATM   39  C   UNL     1      -9.081  11.677  68.225  1.00  0.00    -0.187 C  
HETATM   40  C   UNL     1     -10.890  12.738  66.818  1.00  0.00    -0.289 C  
HETATM   41  C   UNL     1     -10.035  11.814  66.022  1.00  0.00    -0.258 A  
HETATM   42  H   UNL     1     -11.928  13.180  69.183  1.00  0.00     0.000 HD 
HETATM   43  C   UNL     1     -10.223  12.748  68.210  1.00  0.00    -0.244 C  
HETATM   44  O   UNL     1     -11.235  12.530  69.192  1.00  0.00    -0.252 OA 
HETATM   45  C   UNL     1     -10.164  11.535  64.660  1.00  0.00    -0.334 A  
HETATM   46  C   UNL     1      -9.232  10.685  64.065  1.00  0.00    -0.269 A  
HETATM   47  C   UNL     1      -8.189  10.142  64.820  1.00  0.00    -0.161 A  
HETATM   48  C   UNL     1      -8.077  10.408  66.188  1.00  0.00    -0.139 A  
HETATM   49  C   UNL     1      -9.024  11.245  66.786  1.00  0.00    -0.173 A  
ENDBRANCH  31  39
ENDBRANCH  23  26
ENDBRANCH  22  23
ENDBRANCH  12  22
ENDBRANCH   6   9
TORSDOF 8
ENDMDL
MODEL       84
REMARK 921   NORMALIZED FREE ENERGY PREDICTED BY IDOCK:   -5.09 KCAL/MOL
REMARK 922        TOTAL FREE ENERGY PREDICTED BY IDOCK:   -9.44 KCAL/MOL
REMARK 923 INTER-LIGAND FREE ENERGY PREDICTED BY IDOCK:   -8.10 KCAL/MOL
REMARK 924 INTRA-LIGAND FREE ENERGY PREDICTED BY IDOCK:   -1.35 KCAL/MOL
REMARK 927      BINDING AFFINITY PREDICTED BY RF-SCORE:    0.00 PKD
ROOT
HETATM    1  C   UNL     1     -10.802   5.001  71.266  1.00  0.00     0.011 C  
HETATM    2  C   UNL     1      -9.876   4.885  70.051  1.00  0.00    -0.233 C  
HETATM    3  N   UNL     1     -10.321   5.663  68.851  1.00  0.00    -0.211 N  
HETATM    4  C   UNL     1      -9.875   3.383  69.645  1.00  0.00     0.128 C  
HETATM    5  C   UNL     1      -8.435   5.222  70.463  1.00  0.00    -0.120 C  
HETATM    6  C   UNL     1     -10.520   6.962  68.467  1.00  0.00    -0.203 C  
HETATM    7  H   UNL     1     -10.545   5.029  68.083  1.00  0.00     0.000 HD 
HETATM    8  O   UNL     1     -10.614   7.132  67.242  1.00  0.00    -0.261 OA 
ENDROOT
BRANCH   6   9
HETATM    9  C   UNL     1     -10.699   8.158  69.418  1.00  0.00    -0.156 C  
HETATM   10  C   UNL     1     -11.534   9.399  68.908  1.00  0.00     0.410 C  
HETATM   11  N   UNL     1     -11.988  10.250  70.055  1.00  0.00    -0.230 NA 
HETATM   12  N   UNL     1      -9.434   8.586  70.083  1.00  0.00    -0.163 NA 
HETATM   13  C   UNL     1     -10.876  10.488  71.018  1.00  0.00     0.661 C  
HETATM   14  C   UNL     1      -9.929   9.289  71.302  1.00  0.00    -0.271 C  
BRANCH  11  15
HETATM   15  C   UNL     1     -12.519  11.572  69.648  1.00  0.00    -0.025 C  
BRANCH  15  16
HETATM   16  C   UNL     1     -12.649  12.635  70.710  1.00  0.00    -0.302 A  
HETATM   17  C   UNL     1     -13.337  12.370  71.892  1.00  0.00    -0.349 A  
HETATM   18  N   UNL     1     -13.635  13.296  72.836  1.00  0.00    -0.520 NA 
HETATM   19  C   UNL     1     -12.534  14.934  71.453  1.00  0.00    -0.403 A  
HETATM   20  C   UNL     1     -13.228  14.558  72.591  1.00  0.00    -0.481 A  
HETATM   21  C   UNL     1     -12.244  13.955  70.500  1.00  0.00    -0.443 A  
ENDBRANCH  15  16
ENDBRANCH  11  15
BRANCH  12  22
HETATM   22  C   UNL     1      -8.500   9.501  69.329  1.00  0.00    -0.139 C  
BRANCH  22  23
HETATM   23  C   UNL     1      -7.676   8.959  68.124  1.00  0.00    -0.100 C  
HETATM   24  O   UNL     1      -7.488   7.545  68.298  1.00  0.00    -0.102 OA 
HETATM   25  H   UNL     1      -6.985   7.213  67.563  1.00  0.00     0.000 HD 
BRANCH  23  26
HETATM   26  C   UNL     1      -8.337   9.020  66.716  1.00  0.00    -0.115 C  
HETATM   27  C   UNL     1      -8.236  10.290  65.833  1.00  0.00    -0.148 C  
HETATM   28  C   UNL     1      -8.597   9.923  64.352  1.00  0.00    -0.197 C  
HETATM   29  C   UNL     1      -9.202  11.382  66.340  1.00  0.00    -0.197 C  
HETATM   30  O   UNL     1     -10.217  11.119  66.979  1.00  0.00    -0.201 OA 
HETATM   31  N   UNL     1      -8.860  12.688  66.041  1.00  0.00    -0.390 N  
HETATM   32  H   UNL     1      -8.133  12.868  65.348  1.00  0.00     0.000 HD 
BRANCH  28  33
HETATM   33  C   UNL     1      -7.671   8.942  63.632  1.00  0.00    -0.129 A  
HETATM   34  C   UNL     1      -8.085   7.637  63.333  1.00  0.00    -0.044 A  
HETATM   35  C   UNL     1      -6.361   9.311  63.291  1.00  0.00    -0.091 A  
HETATM   36  C   UNL     1      -5.492   8.406  62.650  1.00  0.00    -0.070 A  
HETATM   37  C   UNL     1      -7.217   6.733  62.693  1.00  0.00    -0.054 A  
HETATM   38  C   UNL     1      -5.922   7.120  62.349  1.00  0.00    -0.049 A  
ENDBRANCH  28  33
BRANCH  31  39
HETATM   39  C   UNL     1      -9.526  13.827  66.706  1.00  0.00    -0.275 C  
HETATM   40  C   UNL     1     -10.383  15.854  65.468  1.00  0.00    -0.425 C  
HETATM   41  C   UNL     1      -9.073  16.115  66.125  1.00  0.00    -0.382 A  
HETATM   42  H   UNL     1     -11.857  14.032  64.296  1.00  0.00     0.000 HD 
HETATM   43  C   UNL     1     -10.744  14.423  65.923  1.00  0.00    -0.306 C  
HETATM   44  O   UNL     1     -11.118  13.670  64.771  1.00  0.00    -0.336 OA 
HETATM   45  C   UNL     1      -8.362  17.316  66.102  1.00  0.00    -0.238 A  
HETATM   46  C   UNL     1      -7.173  17.398  66.827  1.00  0.00    -0.254 A  
HETATM   47  C   UNL     1      -6.720  16.302  67.567  1.00  0.00    -0.189 A  
HETATM   48  C   UNL     1      -7.427  15.096  67.570  1.00  0.00    -0.223 A  
HETATM   49  C   UNL     1      -8.607  15.011  66.827  1.00  0.00    -0.279 A  
ENDBRANCH  31  39
ENDBRANCH  23  26
ENDBRANCH  22  23
ENDBRANCH  12  22
ENDBRANCH   6   9
TORSDOF 8
ENDMDL
MODEL       85
REMARK 921   NORMALIZED FREE ENERGY PREDICTED BY IDOCK:   -5.09 KCAL/MOL
REMARK 922        TOTAL FREE ENERGY PREDICTED BY IDOCK:   -9.44 KCAL/MOL
REMARK 923 INTER-LIGAND FREE ENERGY PREDICTED BY IDOCK:   -9.07 KCAL/MOL
REMARK 924 INTRA-LIGAND FREE ENERGY PREDICTED BY IDOCK:   -0.37 KCAL/MOL
REMARK 927      BINDING AFFINITY PREDICTED BY RF-SCORE:    0.00 PKD
ROOT
HETATM    1  C   UNL     1     -12.185   5.135  72.905  1.00  0.00     0.164 C  
HETATM    2  C   UNL     1     -10.863   4.401  73.151  1.00  0.00    -0.240 C  
HETATM    3  N   UNL     1      -9.933   4.378  71.977  1.00  0.00    -0.179 N  
HETATM    4  C   UNL     1     -11.237   2.923  73.463  1.00  0.00    -0.301 C  
HETATM    5  C   UNL     1     -10.191   4.953  74.417  1.00  0.00    -0.301 C  
HETATM    6  C   UNL     1      -9.207   5.247  71.207  1.00  0.00    -0.146 C  
HETATM    7  H   UNL     1      -9.800   3.421  71.651  1.00  0.00     0.000 HD 
HETATM    8  O   UNL     1      -8.328   4.714  70.513  1.00  0.00    -0.086 OA 
ENDROOT
BRANCH   6   9
HETATM    9  C   UNL     1      -9.449   6.763  71.100  1.00  0.00    -0.163 C  
HETATM   10  C   UNL     1     -10.940   7.274  70.992  1.00  0.00    -0.251 C  
HETATM   11  N   UNL     1     -11.037   8.728  71.340  1.00  0.00    -0.267 NA 
HETATM   12  N   UNL     1      -8.565   7.439  70.108  1.00  0.00    -0.138 NA 
HETATM   13  C   UNL     1      -9.965   9.513  70.665  1.00  0.00    -0.276 C  
HETATM   14  C   UNL     1      -8.561   8.852  70.585  1.00  0.00    -0.194 C  
BRANCH  11  15
HETATM   15  C   UNL     1     -12.337   9.346  70.983  1.00  0.00    -0.258 C  
BRANCH  15  16
HETATM   16  C   UNL     1     -12.438  10.850  71.036  1.00  0.00    -0.514 A  
HETATM   17  C   UNL     1     -13.130  11.474  72.071  1.00  0.00    -0.324 A  
HETATM   18  N   UNL     1     -13.402  12.801  72.128  1.00  0.00    -0.528 NA 
HETATM   19  C   UNL     1     -12.264  13.036  70.017  1.00  0.00    -0.306 A  
HETATM   20  C   UNL     1     -12.965  13.550  71.096  1.00  0.00    -0.262 A  
HETATM   21  C   UNL     1     -12.001  11.665  69.989  1.00  0.00    -0.429 A  
ENDBRANCH  15  16
ENDBRANCH  11  15
BRANCH  12  22
HETATM   22  C   UNL     1      -8.966   7.411  68.652  1.00  0.00    -0.131 C  
BRANCH  22  23
HETATM   23  C   UNL     1      -8.001   6.811  67.586  1.00  0.00    -0.113 C  
HETATM   24  O   UNL     1      -7.845   5.407  67.851  1.00  0.00    -0.091 OA 
HETATM   25  H   UNL     1      -7.256   5.041  67.200  1.00  0.00     0.000 HD 
BRANCH  23  26
HETATM   26  C   UNL     1      -8.482   6.803  66.106  1.00  0.00    -0.135 C  
HETATM   27  C   UNL     1      -8.002   7.877  65.097  1.00  0.00    -0.132 C  
HETATM   28  C   UNL     1      -8.284   7.380  63.636  1.00  0.00     0.074 C  
HETATM   29  C   UNL     1      -8.737   9.213  65.334  1.00  0.00    -0.186 C  
HETATM   30  O   UNL     1      -9.846   9.271  65.859  1.00  0.00    -0.281 OA 
HETATM   31  N   UNL     1      -8.074  10.357  64.927  1.00  0.00    -0.211 N  
HETATM   32  H   UNL     1      -7.258  10.272  64.320  1.00  0.00     0.000 HD 
BRANCH  28  33
HETATM   33  C   UNL     1      -7.540   6.128  63.171  1.00  0.00    -0.083 A  
HETATM   34  C   UNL     1      -8.232   4.989  62.741  1.00  0.00    -0.100 A  
HETATM   35  C   UNL     1      -6.138   6.072  63.205  1.00  0.00    -0.022 A  
HETATM   36  C   UNL     1      -5.444   4.915  62.802  1.00  0.00    -0.013 A  
HETATM   37  C   UNL     1      -7.540   3.832  62.337  1.00  0.00    -0.056 A  
HETATM   38  C   UNL     1      -6.146   3.798  62.366  1.00  0.00    -0.017 A  
ENDBRANCH  28  33
BRANCH  31  39
HETATM   39  C   UNL     1      -8.525  11.698  65.354  1.00  0.00     0.454 C  
HETATM   40  C   UNL     1     -10.078  12.086  67.307  1.00  0.00    -0.208 C  
HETATM   41  C   UNL     1     -10.794  12.157  66.003  1.00  0.00    -0.318 A  
HETATM   42  H   UNL     1      -8.108  10.941  68.600  1.00  0.00     0.000 HD 
HETATM   43  C   UNL     1      -8.599  11.902  66.904  1.00  0.00    -0.185 C  
HETATM   44  O   UNL     1      -8.063  10.817  67.659  1.00  0.00    -0.113 OA 
HETATM   45  C   UNL     1     -12.154  12.413  65.819  1.00  0.00    -0.381 A  
HETATM   46  C   UNL     1     -12.644  12.502  64.517  1.00  0.00    -0.503 A  
HETATM   47  C   UNL     1     -11.781  12.351  63.427  1.00  0.00    -0.554 A  
HETATM   48  C   UNL     1     -10.424  12.075  63.617  1.00  0.00    -0.494 A  
HETATM   49  C   UNL     1      -9.940  11.967  64.924  1.00  0.00    -0.269 A  
ENDBRANCH  31  39
ENDBRANCH  23  26
ENDBRANCH  22  23
ENDBRANCH  12  22
ENDBRANCH   6   9
TORSDOF 8
ENDMDL
MODEL       86
REMARK 921   NORMALIZED FREE ENERGY PREDICTED BY IDOCK:   -5.06 KCAL/MOL
REMARK 922        TOTAL FREE ENERGY PREDICTED BY IDOCK:   -9.40 KCAL/MOL
REMARK 923 INTER-LIGAND FREE ENERGY PREDICTED BY IDOCK:   -7.75 KCAL/MOL
REMARK 924 INTRA-LIGAND FREE ENERGY PREDICTED BY IDOCK:   -1.64 KCAL/MOL
REMARK 927      BINDING AFFINITY PREDICTED BY RF-SCORE:    0.00 PKD
ROOT
HETATM    1  C   UNL     1      -9.618  14.660  68.441  1.00  0.00    -0.217 C  
HETATM    2  C   UNL     1      -9.103  14.329  67.037  1.00  0.00    -0.233 C  
HETATM    3  N   UNL     1      -7.719  13.757  66.998  1.00  0.00    -0.351 N  
HETATM    4  C   UNL     1      -9.060  15.676  66.259  1.00  0.00    -0.376 C  
HETATM    5  C   UNL     1     -10.122  13.441  66.307  1.00  0.00    -0.299 C  
HETATM    6  C   UNL     1      -7.040  12.643  67.415  1.00  0.00    -0.138 C  
HETATM    7  H   UNL     1      -7.088  14.393  66.511  1.00  0.00     0.000 HD 
HETATM    8  O   UNL     1      -5.937  12.476  66.875  1.00  0.00    -0.278 OA 
ENDROOT
BRANCH   6   9
HETATM    9  C   UNL     1      -7.507  11.671  68.513  1.00  0.00    -0.113 C  
HETATM   10  C   UNL     1      -6.440  10.690  69.143  1.00  0.00    -0.056 C  
HETATM   11  N   UNL     1      -6.917  10.149  70.457  1.00  0.00    -0.299 NA 
HETATM   12  N   UNL     1      -8.775  10.960  68.180  1.00  0.00    -0.128 NA 
HETATM   13  C   UNL     1      -8.334   9.696  70.367  1.00  0.00    -0.151 C  
HETATM   14  C   UNL     1      -9.297  10.579  69.524  1.00  0.00    -0.064 C  
BRANCH  11  15
HETATM   15  C   UNL     1      -6.115   9.011  70.964  1.00  0.00    -0.054 C  
BRANCH  15  16
HETATM   16  C   UNL     1      -6.831   7.942  71.752  1.00  0.00    -0.062 A  
HETATM   17  C   UNL     1      -6.887   8.008  73.141  1.00  0.00    -0.096 A  
HETATM   18  N   UNL     1      -7.373   7.028  73.942  1.00  0.00    -0.090 NA 
HETATM   19  C   UNL     1      -7.825   5.746  71.953  1.00  0.00    -0.106 A  
HETATM   20  C   UNL     1      -7.828   5.918  73.327  1.00  0.00    -0.105 A  
HETATM   21  C   UNL     1      -7.315   6.775  71.157  1.00  0.00    -0.079 A  
ENDBRANCH  15  16
ENDBRANCH  11  15
BRANCH  12  22
HETATM   22  C   UNL     1      -8.701   9.727  67.312  1.00  0.00    -0.132 C  
BRANCH  22  23
HETATM   23  C   UNL     1     -10.003   9.096  66.736  1.00  0.00    -0.254 C  
HETATM   24  O   UNL     1      -9.695   8.487  65.471  1.00  0.00    -0.421 OA 
HETATM   25  H   UNL     1     -10.490   8.102  65.119  1.00  0.00     0.000 HD 
BRANCH  23  26
HETATM   26  C   UNL     1     -10.631   7.905  67.517  1.00  0.00    -0.312 C  
HETATM   27  C   UNL     1      -9.753   6.931  68.343  1.00  0.00    -0.137 C  
HETATM   28  C   UNL     1     -10.661   6.131  69.340  1.00  0.00    -0.385 C  
HETATM   29  C   UNL     1      -9.018   5.941  67.414  1.00  0.00    -0.108 C  
HETATM   30  O   UNL     1      -9.443   5.642  66.302  1.00  0.00    -0.154 OA 
HETATM   31  N   UNL     1      -7.838   5.408  67.900  1.00  0.00    -0.092 N  
HETATM   32  H   UNL     1      -7.612   5.512  68.889  1.00  0.00     0.000 HD 
BRANCH  28  33
HETATM   33  C   UNL     1     -11.380   6.935  70.425  1.00  0.00    -0.376 A  
HETATM   34  C   UNL     1     -12.778   6.949  70.514  1.00  0.00     0.115 A  
HETATM   35  C   UNL     1     -10.655   7.719  71.336  1.00  0.00    -0.242 A  
HETATM   36  C   UNL     1     -11.308   8.482  72.323  1.00  0.00    -0.441 A  
HETATM   37  C   UNL     1     -13.431   7.711  71.500  1.00  0.00    -0.394 A  
HETATM   38  C   UNL     1     -12.695   8.474  72.405  1.00  0.00    -0.394 A  
ENDBRANCH  28  33
BRANCH  31  39
HETATM   39  C   UNL     1      -6.899   4.689  67.014  1.00  0.00    -0.056 C  
HETATM   40  C   UNL     1      -6.731   5.112  64.530  1.00  0.00    -0.047 C  
HETATM   41  C   UNL     1      -7.527   3.891  64.834  1.00  0.00    -0.076 A  
HETATM   42  H   UNL     1      -6.092   7.509  65.376  1.00  0.00     0.000 HD 
HETATM   43  C   UNL     1      -6.226   5.576  65.913  1.00  0.00    -0.034 C  
HETATM   44  O   UNL     1      -6.501   6.970  66.044  1.00  0.00    -0.048 OA 
HETATM   45  C   UNL     1      -8.122   3.039  63.903  1.00  0.00    -0.082 A  
HETATM   46  C   UNL     1      -8.783   1.903  64.369  1.00  0.00    -0.097 A  
HETATM   47  C   UNL     1      -8.829   1.625  65.738  1.00  0.00    -0.124 A  
HETATM   48  C   UNL     1      -8.248   2.492  66.667  1.00  0.00    -0.086 A  
HETATM   49  C   UNL     1      -7.603   3.640  66.199  1.00  0.00    -0.081 A  
ENDBRANCH  31  39
ENDBRANCH  23  26
ENDBRANCH  22  23
ENDBRANCH  12  22
ENDBRANCH   6   9
TORSDOF 8
ENDMDL
MODEL       87
REMARK 921   NORMALIZED FREE ENERGY PREDICTED BY IDOCK:   -5.04 KCAL/MOL
REMARK 922        TOTAL FREE ENERGY PREDICTED BY IDOCK:   -9.36 KCAL/MOL
REMARK 923 INTER-LIGAND FREE ENERGY PREDICTED BY IDOCK:   -9.10 KCAL/MOL
REMARK 924 INTRA-LIGAND FREE ENERGY PREDICTED BY IDOCK:   -0.25 KCAL/MOL
REMARK 927      BINDING AFFINITY PREDICTED BY RF-SCORE:    0.00 PKD
ROOT
HETATM    1  C   UNL     1      -8.602   8.475  67.305  1.00  0.00    -0.123 C  
HETATM    2  C   UNL     1      -7.130   8.633  67.699  1.00  0.00    -0.080 C  
HETATM    3  N   UNL     1      -6.895   9.476  68.915  1.00  0.00    -0.054 N  
HETATM    4  C   UNL     1      -6.434   9.351  66.507  1.00  0.00    -0.067 C  
HETATM    5  C   UNL     1      -6.473   7.249  67.813  1.00  0.00    -0.052 C  
HETATM    6  C   UNL     1      -7.163   9.464  70.258  1.00  0.00    -0.104 C  
HETATM    7  H   UNL     1      -6.376  10.317  68.665  1.00  0.00     0.000 HD 
HETATM    8  O   UNL     1      -6.488  10.260  70.928  1.00  0.00    -0.309 OA 
ENDROOT
BRANCH   6   9
HETATM    9  C   UNL     1      -8.248   8.617  70.945  1.00  0.00    -0.143 C  
HETATM   10  C   UNL     1      -8.674   7.255  70.265  1.00  0.00    -0.147 C  
HETATM   11  N   UNL     1      -9.376   6.363  71.243  1.00  0.00    -0.156 NA 
HETATM   12  N   UNL     1      -9.436   9.407  71.378  1.00  0.00    -0.249 NA 
HETATM   13  C   UNL     1     -10.397   7.118  72.021  1.00  0.00    -0.191 C  
HETATM   14  C   UNL     1     -10.014   8.559  72.461  1.00  0.00    -0.252 C  
BRANCH  11  15
HETATM   15  C   UNL     1     -10.057   5.205  70.616  1.00  0.00    -0.239 C  
BRANCH  15  16
HETATM   16  C   UNL     1     -10.210   5.208  69.115  1.00  0.00    -0.259 A  
HETATM   17  C   UNL     1      -9.349   4.459  68.317  1.00  0.00    -0.147 A  
HETATM   18  N   UNL     1      -9.310   4.512  66.963  1.00  0.00    -0.135 NA 
HETATM   19  C   UNL     1     -11.078   6.146  67.061  1.00  0.00    -0.332 A  
HETATM   20  C   UNL     1     -10.175   5.358  66.367  1.00  0.00    -0.226 A  
HETATM   21  C   UNL     1     -11.091   6.069  68.456  1.00  0.00    -0.279 A  
ENDBRANCH  15  16
ENDBRANCH  11  15
BRANCH  12  22
HETATM   22  C   UNL     1     -10.510   9.707  70.360  1.00  0.00    -0.293 C  
BRANCH  22  23
HETATM   23  C   UNL     1     -10.235  10.717  69.207  1.00  0.00    -0.194 C  
HETATM   24  O   UNL     1     -11.333  10.664  68.281  1.00  0.00    -0.286 OA 
HETATM   25  H   UNL     1     -11.165  11.280  67.577  1.00  0.00     0.000 HD 
BRANCH  23  26
HETATM   26  C   UNL     1     -10.201  12.230  69.571  1.00  0.00     0.714 C  
HETATM   27  C   UNL     1     -11.036  13.269  68.780  1.00  0.00    -0.294 C  
HETATM   28  C   UNL     1     -11.145  14.592  69.615  1.00  0.00    -0.264 C  
HETATM   29  C   UNL     1     -10.373  13.575  67.420  1.00  0.00    -0.237 C  
HETATM   30  O   UNL     1      -9.169  13.432  67.226  1.00  0.00    -0.204 OA 
HETATM   31  N   UNL     1     -11.216  14.018  66.416  1.00  0.00    -0.313 N  
HETATM   32  H   UNL     1     -12.162  14.317  66.653  1.00  0.00     0.000 HD 
BRANCH  28  33
HETATM   33  C   UNL     1     -11.888  14.513  70.949  1.00  0.00    -0.362 A  
HETATM   34  C   UNL     1     -11.541  15.341  72.025  1.00  0.00    -0.529 A  
HETATM   35  C   UNL     1     -12.912  13.573  71.146  1.00  0.00    -0.338 A  
HETATM   36  C   UNL     1     -13.585  13.476  72.379  1.00  0.00    -0.709 A  
HETATM   37  C   UNL     1     -12.214  15.245  73.257  1.00  0.00    -0.575 A  
HETATM   38  C   UNL     1     -13.237  14.314  73.432  1.00  0.00     0.128 A  
ENDBRANCH  28  33
BRANCH  31  39
HETATM   39  C   UNL     1     -10.771  14.065  65.007  1.00  0.00    -0.396 C  
HETATM   40  C   UNL     1     -12.154  13.197  63.082  1.00  0.00    -0.282 C  
HETATM   41  C   UNL     1     -11.093  12.233  63.484  1.00  0.00    -0.533 A  
HETATM   42  H   UNL     1     -13.807  15.036  63.950  1.00  0.00     0.000 HD 
HETATM   43  C   UNL     1     -11.892  14.428  63.976  1.00  0.00    -0.194 C  
HETATM   44  O   UNL     1     -13.127  14.816  64.575  1.00  0.00    -0.298 OA 
HETATM   45  C   UNL     1     -10.839  10.992  62.899  1.00  0.00     0.428 A  
HETATM   46  C   UNL     1      -9.760  10.244  63.369  1.00  0.00    -0.243 A  
HETATM   47  C   UNL     1      -8.949  10.742  64.392  1.00  0.00    -0.176 A  
HETATM   48  C   UNL     1      -9.220  11.977  64.988  1.00  0.00     0.258 A  
HETATM   49  C   UNL     1     -10.314  12.716  64.528  1.00  0.00    -0.369 A  
ENDBRANCH  31  39
ENDBRANCH  23  26
ENDBRANCH  22  23
ENDBRANCH  12  22
ENDBRANCH   6   9
TORSDOF 8
ENDMDL
MODEL       88
REMARK 921   NORMALIZED FREE ENERGY PREDICTED BY IDOCK:   -5.02 KCAL/MOL
REMARK 922        TOTAL FREE ENERGY PREDICTED BY IDOCK:   -9.33 KCAL/MOL
REMARK 923 INTER-LIGAND FREE ENERGY PREDICTED BY IDOCK:   -8.58 KCAL/MOL
REMARK 924 INTRA-LIGAND FREE ENERGY PREDICTED BY IDOCK:   -0.75 KCAL/MOL
REMARK 927      BINDING AFFINITY PREDICTED BY RF-SCORE:    0.00 PKD
ROOT
HETATM    1  C   UNL     1      -9.641   7.850  71.144  1.00  0.00    -0.181 C  
HETATM    2  C   UNL     1     -11.039   8.187  71.673  1.00  0.00    -0.255 C  
HETATM    3  N   UNL     1     -11.414   9.633  71.570  1.00  0.00    -0.385 N  
HETATM    4  C   UNL     1     -11.031   7.826  73.186  1.00  0.00    -0.372 C  
HETATM    5  C   UNL     1     -12.078   7.267  71.015  1.00  0.00    -0.361 C  
HETATM    6  C   UNL     1     -11.642  10.584  70.612  1.00  0.00    -0.352 C  
HETATM    7  H   UNL     1     -11.537  10.033  72.500  1.00  0.00     0.000 HD 
HETATM    8  O   UNL     1     -12.235  11.596  71.017  1.00  0.00    -0.335 OA 
ENDROOT
BRANCH   6   9
HETATM    9  C   UNL     1     -11.169  10.511  69.150  1.00  0.00    -0.256 C  
HETATM   10  C   UNL     1      -9.791   9.800  68.846  1.00  0.00    -0.173 C  
HETATM   11  N   UNL     1      -9.688   9.420  67.401  1.00  0.00    -0.152 NA 
HETATM   12  N   UNL     1     -11.290  11.805  68.418  1.00  0.00    -0.245 NA 
HETATM   13  C   UNL     1     -10.119  10.541  66.519  1.00  0.00    -0.225 C  
HETATM   14  C   UNL     1     -11.347  11.369  66.993  1.00  0.00    -0.236 C  
BRANCH  11  15
HETATM   15  C   UNL     1      -8.324   9.018  66.981  1.00  0.00    -0.116 C  
BRANCH  15  16
HETATM   16  C   UNL     1      -7.968   9.159  65.522  1.00  0.00    -0.104 A  
HETATM   17  C   UNL     1      -8.458   8.252  64.586  1.00  0.00    -0.051 A  
HETATM   18  N   UNL     1      -8.080   8.206  63.285  1.00  0.00    -0.148 NA 
HETATM   19  C   UNL     1      -6.609  10.060  63.735  1.00  0.00    -0.130 A  
HETATM   20  C   UNL     1      -7.160   9.110  62.892  1.00  0.00    -0.091 A  
HETATM   21  C   UNL     1      -7.020  10.080  65.070  1.00  0.00    -0.135 A  
ENDBRANCH  15  16
ENDBRANCH  11  15
BRANCH  12  22
HETATM   22  C   UNL     1     -10.190  12.827  68.578  1.00  0.00    -0.200 C  
BRANCH  22  23
HETATM   23  C   UNL     1      -9.395  13.323  67.335  1.00  0.00    -0.217 C  
HETATM   24  O   UNL     1      -9.578  14.743  67.211  1.00  0.00    -0.216 OA 
HETATM   25  H   UNL     1      -9.093  15.046  66.452  1.00  0.00     0.000 HD 
BRANCH  23  26
HETATM   26  C   UNL     1      -7.843  13.207  67.381  1.00  0.00    -0.169 C  
HETATM   27  C   UNL     1      -6.988  14.175  68.238  1.00  0.00    -0.106 C  
HETATM   28  C   UNL     1      -5.556  13.567  68.435  1.00  0.00    -0.094 C  
HETATM   29  C   UNL     1      -6.870  15.550  67.547  1.00  0.00    -0.195 C  
HETATM   30  O   UNL     1      -6.980  15.690  66.333  1.00  0.00     0.205 OA 
HETATM   31  N   UNL     1      -6.636  16.632  68.377  1.00  0.00    -0.137 N  
HETATM   32  H   UNL     1      -6.351  16.470  69.343  1.00  0.00     0.000 HD 
BRANCH  28  33
HETATM   33  C   UNL     1      -5.458  12.255  69.215  1.00  0.00    -0.071 A  
HETATM   34  C   UNL     1      -5.425  11.019  68.558  1.00  0.00    -0.043 A  
HETATM   35  C   UNL     1      -5.443  12.255  70.619  1.00  0.00    -0.164 A  
HETATM   36  C   UNL     1      -5.378  11.051  71.347  1.00  0.00     0.013 A  
HETATM   37  C   UNL     1      -5.359   9.816  69.285  1.00  0.00    -0.035 A  
HETATM   38  C   UNL     1      -5.333   9.834  70.679  1.00  0.00    -0.048 A  
ENDBRANCH  28  33
BRANCH  31  39
HETATM   39  C   UNL     1      -6.792  18.019  67.890  1.00  0.00    -0.199 C  
HETATM   40  C   UNL     1      -7.371  19.964  69.393  1.00  0.00    -0.143 C  
HETATM   41  C   UNL     1      -8.558  19.467  68.643  1.00  0.00    -0.394 A  
HETATM   42  H   UNL     1      -5.110  19.264  70.517  1.00  0.00     0.000 HD 
HETATM   43  C   UNL     1      -6.205  19.118  68.838  1.00  0.00    -0.250 C  
HETATM   44  O   UNL     1      -5.467  18.597  69.942  1.00  0.00    -0.206 OA 
HETATM   45  C   UNL     1      -9.854  19.979  68.714  1.00  0.00    -0.335 A  
HETATM   46  C   UNL     1     -10.834  19.424  67.892  1.00  0.00    -0.319 A  
HETATM   47  C   UNL     1     -10.512  18.388  67.011  1.00  0.00    -0.429 A  
HETATM   48  C   UNL     1      -9.216  17.866  66.958  1.00  0.00    -0.260 A  
HETATM   49  C   UNL     1      -8.241  18.411  67.798  1.00  0.00    -0.265 A  
ENDBRANCH  31  39
ENDBRANCH  23  26
ENDBRANCH  22  23
ENDBRANCH  12  22
ENDBRANCH   6   9
TORSDOF 8
ENDMDL
MODEL       89
REMARK 921   NORMALIZED FREE ENERGY PREDICTED BY IDOCK:   -5.01 KCAL/MOL
REMARK 922        TOTAL FREE ENERGY PREDICTED BY IDOCK:   -9.32 KCAL/MOL
REMARK 923 INTER-LIGAND FREE ENERGY PREDICTED BY IDOCK:   -8.74 KCAL/MOL
REMARK 924 INTRA-LIGAND FREE ENERGY PREDICTED BY IDOCK:   -0.58 KCAL/MOL
REMARK 927      BINDING AFFINITY PREDICTED BY RF-SCORE:    0.00 PKD
ROOT
HETATM    1  C   UNL     1     -13.688  15.272  70.405  1.00  0.00     0.258 C  
HETATM    2  C   UNL     1     -12.828  14.689  71.531  1.00  0.00    -0.333 C  
HETATM    3  N   UNL     1     -12.779  13.193  71.570  1.00  0.00    -0.313 N  
HETATM    4  C   UNL     1     -13.480  15.158  72.864  1.00  0.00    -0.589 C  
HETATM    5  C   UNL     1     -11.427  15.318  71.492  1.00  0.00    -0.457 C  
HETATM    6  C   UNL     1     -12.336  12.145  70.808  1.00  0.00    -0.297 C  
HETATM    7  H   UNL     1     -13.209  12.848  72.429  1.00  0.00     0.000 HD 
HETATM    8  O   UNL     1     -12.250  11.065  71.412  1.00  0.00    -0.295 OA 
ENDROOT
BRANCH   6   9
HETATM    9  C   UNL     1     -12.021  12.205  69.303  1.00  0.00    -0.262 C  
HETATM   10  C   UNL     1     -11.369  10.935  68.627  1.00  0.00    -0.295 C  
HETATM   11  N   UNL     1     -11.536  10.973  67.138  1.00  0.00    -0.442 NA 
HETATM   12  N   UNL     1     -11.333  13.461  68.887  1.00  0.00    -0.270 NA 
HETATM   13  C   UNL     1     -11.199  12.319  66.595  1.00  0.00    -0.316 C  
HETATM   14  C   UNL     1     -11.659  13.545  67.434  1.00  0.00    -0.356 C  
BRANCH  11  15
HETATM   15  C   UNL     1     -10.706   9.979  66.415  1.00  0.00     0.007 C  
BRANCH  15  16
HETATM   16  C   UNL     1      -9.486   9.438  67.118  1.00  0.00    -0.185 A  
HETATM   17  C   UNL     1      -9.567   8.270  67.872  1.00  0.00    -0.152 A  
HETATM   18  N   UNL     1      -8.571   7.788  68.656  1.00  0.00    -0.129 NA 
HETATM   19  C   UNL     1      -7.241   9.680  67.984  1.00  0.00    -0.081 A  
HETATM   20  C   UNL     1      -7.432   8.508  68.695  1.00  0.00    -0.093 A  
HETATM   21  C   UNL     1      -8.286  10.151  67.186  1.00  0.00    -0.125 A  
ENDBRANCH  15  16
ENDBRANCH  11  15
BRANCH  12  22
HETATM   22  C   UNL     1      -9.836  13.553  69.063  1.00  0.00     0.182 C  
BRANCH  22  23
HETATM   23  C   UNL     1      -8.911  13.730  67.822  1.00  0.00    -0.194 C  
HETATM   24  O   UNL     1      -9.171  15.017  67.239  1.00  0.00    -0.190 OA 
HETATM   25  H   UNL     1      -8.607  15.125  66.481  1.00  0.00     0.000 HD 
BRANCH  23  26
HETATM   26  C   UNL     1      -7.377  13.800  68.075  1.00  0.00    -0.134 C  
HETATM   27  C   UNL     1      -6.711  15.079  68.641  1.00  0.00    -0.093 C  
HETATM   28  C   UNL     1      -5.284  14.724  69.187  1.00  0.00    -0.086 C  
HETATM   29  C   UNL     1      -6.585  16.157  67.543  1.00  0.00    -0.171 C  
HETATM   30  O   UNL     1      -6.535  15.878  66.348  1.00  0.00     0.157 OA 
HETATM   31  N   UNL     1      -6.537  17.469  67.978  1.00  0.00    -0.169 N  
HETATM   32  H   UNL     1      -6.378  17.663  68.966  1.00  0.00     0.000 HD 
BRANCH  28  33
HETATM   33  C   UNL     1      -5.213  13.759  70.371  1.00  0.00    -0.106 A  
HETATM   34  C   UNL     1      -5.226  12.371  70.180  1.00  0.00    -0.101 A  
HETATM   35  C   UNL     1      -5.176  14.241  71.689  1.00  0.00    -0.178 A  
HETATM   36  C   UNL     1      -5.135  13.360  72.787  1.00  0.00    -0.068 A  
HETATM   37  C   UNL     1      -5.185  11.490  71.276  1.00  0.00    -0.060 A  
HETATM   38  C   UNL     1      -5.136  11.986  72.579  1.00  0.00     0.328 A  
ENDBRANCH  28  33
BRANCH  31  39
HETATM   39  C   UNL     1      -6.711  18.595  67.036  1.00  0.00    -0.193 C  
HETATM   40  C   UNL     1      -7.239  20.953  67.769  1.00  0.00    -0.245 C  
HETATM   41  C   UNL     1      -8.451  20.236  67.284  1.00  0.00    -0.415 A  
HETATM   42  H   UNL     1      -4.940  20.671  68.995  1.00  0.00     0.000 HD 
HETATM   43  C   UNL     1      -6.092  19.952  67.513  1.00  0.00    -0.189 C  
HETATM   44  O   UNL     1      -5.316  19.848  68.705  1.00  0.00    -0.196 OA 
HETATM   45  C   UNL     1      -9.744  20.755  67.211  1.00  0.00    -0.487 A  
HETATM   46  C   UNL     1     -10.752  19.956  66.672  1.00  0.00    -0.451 A  
HETATM   47  C   UNL     1     -10.459  18.671  66.205  1.00  0.00    -0.468 A  
HETATM   48  C   UNL     1      -9.166  18.149  66.299  1.00  0.00    -0.213 A  
HETATM   49  C   UNL     1      -8.162  18.946  66.858  1.00  0.00    -0.276 A  
ENDBRANCH  31  39
ENDBRANCH  23  26
ENDBRANCH  22  23
ENDBRANCH  12  22
ENDBRANCH   6   9
TORSDOF 8
ENDMDL
MODEL       90
REMARK 921   NORMALIZED FREE ENERGY PREDICTED BY IDOCK:   -5.00 KCAL/MOL
REMARK 922        TOTAL FREE ENERGY PREDICTED BY IDOCK:   -9.31 KCAL/MOL
REMARK 923 INTER-LIGAND FREE ENERGY PREDICTED BY IDOCK:   -8.85 KCAL/MOL
REMARK 924 INTRA-LIGAND FREE ENERGY PREDICTED BY IDOCK:   -0.46 KCAL/MOL
REMARK 927      BINDING AFFINITY PREDICTED BY RF-SCORE:    0.00 PKD
ROOT
HETATM    1  C   UNL     1     -10.032   7.739  66.785  1.00  0.00    -0.331 C  
HETATM    2  C   UNL     1      -9.133   6.502  66.689  1.00  0.00    -0.147 C  
HETATM    3  N   UNL     1      -7.679   6.799  66.490  1.00  0.00    -0.100 N  
HETATM    4  C   UNL     1      -9.611   5.712  65.436  1.00  0.00     0.245 C  
HETATM    5  C   UNL     1      -9.382   5.586  67.898  1.00  0.00    -0.117 C  
HETATM    6  C   UNL     1      -6.639   7.395  67.151  1.00  0.00    -0.061 C  
HETATM    7  H   UNL     1      -7.368   6.449  65.584  1.00  0.00     0.000 HD 
HETATM    8  O   UNL     1      -5.516   7.128  66.697  1.00  0.00    -0.021 OA 
ENDROOT
BRANCH   6   9
HETATM    9  C   UNL     1      -6.773   8.387  68.319  1.00  0.00    -0.065 C  
HETATM   10  C   UNL     1      -8.066   8.304  69.223  1.00  0.00    -0.116 C  
HETATM   11  N   UNL     1      -7.852   8.995  70.535  1.00  0.00    -0.113 NA 
HETATM   12  N   UNL     1      -6.456   9.796  67.946  1.00  0.00    -0.060 NA 
HETATM   13  C   UNL     1      -7.204  10.323  70.341  1.00  0.00     0.035 C  
HETATM   14  C   UNL     1      -6.092  10.406  69.257  1.00  0.00    -0.038 C  
BRANCH  11  15
HETATM   15  C   UNL     1      -9.096   9.213  71.310  1.00  0.00    -0.162 C  
BRANCH  15  16
HETATM   16  C   UNL     1      -9.601   8.076  72.163  1.00  0.00    -0.277 A  
HETATM   17  C   UNL     1     -10.844   7.502  71.909  1.00  0.00    -0.227 A  
HETATM   18  N   UNL     1     -11.447   6.584  72.704  1.00  0.00    -0.226 NA 
HETATM   19  C   UNL     1      -9.535   6.718  74.163  1.00  0.00    -0.268 A  
HETATM   20  C   UNL     1     -10.778   6.216  73.815  1.00  0.00    -0.167 A  
HETATM   21  C   UNL     1      -8.942   7.664  73.324  1.00  0.00    -0.259 A  
ENDBRANCH  15  16
ENDBRANCH  11  15
BRANCH  12  22
HETATM   22  C   UNL     1      -7.536  10.628  67.297  1.00  0.00    -0.099 C  
BRANCH  22  23
HETATM   23  C   UNL     1      -7.759  12.104  67.739  1.00  0.00    -0.139 C  
HETATM   24  O   UNL     1      -6.913  12.952  66.944  1.00  0.00    -0.377 OA 
HETATM   25  H   UNL     1      -7.049  13.853  67.214  1.00  0.00     0.000 HD 
BRANCH  23  26
HETATM   26  C   UNL     1      -9.162  12.727  67.483  1.00  0.00    -0.191 C  
HETATM   27  C   UNL     1      -9.318  14.111  66.803  1.00  0.00    -0.295 C  
HETATM   28  C   UNL     1     -10.792  14.276  66.293  1.00  0.00    -0.310 C  
HETATM   29  C   UNL     1      -8.991  15.244  67.799  1.00  0.00    -0.177 C  
HETATM   30  O   UNL     1      -9.100  15.106  69.014  1.00  0.00    -0.197 OA 
HETATM   31  N   UNL     1      -8.558  16.436  67.247  1.00  0.00    -0.176 N  
HETATM   32  H   UNL     1      -8.666  16.592  66.245  1.00  0.00     0.000 HD 
BRANCH  28  33
HETATM   33  C   UNL     1     -11.262  13.314  65.202  1.00  0.00    -0.322 A  
HETATM   34  C   UNL     1     -12.623  13.147  64.916  1.00  0.00    -0.468 A  
HETATM   35  C   UNL     1     -10.339  12.536  64.484  1.00  0.00    -0.362 A  
HETATM   36  C   UNL     1     -10.764  11.628  63.495  1.00  0.00    -0.495 A  
HETATM   37  C   UNL     1     -13.049  12.241  63.927  1.00  0.00    -0.177 A  
HETATM   38  C   UNL     1     -12.118  11.485  63.215  1.00  0.00    -0.075 A  
ENDBRANCH  28  33
BRANCH  31  39
HETATM   39  C   UNL     1      -7.940  17.488  68.083  1.00  0.00    -0.250 C  
HETATM   40  C   UNL     1      -8.847  19.838  68.256  1.00  0.00    -0.329 C  
HETATM   41  C   UNL     1      -7.683  19.757  67.331  1.00  0.00    -0.307 A  
HETATM   42  H   UNL     1     -10.933  18.548  69.181  1.00  0.00     0.000 HD 
HETATM   43  C   UNL     1      -8.957  18.411  68.834  1.00  0.00    -0.146 C  
HETATM   44  O   UNL     1     -10.315  17.988  68.724  1.00  0.00    -0.368 OA 
HETATM   45  C   UNL     1      -7.112  20.818  66.626  1.00  0.00    -0.279 A  
HETATM   46  C   UNL     1      -5.983  20.567  65.847  1.00  0.00    -0.240 A  
HETATM   47  C   UNL     1      -5.435  19.282  65.792  1.00  0.00    -0.180 A  
HETATM   48  C   UNL     1      -6.022  18.220  66.485  1.00  0.00    -0.193 A  
HETATM   49  C   UNL     1      -7.166  18.470  67.249  1.00  0.00    -0.215 A  
ENDBRANCH  31  39
ENDBRANCH  23  26
ENDBRANCH  22  23
ENDBRANCH  12  22
ENDBRANCH   6   9
TORSDOF 8
ENDMDL
MODEL       91
REMARK 921   NORMALIZED FREE ENERGY PREDICTED BY IDOCK:   -4.92 KCAL/MOL
REMARK 922        TOTAL FREE ENERGY PREDICTED BY IDOCK:   -9.18 KCAL/MOL
REMARK 923 INTER-LIGAND FREE ENERGY PREDICTED BY IDOCK:   -9.02 KCAL/MOL
REMARK 924 INTRA-LIGAND FREE ENERGY PREDICTED BY IDOCK:   -0.17 KCAL/MOL
REMARK 927      BINDING AFFINITY PREDICTED BY RF-SCORE:    0.00 PKD
ROOT
HETATM    1  C   UNL     1      -9.166   8.940  65.843  1.00  0.00    -0.290 C  
HETATM    2  C   UNL     1      -8.523   9.980  64.920  1.00  0.00    -0.166 C  
HETATM    3  N   UNL     1      -8.545  11.382  65.447  1.00  0.00    -0.388 N  
HETATM    4  C   UNL     1      -9.360   9.975  63.608  1.00  0.00    -0.301 C  
HETATM    5  C   UNL     1      -7.108   9.525  64.532  1.00  0.00    -0.107 C  
HETATM    6  C   UNL     1      -8.030  12.112  66.485  1.00  0.00     0.152 C  
HETATM    7  H   UNL     1      -9.120  11.975  64.849  1.00  0.00     0.000 HD 
HETATM    8  O   UNL     1      -8.088  13.342  66.332  1.00  0.00     0.470 OA 
ENDROOT
BRANCH   6   9
HETATM    9  C   UNL     1      -7.476  11.532  67.798  1.00  0.00    -0.101 C  
HETATM   10  C   UNL     1      -8.482  10.796  68.770  1.00  0.00    -0.148 C  
HETATM   11  N   UNL     1      -7.748   9.925  69.744  1.00  0.00    -0.138 NA 
HETATM   12  N   UNL     1      -6.588  12.473  68.539  1.00  0.00    -0.071 NA 
HETATM   13  C   UNL     1      -6.584  10.643  70.335  1.00  0.00    -0.070 C  
HETATM   14  C   UNL     1      -5.765  11.554  69.376  1.00  0.00    -0.060 C  
BRANCH  11  15
HETATM   15  C   UNL     1      -8.587   9.436  70.863  1.00  0.00    -0.073 C  
BRANCH  15  16
HETATM   16  C   UNL     1      -9.514   8.277  70.593  1.00  0.00    -0.181 A  
HETATM   17  C   UNL     1      -9.205   7.342  69.607  1.00  0.00    -0.146 A  
HETATM   18  N   UNL     1     -10.037   6.357  69.190  1.00  0.00    -0.158 NA 
HETATM   19  C   UNL     1     -11.658   7.172  70.776  1.00  0.00    -0.358 A  
HETATM   20  C   UNL     1     -11.247   6.298  69.783  1.00  0.00    -0.430 A  
HETATM   21  C   UNL     1     -10.776   8.176  71.182  1.00  0.00    -0.258 A  
ENDBRANCH  15  16
ENDBRANCH  11  15
BRANCH  12  22
HETATM   22  C   UNL     1      -7.226  13.514  69.428  1.00  0.00     0.182 C  
BRANCH  22  23
HETATM   23  C   UNL     1      -6.602  14.936  69.540  1.00  0.00    -0.154 C  
HETATM   24  O   UNL     1      -5.196  14.843  69.257  1.00  0.00    -0.090 OA 
HETATM   25  H   UNL     1      -4.816  15.711  69.325  1.00  0.00     0.000 HD 
BRANCH  23  26
HETATM   26  C   UNL     1      -7.063  16.005  68.507  1.00  0.00    -0.132 C  
HETATM   27  C   UNL     1      -8.385  16.792  68.696  1.00  0.00    -0.252 C  
HETATM   28  C   UNL     1      -8.371  18.062  67.776  1.00  0.00    -0.249 C  
HETATM   29  C   UNL     1      -9.599  15.910  68.332  1.00  0.00    -0.208 C  
HETATM   30  O   UNL     1      -9.516  14.964  67.554  1.00  0.00    -0.197 OA 
HETATM   31  N   UNL     1     -10.797  16.238  68.940  1.00  0.00    -0.295 N  
HETATM   32  H   UNL     1     -10.886  17.135  69.418  1.00  0.00     0.000 HD 
BRANCH  28  33
HETATM   33  C   UNL     1      -7.308  19.121  68.068  1.00  0.00    -0.287 A  
HETATM   34  C   UNL     1      -6.932  19.432  69.381  1.00  0.00    -0.330 A  
HETATM   35  C   UNL     1      -6.709  19.843  67.024  1.00  0.00    -0.231 A  
HETATM   36  C   UNL     1      -5.746  20.838  67.284  1.00  0.00    -0.260 A  
HETATM   37  C   UNL     1      -5.970  20.426  69.641  1.00  0.00    -0.384 A  
HETATM   38  C   UNL     1      -5.376  21.125  68.592  1.00  0.00    -0.316 A  
ENDBRANCH  28  33
BRANCH  31  39
HETATM   39  C   UNL     1     -11.950  15.314  68.911  1.00  0.00    -0.264 C  
HETATM   40  C   UNL     1     -11.788  12.867  69.514  1.00  0.00    -0.383 C  
HETATM   41  C   UNL     1     -11.798  13.078  68.040  1.00  0.00    -0.391 A  
HETATM   42  H   UNL     1     -11.038  13.884  71.810  1.00  0.00     0.000 HD 
HETATM   43  C   UNL     1     -11.997  14.285  70.089  1.00  0.00    -0.326 C  
HETATM   44  O   UNL     1     -11.009  14.508  71.094  1.00  0.00     0.167 OA 
HETATM   45  C   UNL     1     -11.738  12.084  67.062  1.00  0.00    -0.341 A  
HETATM   46  C   UNL     1     -11.818  12.463  65.723  1.00  0.00    -0.467 A  
HETATM   47  C   UNL     1     -11.971  13.809  65.378  1.00  0.00    -0.395 A  
HETATM   48  C   UNL     1     -12.011  14.802  66.361  1.00  0.00    -0.179 A  
HETATM   49  C   UNL     1     -11.910  14.421  67.702  1.00  0.00    -0.412 A  
ENDBRANCH  31  39
ENDBRANCH  23  26
ENDBRANCH  22  23
ENDBRANCH  12  22
ENDBRANCH   6   9
TORSDOF 8
ENDMDL
MODEL       92
REMARK 921   NORMALIZED FREE ENERGY PREDICTED BY IDOCK:   -4.91 KCAL/MOL
REMARK 922        TOTAL FREE ENERGY PREDICTED BY IDOCK:   -9.17 KCAL/MOL
REMARK 923 INTER-LIGAND FREE ENERGY PREDICTED BY IDOCK:   -7.95 KCAL/MOL
REMARK 924 INTRA-LIGAND FREE ENERGY PREDICTED BY IDOCK:   -1.23 KCAL/MOL
REMARK 927      BINDING AFFINITY PREDICTED BY RF-SCORE:    0.00 PKD
ROOT
HETATM    1  C   UNL     1      -8.704  15.916  68.716  1.00  0.00    -0.213 C  
HETATM    2  C   UNL     1      -7.835  15.614  67.491  1.00  0.00    -0.161 C  
HETATM    3  N   UNL     1      -7.340  14.203  67.408  1.00  0.00    -0.276 N  
HETATM    4  C   UNL     1      -6.582  16.529  67.609  1.00  0.00    -0.171 C  
HETATM    5  C   UNL     1      -8.570  16.050  66.214  1.00  0.00    -0.363 C  
HETATM    6  C   UNL     1      -7.833  12.933  67.262  1.00  0.00    -0.131 C  
HETATM    7  H   UNL     1      -6.323  14.181  67.482  1.00  0.00     0.000 HD 
HETATM    8  O   UNL     1      -6.989  12.083  66.942  1.00  0.00    -0.122 OA 
ENDROOT
BRANCH   6   9
HETATM    9  C   UNL     1      -9.286  12.503  67.530  1.00  0.00    -0.188 C  
HETATM   10  C   UNL     1      -9.804  12.514  69.022  1.00  0.00     0.284 C  
HETATM   11  N   UNL     1     -11.302  12.511  69.072  1.00  0.00    -0.273 NA 
HETATM   12  N   UNL     1      -9.675  11.248  66.825  1.00  0.00    -0.191 NA 
HETATM   13  C   UNL     1     -11.867  11.504  68.130  1.00  0.00    -0.236 C  
HETATM   14  C   UNL     1     -11.160  11.362  66.753  1.00  0.00    -0.281 C  
BRANCH  11  15
HETATM   15  C   UNL     1     -11.858  12.229  70.416  1.00  0.00    -0.170 C  
BRANCH  15  16
HETATM   16  C   UNL     1     -12.096  10.787  70.790  1.00  0.00    -0.473 A  
HETATM   17  C   UNL     1     -13.377  10.342  71.108  1.00  0.00    -0.211 A  
HETATM   18  N   UNL     1     -13.668   9.112  71.596  1.00  0.00    -0.387 NA 
HETATM   19  C   UNL     1     -11.313   8.609  71.495  1.00  0.00    -0.358 A  
HETATM   20  C   UNL     1     -12.626   8.275  71.781  1.00  0.00    -0.333 A  
HETATM   21  C   UNL     1     -11.048   9.886  70.994  1.00  0.00    -0.401 A  
ENDBRANCH  15  16
ENDBRANCH  11  15
BRANCH  12  22
HETATM   22  C   UNL     1      -9.312   9.925  67.458  1.00  0.00    -0.140 C  
BRANCH  22  23
HETATM   23  C   UNL     1     -10.302   8.725  67.387  1.00  0.00    -0.280 C  
HETATM   24  O   UNL     1     -10.230   8.150  66.072  1.00  0.00    -0.401 OA 
HETATM   25  H   UNL     1     -10.834   7.418  66.028  1.00  0.00     0.000 HD 
BRANCH  23  26
HETATM   26  C   UNL     1     -10.003   7.493  68.289  1.00  0.00    -0.193 C  
HETATM   27  C   UNL     1      -8.626   6.782  68.252  1.00  0.00    -0.124 C  
HETATM   28  C   UNL     1      -8.466   5.891  69.532  1.00  0.00    -0.114 C  
HETATM   29  C   UNL     1      -8.506   5.897  66.993  1.00  0.00    -0.107 C  
HETATM   30  O   UNL     1      -9.486   5.435  66.416  1.00  0.00    -0.143 OA 
HETATM   31  N   UNL     1      -7.223   5.653  66.538  1.00  0.00    -0.076 N  
HETATM   32  H   UNL     1      -6.428   5.874  67.138  1.00  0.00     0.000 HD 
BRANCH  28  33
HETATM   33  C   UNL     1      -8.435   6.610  70.881  1.00  0.00    -0.133 A  
HETATM   34  C   UNL     1      -7.787   7.842  71.034  1.00  0.00    -0.089 A  
HETATM   35  C   UNL     1      -9.019   6.029  72.018  1.00  0.00    -0.140 A  
HETATM   36  C   UNL     1      -8.974   6.671  73.270  1.00  0.00    -0.138 A  
HETATM   37  C   UNL     1      -7.742   8.485  72.285  1.00  0.00    -0.113 A  
HETATM   38  C   UNL     1      -8.338   7.900  73.401  1.00  0.00    -0.257 A  
ENDBRANCH  28  33
BRANCH  31  39
HETATM   39  C   UNL     1      -6.981   5.076  65.198  1.00  0.00    -0.061 C  
HETATM   40  C   UNL     1      -8.570   5.358  63.256  1.00  0.00    -0.008 C  
HETATM   41  C   UNL     1      -8.716   4.026  63.907  1.00  0.00    -0.113 A  
HETATM   42  H   UNL     1      -8.009   7.884  63.668  1.00  0.00     0.000 HD 
HETATM   43  C   UNL     1      -7.383   6.004  64.003  1.00  0.00    -0.066 C  
HETATM   44  O   UNL     1      -7.766   7.321  64.394  1.00  0.00    -0.108 OA 
HETATM   45  C   UNL     1      -9.598   3.013  63.527  1.00  0.00    -0.101 A  
HETATM   46  C   UNL     1      -9.556   1.803  64.218  1.00  0.00    -0.119 A  
HETATM   47  C   UNL     1      -8.637   1.613  65.254  1.00  0.00    -0.105 A  
HETATM   48  C   UNL     1      -7.770   2.638  65.642  1.00  0.00    -0.077 A  
HETATM   49  C   UNL     1      -7.828   3.857  64.962  1.00  0.00    -0.086 A  
ENDBRANCH  31  39
ENDBRANCH  23  26
ENDBRANCH  22  23
ENDBRANCH  12  22
ENDBRANCH   6   9
TORSDOF 8
ENDMDL
MODEL       93
REMARK 921   NORMALIZED FREE ENERGY PREDICTED BY IDOCK:   -4.90 KCAL/MOL
REMARK 922        TOTAL FREE ENERGY PREDICTED BY IDOCK:   -9.16 KCAL/MOL
REMARK 923 INTER-LIGAND FREE ENERGY PREDICTED BY IDOCK:   -7.15 KCAL/MOL
REMARK 924 INTRA-LIGAND FREE ENERGY PREDICTED BY IDOCK:   -2.01 KCAL/MOL
REMARK 927      BINDING AFFINITY PREDICTED BY RF-SCORE:    0.00 PKD
ROOT
HETATM    1  C   UNL     1     -13.239  10.270  70.150  1.00  0.00     0.252 C  
HETATM    2  C   UNL     1     -12.001  11.149  69.945  1.00  0.00    -0.363 C  
HETATM    3  N   UNL     1     -10.735  10.589  70.518  1.00  0.00    -0.397 N  
HETATM    4  C   UNL     1     -12.285  12.484  70.692  1.00  0.00    -0.365 C  
HETATM    5  C   UNL     1     -11.860  11.507  68.458  1.00  0.00    -0.365 C  
HETATM    6  C   UNL     1      -9.897   9.520  70.344  1.00  0.00    -0.271 C  
HETATM    7  H   UNL     1     -10.391  11.188  71.267  1.00  0.00     0.000 HD 
HETATM    8  O   UNL     1      -8.782   9.644  70.871  1.00  0.00    -0.220 OA 
ENDROOT
BRANCH   6   9
HETATM    9  C   UNL     1     -10.262   8.205  69.631  1.00  0.00    -0.205 C  
HETATM   10  C   UNL     1      -9.722   6.851  70.242  1.00  0.00    -0.172 C  
HETATM   11  N   UNL     1     -10.502   5.680  69.727  1.00  0.00    -0.280 NA 
HETATM   12  N   UNL     1     -10.069   8.254  68.154  1.00  0.00    -0.192 NA 
HETATM   13  C   UNL     1     -10.692   5.769  68.252  1.00  0.00    -0.208 C  
HETATM   14  C   UNL     1     -10.984   7.181  67.670  1.00  0.00    -0.155 C  
BRANCH  11  15
HETATM   15  C   UNL     1      -9.878   4.368  70.020  1.00  0.00    -0.223 C  
BRANCH  15  16
HETATM   16  C   UNL     1      -8.956   3.780  68.980  1.00  0.00    -0.179 A  
HETATM   17  C   UNL     1      -7.615   4.153  68.934  1.00  0.00    -0.055 A  
HETATM   18  N   UNL     1      -6.749   3.799  67.954  1.00  0.00    -0.046 NA 
HETATM   19  C   UNL     1      -8.557   2.599  66.908  1.00  0.00    -0.118 A  
HETATM   20  C   UNL     1      -7.242   3.031  66.962  1.00  0.00    -0.058 A  
HETATM   21  C   UNL     1      -9.424   2.983  67.933  1.00  0.00    -0.210 A  
ENDBRANCH  15  16
ENDBRANCH  11  15
BRANCH  12  22
HETATM   22  C   UNL     1      -8.685   8.010  67.601  1.00  0.00    -0.126 C  
BRANCH  22  23
HETATM   23  C   UNL     1      -7.847   9.195  67.037  1.00  0.00    -0.102 C  
HETATM   24  O   UNL     1      -8.632  10.396  67.130  1.00  0.00    -0.129 OA 
HETATM   25  H   UNL     1      -8.120  11.119  66.786  1.00  0.00     0.000 HD 
BRANCH  23  26
HETATM   26  C   UNL     1      -6.560   9.598  67.815  1.00  0.00    -0.065 C  
HETATM   27  C   UNL     1      -6.517  10.869  68.700  1.00  0.00    -0.055 C  
HETATM   28  C   UNL     1      -5.290  10.784  69.673  1.00  0.00    -0.038 C  
HETATM   29  C   UNL     1      -6.392  12.135  67.827  1.00  0.00    -0.092 C  
HETATM   30  O   UNL     1      -5.898  12.115  66.703  1.00  0.00    -0.261 OA 
HETATM   31  N   UNL     1      -6.878  13.308  68.378  1.00  0.00    -0.088 N  
HETATM   32  H   UNL     1      -7.096  13.340  69.373  1.00  0.00     0.000 HD 
BRANCH  28  33
HETATM   33  C   UNL     1      -5.296   9.657  70.706  1.00  0.00    -0.049 A  
HETATM   34  C   UNL     1      -5.476   8.321  70.324  1.00  0.00    -0.022 A  
HETATM   35  C   UNL     1      -5.166   9.939  72.075  1.00  0.00    -0.044 A  
HETATM   36  C   UNL     1      -5.196   8.910  73.037  1.00  0.00    -0.072 A  
HETATM   37  C   UNL     1      -5.505   7.293  71.285  1.00  0.00    -0.028 A  
HETATM   38  C   UNL     1      -5.362   7.589  72.640  1.00  0.00    -0.037 A  
ENDBRANCH  28  33
BRANCH  31  39
HETATM   39  C   UNL     1      -7.086  14.514  67.550  1.00  0.00    -0.175 C  
HETATM   40  C   UNL     1      -7.038  16.863  68.476  1.00  0.00    -0.198 C  
HETATM   41  C   UNL     1      -8.430  16.371  68.278  1.00  0.00    -0.195 A  
HETATM   42  H   UNL     1      -4.591  16.154  69.088  1.00  0.00     0.000 HD 
HETATM   43  C   UNL     1      -6.162  15.725  67.910  1.00  0.00    -0.141 C  
HETATM   44  O   UNL     1      -5.152  15.419  68.870  1.00  0.00    -0.097 OA 
HETATM   45  C   UNL     1      -9.603  17.079  68.544  1.00  0.00    -0.273 A  
HETATM   46  C   UNL     1     -10.824  16.479  68.240  1.00  0.00    -0.352 A  
HETATM   47  C   UNL     1     -10.862  15.204  67.668  1.00  0.00    -0.295 A  
HETATM   48  C   UNL     1      -9.684  14.492  67.422  1.00  0.00    -0.222 A  
HETATM   49  C   UNL     1      -8.462  15.087  67.747  1.00  0.00    -0.161 A  
ENDBRANCH  31  39
ENDBRANCH  23  26
ENDBRANCH  22  23
ENDBRANCH  12  22
ENDBRANCH   6   9
TORSDOF 8
ENDMDL
MODEL       94
REMARK 921   NORMALIZED FREE ENERGY PREDICTED BY IDOCK:   -4.89 KCAL/MOL
REMARK 922        TOTAL FREE ENERGY PREDICTED BY IDOCK:   -9.15 KCAL/MOL
REMARK 923 INTER-LIGAND FREE ENERGY PREDICTED BY IDOCK:   -8.27 KCAL/MOL
REMARK 924 INTRA-LIGAND FREE ENERGY PREDICTED BY IDOCK:   -0.88 KCAL/MOL
REMARK 927      BINDING AFFINITY PREDICTED BY RF-SCORE:    0.00 PKD
ROOT
HETATM    1  C   UNL     1     -12.258  11.761  70.641  1.00  0.00    -0.443 C  
HETATM    2  C   UNL     1     -11.272  11.502  69.497  1.00  0.00    -0.236 C  
HETATM    3  N   UNL     1     -10.013  10.800  69.903  1.00  0.00    -0.377 N  
HETATM    4  C   UNL     1     -10.857  12.901  68.954  1.00  0.00    -0.239 C  
HETATM    5  C   UNL     1     -11.992  10.788  68.343  1.00  0.00     0.002 C  
HETATM    6  C   UNL     1      -9.611   9.592  70.406  1.00  0.00    -0.269 C  
HETATM    7  H   UNL     1      -9.208  11.409  69.762  1.00  0.00     0.000 HD 
HETATM    8  O   UNL     1      -8.397   9.362  70.296  1.00  0.00    -0.158 OA 
ENDROOT
BRANCH   6   9
HETATM    9  C   UNL     1     -10.516   8.580  71.132  1.00  0.00    -0.221 C  
HETATM   10  C   UNL     1      -9.869   7.671  72.251  1.00  0.00    -0.177 C  
HETATM   11  N   UNL     1     -10.922   7.086  73.143  1.00  0.00    -0.296 NA 
HETATM   12  N   UNL     1     -11.379   7.785  70.212  1.00  0.00    -0.216 NA 
HETATM   13  C   UNL     1     -12.055   6.537  72.347  1.00  0.00    -0.111 C  
HETATM   14  C   UNL     1     -12.496   7.357  71.102  1.00  0.00    -0.308 C  
BRANCH  11  15
HETATM   15  C   UNL     1     -10.427   6.003  74.025  1.00  0.00    -0.258 C  
BRANCH  15  16
HETATM   16  C   UNL     1     -10.323   4.615  73.443  1.00  0.00    -0.239 A  
HETATM   17  C   UNL     1     -11.263   3.641  73.769  1.00  0.00    -0.148 A  
HETATM   18  N   UNL     1     -11.174   2.334  73.419  1.00  0.00    -0.198 NA 
HETATM   19  C   UNL     1      -9.094   2.859  72.322  1.00  0.00    -0.134 A  
HETATM   20  C   UNL     1     -10.088   1.974  72.705  1.00  0.00    -0.128 A  
HETATM   21  C   UNL     1      -9.216   4.198  72.700  1.00  0.00    -0.140 A  
ENDBRANCH  15  16
ENDBRANCH  11  15
BRANCH  12  22
HETATM   22  C   UNL     1     -10.787   6.567  69.543  1.00  0.00    -0.304 C  
BRANCH  22  23
HETATM   23  C   UNL     1      -9.551   6.712  68.606  1.00  0.00    -0.130 C  
HETATM   24  O   UNL     1      -8.534   5.798  69.046  1.00  0.00    -0.103 OA 
HETATM   25  H   UNL     1      -7.779   5.886  68.475  1.00  0.00     0.000 HD 
BRANCH  23  26
HETATM   26  C   UNL     1      -9.727   6.298  67.116  1.00  0.00    -0.164 C  
HETATM   27  C   UNL     1      -8.666   6.663  66.047  1.00  0.00    -0.155 C  
HETATM   28  C   UNL     1      -8.880   5.769  64.776  1.00  0.00     0.107 C  
HETATM   29  C   UNL     1      -8.782   8.151  65.653  1.00  0.00    -0.145 C  
HETATM   30  O   UNL     1      -9.829   8.782  65.765  1.00  0.00    -0.180 OA 
HETATM   31  N   UNL     1      -7.632   8.746  65.166  1.00  0.00    -0.093 N  
HETATM   32  H   UNL     1      -6.842   8.160  64.896  1.00  0.00     0.000 HD 
BRANCH  28  33
HETATM   33  C   UNL     1      -8.681   4.263  64.943  1.00  0.00    -0.130 A  
HETATM   34  C   UNL     1      -9.300   3.347  64.082  1.00  0.00    -0.133 A  
HETATM   35  C   UNL     1      -7.904   3.754  65.996  1.00  0.00    -0.090 A  
HETATM   36  C   UNL     1      -7.735   2.367  66.173  1.00  0.00    -0.075 A  
HETATM   37  C   UNL     1      -9.131   1.961  64.258  1.00  0.00    -0.114 A  
HETATM   38  C   UNL     1      -8.346   1.473  65.302  1.00  0.00    -0.081 A  
ENDBRANCH  28  33
BRANCH  31  39
HETATM   39  C   UNL     1      -7.527  10.214  65.032  1.00  0.00    -0.140 C  
HETATM   40  C   UNL     1      -8.500  11.838  66.703  1.00  0.00    -0.153 C  
HETATM   41  C   UNL     1      -9.363  11.694  65.498  1.00  0.00    -0.172 A  
HETATM   42  H   UNL     1      -6.836  10.590  68.297  1.00  0.00     0.000 HD 
HETATM   43  C   UNL     1      -7.260  10.979  66.371  1.00  0.00    -0.127 C  
HETATM   44  O   UNL     1      -6.998  10.126  67.484  1.00  0.00    -0.083 OA 
HETATM   45  C   UNL     1     -10.568  12.357  65.261  1.00  0.00    -0.322 A  
HETATM   46  C   UNL     1     -11.216  12.144  64.045  1.00  0.00    -0.458 A  
HETATM   47  C   UNL     1     -10.656  11.295  63.086  1.00  0.00    -0.233 A  
HETATM   48  C   UNL     1      -9.458  10.619  63.337  1.00  0.00    -0.352 A  
HETATM   49  C   UNL     1      -8.822  10.819  64.565  1.00  0.00    -0.143 A  
ENDBRANCH  31  39
ENDBRANCH  23  26
ENDBRANCH  22  23
ENDBRANCH  12  22
ENDBRANCH   6   9
TORSDOF 8
ENDMDL
MODEL       95
REMARK 921   NORMALIZED FREE ENERGY PREDICTED BY IDOCK:   -4.88 KCAL/MOL
REMARK 922        TOTAL FREE ENERGY PREDICTED BY IDOCK:   -9.13 KCAL/MOL
REMARK 923 INTER-LIGAND FREE ENERGY PREDICTED BY IDOCK:   -9.46 KCAL/MOL
REMARK 924 INTRA-LIGAND FREE ENERGY PREDICTED BY IDOCK:    0.33 KCAL/MOL
REMARK 927      BINDING AFFINITY PREDICTED BY RF-SCORE:    0.00 PKD
ROOT
HETATM    1  C   UNL     1     -12.619  12.499  65.452  1.00  0.00    -0.157 C  
HETATM    2  C   UNL     1     -11.818  13.477  64.586  1.00  0.00    -0.394 C  
HETATM    3  N   UNL     1     -10.588  14.027  65.238  1.00  0.00    -0.341 N  
HETATM    4  C   UNL     1     -12.761  14.682  64.303  1.00  0.00     0.111 C  
HETATM    5  C   UNL     1     -11.517  12.834  63.223  1.00  0.00    -0.309 C  
HETATM    6  C   UNL     1      -9.379  13.595  65.714  1.00  0.00     0.164 C  
HETATM    7  H   UNL     1     -10.679  15.035  65.369  1.00  0.00     0.000 HD 
HETATM    8  O   UNL     1      -8.545  14.493  65.902  1.00  0.00     0.512 OA 
ENDROOT
BRANCH   6   9
HETATM    9  C   UNL     1      -9.031  12.142  66.081  1.00  0.00    -0.043 C  
HETATM   10  C   UNL     1     -10.206  11.184  66.530  1.00  0.00    -0.231 C  
HETATM   11  N   UNL     1      -9.800   9.746  66.418  1.00  0.00    -0.219 NA 
HETATM   12  N   UNL     1      -7.851  12.020  66.984  1.00  0.00    -0.158 NA 
HETATM   13  C   UNL     1      -8.443   9.526  66.994  1.00  0.00    -0.128 C  
HETATM   14  C   UNL     1      -7.382  10.629  66.722  1.00  0.00    -0.120 C  
BRANCH  11  15
HETATM   15  C   UNL     1     -10.729   8.806  67.090  1.00  0.00    -0.134 C  
BRANCH  15  16
HETATM   16  C   UNL     1     -10.236   7.408  67.366  1.00  0.00    -0.315 A  
HETATM   17  C   UNL     1     -10.135   6.941  68.675  1.00  0.00    -0.162 A  
HETATM   18  N   UNL     1      -9.567   5.763  69.032  1.00  0.00    -0.130 NA 
HETATM   19  C   UNL     1      -9.119   5.369  66.698  1.00  0.00    -0.124 A  
HETATM   20  C   UNL     1      -9.070   5.006  68.034  1.00  0.00    -0.114 A  
HETATM   21  C   UNL     1      -9.710   6.590  66.363  1.00  0.00    -0.133 A  
ENDBRANCH  15  16
ENDBRANCH  11  15
BRANCH  12  22
HETATM   22  C   UNL     1      -8.060  12.200  68.469  1.00  0.00    -0.112 C  
BRANCH  22  23
HETATM   23  C   UNL     1      -7.536  13.480  69.183  1.00  0.00     0.177 C  
HETATM   24  O   UNL     1      -6.111  13.548  69.013  1.00  0.00    -0.077 OA 
HETATM   25  H   UNL     1      -5.791  14.330  69.450  1.00  0.00     0.000 HD 
BRANCH  23  26
HETATM   26  C   UNL     1      -7.989  14.856  68.614  1.00  0.00    -0.144 C  
HETATM   27  C   UNL     1      -9.020  15.739  69.364  1.00  0.00    -0.247 C  
HETATM   28  C   UNL     1      -8.952  17.203  68.807  1.00  0.00    -0.233 C  
HETATM   29  C   UNL     1     -10.448  15.185  69.176  1.00  0.00    -0.252 C  
HETATM   30  O   UNL     1     -10.767  14.501  68.208  1.00  0.00    -0.232 OA 
HETATM   31  N   UNL     1     -11.359  15.495  70.169  1.00  0.00    -0.295 N  
HETATM   32  H   UNL     1     -11.130  16.220  70.850  1.00  0.00     0.000 HD 
BRANCH  28  33
HETATM   33  C   UNL     1      -7.644  17.968  69.015  1.00  0.00    -0.146 A  
HETATM   34  C   UNL     1      -6.498  17.328  69.504  1.00  0.00    -0.207 A  
HETATM   35  C   UNL     1      -7.570  19.346  68.760  1.00  0.00    -0.398 A  
HETATM   36  C   UNL     1      -6.377  20.064  68.972  1.00  0.00    -0.353 A  
HETATM   37  C   UNL     1      -5.305  18.045  69.715  1.00  0.00    -0.212 A  
HETATM   38  C   UNL     1      -5.246  19.411  69.446  1.00  0.00    -0.198 A  
ENDBRANCH  28  33
BRANCH  31  39
HETATM   39  C   UNL     1     -12.659  14.796  70.263  1.00  0.00    -0.315 C  
HETATM   40  C   UNL     1     -13.621  13.933  72.431  1.00  0.00    -0.676 C  
HETATM   41  C   UNL     1     -12.987  12.848  71.632  1.00  0.00    -0.410 A  
HETATM   42  H   UNL     1     -13.505  16.478  73.044  1.00  0.00     0.000 HD 
HETATM   43  C   UNL     1     -13.517  15.172  71.517  1.00  0.00    -0.462 C  
HETATM   44  O   UNL     1     -12.983  16.250  72.284  1.00  0.00    -0.311 OA 
HETATM   45  C   UNL     1     -12.913  11.499  71.982  1.00  0.00    -0.373 A  
HETATM   46  C   UNL     1     -12.332  10.609  71.080  1.00  0.00    -0.507 A  
HETATM   47  C   UNL     1     -11.852  11.065  69.849  1.00  0.00    -0.431 A  
HETATM   48  C   UNL     1     -11.912  12.421  69.512  1.00  0.00    -0.324 A  
HETATM   49  C   UNL     1     -12.476  13.313  70.427  1.00  0.00    -0.295 A  
ENDBRANCH  31  39
ENDBRANCH  23  26
ENDBRANCH  22  23
ENDBRANCH  12  22
ENDBRANCH   6   9
TORSDOF 8
ENDMDL
MODEL       96
REMARK 921   NORMALIZED FREE ENERGY PREDICTED BY IDOCK:   -4.87 KCAL/MOL
REMARK 922        TOTAL FREE ENERGY PREDICTED BY IDOCK:   -9.11 KCAL/MOL
REMARK 923 INTER-LIGAND FREE ENERGY PREDICTED BY IDOCK:   -8.53 KCAL/MOL
REMARK 924 INTRA-LIGAND FREE ENERGY PREDICTED BY IDOCK:   -0.59 KCAL/MOL
REMARK 927      BINDING AFFINITY PREDICTED BY RF-SCORE:    0.00 PKD
ROOT
HETATM    1  C   UNL     1     -11.394   8.129  72.176  1.00  0.00    -0.399 C  
HETATM    2  C   UNL     1     -12.247   7.039  71.519  1.00  0.00    -0.368 C  
HETATM    3  N   UNL     1     -11.956   6.807  70.068  1.00  0.00    -0.656 N  
HETATM    4  C   UNL     1     -13.722   7.523  71.615  1.00  0.00    -0.465 C  
HETATM    5  C   UNL     1     -12.161   5.746  72.345  1.00  0.00     0.009 C  
HETATM    6  C   UNL     1     -10.934   6.369  69.268  1.00  0.00    -0.356 C  
HETATM    7  H   UNL     1     -12.768   7.051  69.502  1.00  0.00     0.000 HD 
HETATM    8  O   UNL     1     -11.274   6.061  68.116  1.00  0.00    -0.263 OA 
ENDROOT
BRANCH   6   9
HETATM    9  C   UNL     1      -9.450   6.306  69.668  1.00  0.00    -0.146 C  
HETATM   10  C   UNL     1      -9.096   5.962  71.169  1.00  0.00    -0.143 C  
HETATM   11  N   UNL     1      -7.674   5.506  71.295  1.00  0.00    -0.105 NA 
HETATM   12  N   UNL     1      -8.648   7.459  69.167  1.00  0.00    -0.136 NA 
HETATM   13  C   UNL     1      -6.755   6.400  70.535  1.00  0.00    -0.053 C  
HETATM   14  C   UNL     1      -7.261   6.910  69.156  1.00  0.00    -0.090 C  
BRANCH  11  15
HETATM   15  C   UNL     1      -7.184   5.447  72.693  1.00  0.00    -0.090 C  
BRANCH  15  16
HETATM   16  C   UNL     1      -6.727   6.734  73.334  1.00  0.00    -0.071 A  
HETATM   17  C   UNL     1      -7.620   7.513  74.065  1.00  0.00    -0.128 A  
HETATM   18  N   UNL     1      -7.347   8.750  74.550  1.00  0.00    -0.410 NA 
HETATM   19  C   UNL     1      -5.151   8.552  73.578  1.00  0.00    -0.055 A  
HETATM   20  C   UNL     1      -6.118   9.241  74.291  1.00  0.00     0.102 A  
HETATM   21  C   UNL     1      -5.465   7.281  73.091  1.00  0.00    -0.041 A  
ENDBRANCH  15  16
ENDBRANCH  11  15
BRANCH  12  22
HETATM   22  C   UNL     1      -8.664   8.744  69.959  1.00  0.00    -0.144 C  
BRANCH  22  23
HETATM   23  C   UNL     1      -7.943  10.011  69.411  1.00  0.00    -0.145 C  
HETATM   24  O   UNL     1      -7.587   9.776  68.038  1.00  0.00    -0.082 OA 
HETATM   25  H   UNL     1      -7.147  10.549  67.703  1.00  0.00     0.000 HD 
BRANCH  23  26
HETATM   26  C   UNL     1      -8.777  11.321  69.302  1.00  0.00     0.240 C  
HETATM   27  C   UNL     1      -9.796  11.535  68.154  1.00  0.00    -0.197 C  
HETATM   28  C   UNL     1     -10.769  12.704  68.535  1.00  0.00    -0.271 C  
HETATM   29  C   UNL     1      -9.066  11.884  66.839  1.00  0.00    -0.196 C  
HETATM   30  O   UNL     1      -7.954  12.403  66.820  1.00  0.00    -0.090 OA 
HETATM   31  N   UNL     1      -9.734  11.572  65.669  1.00  0.00    -0.227 N  
HETATM   32  H   UNL     1     -10.725  11.332  65.707  1.00  0.00     0.000 HD 
BRANCH  28  33
HETATM   33  C   UNL     1     -11.674  12.489  69.748  1.00  0.00    -0.355 A  
HETATM   34  C   UNL     1     -12.244  11.239  70.018  1.00  0.00    -0.389 A  
HETATM   35  C   UNL     1     -11.993  13.556  70.603  1.00  0.00    -0.308 A  
HETATM   36  C   UNL     1     -12.846  13.374  71.710  1.00  0.00    -0.385 A  
HETATM   37  C   UNL     1     -13.095  11.056  71.124  1.00  0.00    -0.326 A  
HETATM   38  C   UNL     1     -13.393  12.123  71.970  1.00  0.00    -0.470 A  
ENDBRANCH  28  33
BRANCH  31  39
HETATM   39  C   UNL     1      -9.040  11.581  64.364  1.00  0.00     0.193 C  
HETATM   40  C   UNL     1      -9.650  10.048  62.453  1.00  0.00    -0.100 C  
HETATM   41  C   UNL     1      -8.452   9.564  63.194  1.00  0.00    -0.199 A  
HETATM   42  H   UNL     1     -11.933  11.313  62.680  1.00  0.00     0.000 HD 
HETATM   43  C   UNL     1      -9.974  11.401  63.121  1.00  0.00    -0.372 C  
HETATM   44  O   UNL     1     -11.366  11.422  63.434  1.00  0.00    -0.337 OA 
HETATM   45  C   UNL     1      -7.710   8.417  62.908  1.00  0.00    -0.127 A  
HETATM   46  C   UNL     1      -6.578   8.149  63.676  1.00  0.00    -0.072 A  
HETATM   47  C   UNL     1      -6.194   9.024  64.697  1.00  0.00    -0.066 A  
HETATM   48  C   UNL     1      -6.952  10.161  64.991  1.00  0.00    -0.135 A  
HETATM   49  C   UNL     1      -8.098  10.416  64.233  1.00  0.00    -0.102 A  
ENDBRANCH  31  39
ENDBRANCH  23  26
ENDBRANCH  22  23
ENDBRANCH  12  22
ENDBRANCH   6   9
TORSDOF 8
ENDMDL
MODEL       97
REMARK 921   NORMALIZED FREE ENERGY PREDICTED BY IDOCK:   -4.86 KCAL/MOL
REMARK 922        TOTAL FREE ENERGY PREDICTED BY IDOCK:   -9.09 KCAL/MOL
REMARK 923 INTER-LIGAND FREE ENERGY PREDICTED BY IDOCK:   -9.34 KCAL/MOL
REMARK 924 INTRA-LIGAND FREE ENERGY PREDICTED BY IDOCK:    0.24 KCAL/MOL
REMARK 927      BINDING AFFINITY PREDICTED BY RF-SCORE:    0.00 PKD
ROOT
HETATM    1  C   UNL     1     -13.848  14.916  70.695  1.00  0.00     0.100 C  
HETATM    2  C   UNL     1     -12.773  14.296  71.593  1.00  0.00    -0.352 C  
HETATM    3  N   UNL     1     -12.483  12.853  71.317  1.00  0.00    -0.283 N  
HETATM    4  C   UNL     1     -13.319  14.380  73.048  1.00  0.00    -0.484 C  
HETATM    5  C   UNL     1     -11.505  15.163  71.557  1.00  0.00    -0.422 C  
HETATM    6  C   UNL     1     -11.978  12.065  70.318  1.00  0.00    -0.314 C  
HETATM    7  H   UNL     1     -12.742  12.281  72.121  1.00  0.00     0.000 HD 
HETATM    8  O   UNL     1     -11.647  10.925  70.674  1.00  0.00    -0.328 OA 
ENDROOT
BRANCH   6   9
HETATM    9  C   UNL     1     -11.868  12.463  68.835  1.00  0.00    -0.301 C  
HETATM   10  C   UNL     1     -11.451  11.351  67.793  1.00  0.00    -0.281 C  
HETATM   11  N   UNL     1     -11.815  11.757  66.398  1.00  0.00    -0.494 NA 
HETATM   12  N   UNL     1     -11.116  13.731  68.612  1.00  0.00    -0.256 NA 
HETATM   13  C   UNL     1     -11.417  13.168  66.129  1.00  0.00    -0.330 C  
HETATM   14  C   UNL     1     -11.627  14.185  67.286  1.00  0.00    -0.373 C  
BRANCH  11  15
HETATM   15  C   UNL     1     -11.201  10.911  65.347  1.00  0.00     0.282 C  
BRANCH  15  16
HETATM   16  C   UNL     1      -9.963  10.129  65.709  1.00  0.00    -0.339 A  
HETATM   17  C   UNL     1      -8.699  10.676  65.506  1.00  0.00    -0.188 A  
HETATM   18  N   UNL     1      -7.532  10.002  65.658  1.00  0.00    -0.130 NA 
HETATM   19  C   UNL     1      -8.831   8.065  66.264  1.00  0.00    -0.191 A  
HETATM   20  C   UNL     1      -7.627   8.710  66.031  1.00  0.00    -0.093 A  
HETATM   21  C   UNL     1     -10.014   8.788  66.097  1.00  0.00    -0.244 A  
ENDBRANCH  15  16
ENDBRANCH  11  15
BRANCH  12  22
HETATM   22  C   UNL     1      -9.607  13.674  68.566  1.00  0.00    -0.165 C  
BRANCH  22  23
HETATM   23  C   UNL     1      -8.809  14.724  67.738  1.00  0.00    -0.175 C  
HETATM   24  O   UNL     1      -9.509  15.978  67.793  1.00  0.00    -0.215 OA 
HETATM   25  H   UNL     1      -9.022  16.619  67.287  1.00  0.00     0.000 HD 
BRANCH  23  26
HETATM   26  C   UNL     1      -7.397  15.125  68.256  1.00  0.00    -0.114 C  
HETATM   27  C   UNL     1      -7.203  16.326  69.216  1.00  0.00    -0.221 C  
HETATM   28  C   UNL     1      -5.793  16.224  69.896  1.00  0.00    -0.187 C  
HETATM   29  C   UNL     1      -7.304  17.659  68.445  1.00  0.00    -0.243 C  
HETATM   30  O   UNL     1      -7.061  17.746  67.245  1.00  0.00    -0.176 OA 
HETATM   31  N   UNL     1      -7.693  18.763  69.182  1.00  0.00    -0.180 N  
HETATM   32  H   UNL     1      -7.694  18.709  70.201  1.00  0.00     0.000 HD 
BRANCH  28  33
HETATM   33  C   UNL     1      -5.546  15.023  70.809  1.00  0.00    -0.120 A  
HETATM   34  C   UNL     1      -5.442  13.725  70.292  1.00  0.00    -0.120 A  
HETATM   35  C   UNL     1      -5.460  15.185  72.201  1.00  0.00     0.234 A  
HETATM   36  C   UNL     1      -5.257  14.082  73.053  1.00  0.00    -0.263 A  
HETATM   37  C   UNL     1      -5.239  12.622  71.143  1.00  0.00    -0.161 A  
HETATM   38  C   UNL     1      -5.144  12.803  72.522  1.00  0.00     0.135 A  
ENDBRANCH  28  33
BRANCH  31  39
HETATM   39  C   UNL     1      -8.109  20.018  68.521  1.00  0.00    -0.081 C  
HETATM   40  C   UNL     1      -9.297  20.090  66.294  1.00  0.00    -0.456 C  
HETATM   41  C   UNL     1      -7.844  20.390  66.161  1.00  0.00    -0.118 A  
HETATM   42  H   UNL     1     -11.077  18.717  67.639  1.00  0.00     0.000 HD 
HETATM   43  C   UNL     1      -9.506  19.958  67.818  1.00  0.00    -0.362 C  
HETATM   44  O   UNL     1     -10.229  18.753  68.066  1.00  0.00    -0.353 OA 
HETATM   45  C   UNL     1      -7.167  20.691  64.978  1.00  0.00     0.141 A  
HETATM   46  C   UNL     1      -5.811  21.006  65.050  1.00  0.00    -0.266 A  
HETATM   47  C   UNL     1      -5.156  21.030  66.285  1.00  0.00    -0.227 A  
HETATM   48  C   UNL     1      -5.835  20.708  67.464  1.00  0.00    -0.273 A  
HETATM   49  C   UNL     1      -7.190  20.374  67.386  1.00  0.00    -0.351 A  
ENDBRANCH  31  39
ENDBRANCH  23  26
ENDBRANCH  22  23
ENDBRANCH  12  22
ENDBRANCH   6   9
TORSDOF 8
ENDMDL
MODEL       98
REMARK 921   NORMALIZED FREE ENERGY PREDICTED BY IDOCK:   -4.75 KCAL/MOL
REMARK 922        TOTAL FREE ENERGY PREDICTED BY IDOCK:   -8.93 KCAL/MOL
REMARK 923 INTER-LIGAND FREE ENERGY PREDICTED BY IDOCK:   -8.63 KCAL/MOL
REMARK 924 INTRA-LIGAND FREE ENERGY PREDICTED BY IDOCK:   -0.30 KCAL/MOL
REMARK 927      BINDING AFFINITY PREDICTED BY RF-SCORE:    0.00 PKD
ROOT
HETATM    1  C   UNL     1     -10.046  13.080  64.462  1.00  0.00    -0.254 C  
HETATM    2  C   UNL     1     -10.573  11.710  64.024  1.00  0.00    -0.373 C  
HETATM    3  N   UNL     1     -10.230  10.583  64.949  1.00  0.00    -0.331 N  
HETATM    4  C   UNL     1      -9.897  11.398  62.658  1.00  0.00    -0.066 C  
HETATM    5  C   UNL     1     -12.082  11.799  63.749  1.00  0.00    -0.463 C  
HETATM    6  C   UNL     1     -10.483  10.174  66.231  1.00  0.00    -0.122 C  
HETATM    7  H   UNL     1      -9.618   9.915  64.480  1.00  0.00     0.000 HD 
HETATM    8  O   UNL     1     -10.209   8.987  66.460  1.00  0.00    -0.278 OA 
ENDROOT
BRANCH   6   9
HETATM    9  C   UNL     1     -10.995  11.072  67.371  1.00  0.00    -0.291 C  
HETATM   10  C   UNL     1     -10.208  12.407  67.679  1.00  0.00    -0.207 C  
HETATM   11  N   UNL     1     -11.051  13.358  68.473  1.00  0.00    -0.257 NA 
HETATM   12  N   UNL     1     -11.315  10.325  68.622  1.00  0.00    -0.208 NA 
HETATM   13  C   UNL     1     -11.732  12.659  69.599  1.00  0.00    -0.303 C  
HETATM   14  C   UNL     1     -12.280  11.234  69.305  1.00  0.00    -0.222 C  
BRANCH  11  15
HETATM   15  C   UNL     1     -10.294  14.497  69.046  1.00  0.00    -0.223 C  
BRANCH  15  16
HETATM   16  C   UNL     1     -10.057  15.698  68.165  1.00  0.00    -0.222 A  
HETATM   17  C   UNL     1     -10.900  16.804  68.237  1.00  0.00    -0.366 A  
HETATM   18  N   UNL     1     -10.860  17.861  67.390  1.00  0.00    -0.289 NA 
HETATM   19  C   UNL     1      -9.039  16.770  66.251  1.00  0.00    -0.320 A  
HETATM   20  C   UNL     1      -9.931  17.817  66.414  1.00  0.00    -0.344 A  
HETATM   21  C   UNL     1      -9.107  15.695  67.140  1.00  0.00    -0.227 A  
ENDBRANCH  15  16
ENDBRANCH  11  15
BRANCH  12  22
HETATM   22  C   UNL     1     -10.188   9.997  69.571  1.00  0.00    -0.234 C  
BRANCH  22  23
HETATM   23  C   UNL     1      -9.205   8.834  69.246  1.00  0.00    -0.149 C  
HETATM   24  O   UNL     1      -8.051   8.960  70.094  1.00  0.00    -0.101 OA 
HETATM   25  H   UNL     1      -7.451   8.250  69.895  1.00  0.00     0.000 HD 
BRANCH  23  26
HETATM   26  C   UNL     1      -9.675   7.385  69.565  1.00  0.00    -0.159 C  
HETATM   27  C   UNL     1      -8.688   6.191  69.530  1.00  0.00    -0.130 C  
HETATM   28  C   UNL     1      -9.316   4.975  70.296  1.00  0.00    -0.212 C  
HETATM   29  C   UNL     1      -8.386   5.778  68.074  1.00  0.00    -0.103 C  
HETATM   30  O   UNL     1      -9.166   5.997  67.152  1.00  0.00    -0.116 OA 
HETATM   31  N   UNL     1      -7.175   5.146  67.856  1.00  0.00    -0.066 N  
HETATM   32  H   UNL     1      -6.642   4.799  68.653  1.00  0.00     0.000 HD 
BRANCH  28  33
HETATM   33  C   UNL     1      -9.573   5.152  71.793  1.00  0.00    -0.199 A  
HETATM   34  C   UNL     1     -10.825   4.870  72.355  1.00  0.00    -0.204 A  
HETATM   35  C   UNL     1      -8.568   5.647  72.640  1.00  0.00    -0.120 A  
HETATM   36  C   UNL     1      -8.803   5.838  74.015  1.00  0.00    -0.123 A  
HETATM   37  C   UNL     1     -11.059   5.060  73.729  1.00  0.00    -0.256 A  
HETATM   38  C   UNL     1     -10.046   5.541  74.558  1.00  0.00    -0.293 A  
ENDBRANCH  28  33
BRANCH  31  39
HETATM   39  C   UNL     1      -6.639   4.966  66.491  1.00  0.00    -0.046 C  
HETATM   40  C   UNL     1      -7.277   6.438  64.541  1.00  0.00    -0.061 C  
HETATM   41  C   UNL     1      -8.013   5.143  64.525  1.00  0.00    -0.106 A  
HETATM   42  H   UNL     1      -6.220   8.274  66.083  1.00  0.00     0.000 HD 
HETATM   43  C   UNL     1      -6.308   6.296  65.734  1.00  0.00    -0.038 C  
HETATM   44  O   UNL     1      -6.421   7.466  66.542  1.00  0.00    -0.049 OA 
HETATM   45  C   UNL     1      -8.944   4.733  63.570  1.00  0.00    -0.069 A  
HETATM   46  C   UNL     1      -9.493   3.457  63.683  1.00  0.00    -0.122 A  
HETATM   47  C   UNL     1      -9.101   2.609  64.723  1.00  0.00    -0.135 A  
HETATM   48  C   UNL     1      -8.182   3.032  65.687  1.00  0.00    -0.088 A  
HETATM   49  C   UNL     1      -7.649   4.320  65.583  1.00  0.00    -0.085 A  
ENDBRANCH  31  39
ENDBRANCH  23  26
ENDBRANCH  22  23
ENDBRANCH  12  22
ENDBRANCH   6   9
TORSDOF 8
ENDMDL
MODEL       99
REMARK 921   NORMALIZED FREE ENERGY PREDICTED BY IDOCK:   -4.66 KCAL/MOL
REMARK 922        TOTAL FREE ENERGY PREDICTED BY IDOCK:   -8.81 KCAL/MOL
REMARK 923 INTER-LIGAND FREE ENERGY PREDICTED BY IDOCK:   -8.44 KCAL/MOL
REMARK 924 INTRA-LIGAND FREE ENERGY PREDICTED BY IDOCK:   -0.37 KCAL/MOL
REMARK 927      BINDING AFFINITY PREDICTED BY RF-SCORE:    0.00 PKD
ROOT
HETATM    1  C   UNL     1     -10.472  10.395  70.781  1.00  0.00     0.440 C  
HETATM    2  C   UNL     1     -11.224   9.230  70.130  1.00  0.00    -0.208 C  
HETATM    3  N   UNL     1     -11.277   9.278  68.634  1.00  0.00    -0.450 N  
HETATM    4  C   UNL     1     -12.692   9.319  70.640  1.00  0.00     0.111 C  
HETATM    5  C   UNL     1     -10.666   7.897  70.652  1.00  0.00    -0.230 C  
HETATM    6  C   UNL     1     -10.429   9.217  67.560  1.00  0.00    -0.274 C  
HETATM    7  H   UNL     1     -12.240   9.390  68.319  1.00  0.00     0.000 HD 
HETATM    8  O   UNL     1     -10.985   8.996  66.474  1.00  0.00     0.142 OA 
ENDROOT
BRANCH   6   9
HETATM    9  C   UNL     1      -8.912   9.466  67.604  1.00  0.00    -0.118 C  
HETATM   10  C   UNL     1      -8.117   9.004  68.889  1.00  0.00    -0.104 C  
HETATM   11  N   UNL     1      -6.649   8.902  68.606  1.00  0.00    -0.054 NA 
HETATM   12  N   UNL     1      -8.520  10.843  67.185  1.00  0.00    -0.126 NA 
HETATM   13  C   UNL     1      -6.162  10.097  67.861  1.00  0.00    -0.057 C  
HETATM   14  C   UNL     1      -7.102  10.663  66.760  1.00  0.00    -0.118 C  
BRANCH  11  15
HETATM   15  C   UNL     1      -5.811   8.761  69.821  1.00  0.00    -0.028 C  
BRANCH  15  16
HETATM   16  C   UNL     1      -6.367   7.952  70.967  1.00  0.00    -0.037 A  
HETATM   17  C   UNL     1      -6.361   6.560  70.916  1.00  0.00    -0.048 A  
HETATM   18  N   UNL     1      -6.966   5.752  71.821  1.00  0.00    -0.071 NA 
HETATM   19  C   UNL     1      -7.683   7.736  72.985  1.00  0.00    -0.149 A  
HETATM   20  C   UNL     1      -7.617   6.361  72.833  1.00  0.00    -0.095 A  
HETATM   21  C   UNL     1      -7.050   8.540  72.035  1.00  0.00    -0.104 A  
ENDBRANCH  15  16
ENDBRANCH  11  15
BRANCH  12  22
HETATM   22  C   UNL     1      -8.593  11.953  68.206  1.00  0.00    -0.162 C  
BRANCH  22  23
HETATM   23  C   UNL     1      -9.681  13.060  68.081  1.00  0.00    -0.228 C  
HETATM   24  O   UNL     1     -10.961  12.427  67.921  1.00  0.00    -0.210 OA 
HETATM   25  H   UNL     1     -11.626  13.103  67.845  1.00  0.00     0.000 HD 
BRANCH  23  26
HETATM   26  C   UNL     1      -9.929  13.966  69.323  1.00  0.00     0.235 C  
HETATM   27  C   UNL     1     -10.491  15.403  69.173  1.00  0.00    -0.239 C  
HETATM   28  C   UNL     1     -11.034  15.895  70.559  1.00  0.00    -0.346 C  
HETATM   29  C   UNL     1      -9.391  16.368  68.681  1.00  0.00    -0.233 C  
HETATM   30  O   UNL     1      -8.197  16.159  68.875  1.00  0.00    -0.203 OA 
HETATM   31  N   UNL     1      -9.824  17.490  67.998  1.00  0.00    -0.285 N  
HETATM   32  H   UNL     1     -10.812  17.742  68.025  1.00  0.00     0.000 HD 
BRANCH  28  33
HETATM   33  C   UNL     1     -12.219  15.133  71.154  1.00  0.00    -0.392 A  
HETATM   34  C   UNL     1     -13.295  15.808  71.745  1.00  0.00    -0.450 A  
HETATM   35  C   UNL     1     -12.238  13.729  71.161  1.00  0.00    -0.362 A  
HETATM   36  C   UNL     1     -13.313  13.018  71.728  1.00  0.00    -0.468 A  
HETATM   37  C   UNL     1     -14.370  15.097  72.311  1.00  0.00    -0.559 A  
HETATM   38  C   UNL     1     -14.379  13.703  72.299  1.00  0.00    -0.411 A  
ENDBRANCH  28  33
BRANCH  31  39
HETATM   39  C   UNL     1      -8.881  18.330  67.230  1.00  0.00    -0.255 C  
HETATM   40  C   UNL     1      -6.682  17.482  66.324  1.00  0.00    -0.309 C  
HETATM   41  C   UNL     1      -6.504  18.264  67.579  1.00  0.00    -0.195 A  
HETATM   42  H   UNL     1      -8.285  15.865  65.027  1.00  0.00     0.000 HD 
HETATM   43  C   UNL     1      -8.191  17.608  66.024  1.00  0.00    -0.091 C  
HETATM   44  O   UNL     1      -8.704  16.303  65.759  1.00  0.00    -0.390 OA 
HETATM   45  C   UNL     1      -5.293  18.536  68.219  1.00  0.00    -0.172 A  
HETATM   46  C   UNL     1      -5.310  19.339  69.359  1.00  0.00    -0.209 A  
HETATM   47  C   UNL     1      -6.514  19.866  69.834  1.00  0.00    -0.372 A  
HETATM   48  C   UNL     1      -7.726  19.573  69.200  1.00  0.00    -0.271 A  
HETATM   49  C   UNL     1      -7.708  18.752  68.069  1.00  0.00    -0.286 A  
ENDBRANCH  31  39
ENDBRANCH  23  26
ENDBRANCH  22  23
ENDBRANCH  12  22
ENDBRANCH   6   9
TORSDOF 8
ENDMDL
MODEL      100
REMARK 921   NORMALIZED FREE ENERGY PREDICTED BY IDOCK:   -4.54 KCAL/MOL
REMARK 922        TOTAL FREE ENERGY PREDICTED BY IDOCK:   -8.63 KCAL/MOL
REMARK 923 INTER-LIGAND FREE ENERGY PREDICTED BY IDOCK:   -9.11 KCAL/MOL
REMARK 924 INTRA-LIGAND FREE ENERGY PREDICTED BY IDOCK:    0.48 KCAL/MOL
REMARK 927      BINDING AFFINITY PREDICTED BY RF-SCORE:    0.00 PKD
ROOT
HETATM    1  C   UNL     1     -12.943  14.333  65.627  1.00  0.00    -0.210 C  
HETATM    2  C   UNL     1     -11.662  14.251  64.790  1.00  0.00    -0.415 C  
HETATM    3  N   UNL     1     -10.398  14.167  65.589  1.00  0.00    -0.317 N  
HETATM    4  C   UNL     1     -11.593  15.569  63.967  1.00  0.00     0.082 C  
HETATM    5  C   UNL     1     -11.783  13.110  63.768  1.00  0.00    -0.519 C  
HETATM    6  C   UNL     1      -9.775  13.321  66.467  1.00  0.00    -0.273 C  
HETATM    7  H   UNL     1      -9.825  14.996  65.431  1.00  0.00     0.000 HD 
HETATM    8  O   UNL     1      -8.569  13.549  66.640  1.00  0.00    -0.090 OA 
ENDROOT
BRANCH   6   9
HETATM    9  C   UNL     1     -10.462  12.202  67.270  1.00  0.00    -0.218 C  
HETATM   10  C   UNL     1     -10.997  12.544  68.718  1.00  0.00    -0.253 C  
HETATM   11  N   UNL     1     -12.002  11.530  69.173  1.00  0.00    -0.330 NA 
HETATM   12  N   UNL     1      -9.717  10.911  67.253  1.00  0.00    -0.164 NA 
HETATM   13  C   UNL     1     -11.527  10.144  68.899  1.00  0.00    -0.064 C  
HETATM   14  C   UNL     1     -10.785   9.914  67.552  1.00  0.00    -0.272 C  
BRANCH  11  15
HETATM   15  C   UNL     1     -12.327  11.614  70.617  1.00  0.00    -0.344 C  
BRANCH  15  16
HETATM   16  C   UNL     1     -12.734  12.958  71.168  1.00  0.00    -0.366 A  
HETATM   17  C   UNL     1     -13.516  13.041  72.318  1.00  0.00    -0.547 A  
HETATM   18  N   UNL     1     -14.054  14.187  72.804  1.00  0.00    -0.550 NA 
HETATM   19  C   UNL     1     -13.035  15.349  70.955  1.00  0.00    -0.556 A  
HETATM   20  C   UNL     1     -13.802  15.314  72.108  1.00  0.00    -0.522 A  
HETATM   21  C   UNL     1     -12.496  14.150  70.480  1.00  0.00    -0.431 A  
ENDBRANCH  15  16
ENDBRANCH  11  15
BRANCH  12  22
HETATM   22  C   UNL     1      -8.580  10.724  68.228  1.00  0.00    -0.135 C  
BRANCH  22  23
HETATM   23  C   UNL     1      -7.798   9.378  68.270  1.00  0.00    -0.090 C  
HETATM   24  O   UNL     1      -6.647   9.544  69.116  1.00  0.00    -0.048 OA 
HETATM   25  H   UNL     1      -6.170   8.722  69.142  1.00  0.00     0.000 HD 
BRANCH  23  26
HETATM   26  C   UNL     1      -8.503   8.158  68.930  1.00  0.00    -0.130 C  
HETATM   27  C   UNL     1      -7.760   6.814  69.141  1.00  0.00    -0.106 C  
HETATM   28  C   UNL     1      -8.543   5.946  70.187  1.00  0.00    -0.134 C  
HETATM   29  C   UNL     1      -7.651   6.039  67.811  1.00  0.00    -0.096 C  
HETATM   30  O   UNL     1      -8.444   6.199  66.888  1.00  0.00    -0.106 OA 
HETATM   31  N   UNL     1      -6.598   5.148  67.708  1.00  0.00    -0.048 N  
HETATM   32  H   UNL     1      -6.079   4.887  68.546  1.00  0.00     0.000 HD 
BRANCH  28  33
HETATM   33  C   UNL     1      -8.649   6.497  71.609  1.00  0.00    -0.128 A  
HETATM   34  C   UNL     1      -9.887   6.844  72.165  1.00  0.00    -0.159 A  
HETATM   35  C   UNL     1      -7.497   6.712  72.383  1.00  0.00    -0.093 A  
HETATM   36  C   UNL     1      -7.582   7.242  73.685  1.00  0.00    -0.119 A  
HETATM   37  C   UNL     1      -9.972   7.373  73.466  1.00  0.00    -0.377 A  
HETATM   38  C   UNL     1      -8.819   7.568  74.226  1.00  0.00    -0.247 A  
ENDBRANCH  28  33
BRANCH  31  39
HETATM   39  C   UNL     1      -6.210   4.569  66.405  1.00  0.00    -0.032 C  
HETATM   40  C   UNL     1      -6.583   5.735  64.197  1.00  0.00    -0.037 C  
HETATM   41  C   UNL     1      -7.616   4.695  64.459  1.00  0.00    -0.073 A  
HETATM   42  H   UNL     1      -5.010   7.510  65.312  1.00  0.00     0.000 HD 
HETATM   43  C   UNL     1      -5.607   5.592  65.384  1.00  0.00    -0.013 C  
HETATM   44  O   UNL     1      -5.376   6.889  65.931  1.00  0.00    -0.021 OA 
HETATM   45  C   UNL     1      -8.678   4.355  63.619  1.00  0.00    -0.129 A  
HETATM   46  C   UNL     1      -9.518   3.309  64.001  1.00  0.00    -0.134 A  
HETATM   47  C   UNL     1      -9.284   2.614  65.191  1.00  0.00    -0.131 A  
HETATM   48  C   UNL     1      -8.230   2.973  66.037  1.00  0.00    -0.091 A  
HETATM   49  C   UNL     1      -7.402   4.034  65.662  1.00  0.00    -0.076 A  
ENDBRANCH  31  39
ENDBRANCH  23  26
ENDBRANCH  22  23
ENDBRANCH  12  22
ENDBRANCH   6   9
TORSDOF 8
ENDMDL
MODEL      101
REMARK 921   NORMALIZED FREE ENERGY PREDICTED BY IDOCK:   -4.51 KCAL/MOL
REMARK 922        TOTAL FREE ENERGY PREDICTED BY IDOCK:   -8.58 KCAL/MOL
REMARK 923 INTER-LIGAND FREE ENERGY PREDICTED BY IDOCK:   -6.85 KCAL/MOL
REMARK 924 INTRA-LIGAND FREE ENERGY PREDICTED BY IDOCK:   -1.73 KCAL/MOL
REMARK 927      BINDING AFFINITY PREDICTED BY RF-SCORE:    0.00 PKD
ROOT
HETATM    1  C   UNL     1     -11.025  12.064  67.691  1.00  0.00    -0.287 C  
HETATM    2  C   UNL     1     -10.367  13.443  67.583  1.00  0.00    -0.238 C  
HETATM    3  N   UNL     1      -9.234  13.671  68.534  1.00  0.00    -0.327 N  
HETATM    4  C   UNL     1     -11.471  14.482  67.934  1.00  0.00    -0.348 C  
HETATM    5  C   UNL     1      -9.968  13.714  66.124  1.00  0.00    -0.314 C  
HETATM    6  C   UNL     1      -7.978  13.189  68.793  1.00  0.00     0.050 C  
HETATM    7  H   UNL     1      -9.469  14.414  69.192  1.00  0.00     0.000 HD 
HETATM    8  O   UNL     1      -7.283  13.916  69.517  1.00  0.00    -0.002 OA 
ENDROOT
BRANCH   6   9
HETATM    9  C   UNL     1      -7.428  11.831  68.322  1.00  0.00    -0.103 C  
HETATM   10  C   UNL     1      -7.583  11.451  66.796  1.00  0.00    -0.143 C  
HETATM   11  N   UNL     1      -6.637  10.354  66.416  1.00  0.00    -0.091 NA 
HETATM   12  N   UNL     1      -7.806  10.694  69.210  1.00  0.00    -0.146 NA 
HETATM   13  C   UNL     1      -6.653   9.258  67.426  1.00  0.00    -0.064 C  
HETATM   14  C   UNL     1      -6.747   9.686  68.918  1.00  0.00    -0.046 C  
BRANCH  11  15
HETATM   15  C   UNL     1      -6.921   9.747  65.093  1.00  0.00    -0.117 C  
BRANCH  15  16
HETATM   16  C   UNL     1      -8.176  10.181  64.377  1.00  0.00    -0.165 A  
HETATM   17  C   UNL     1      -8.100  10.779  63.122  1.00  0.00     0.029 A  
HETATM   18  N   UNL     1      -9.150  11.334  62.467  1.00  0.00    -0.320 NA 
HETATM   19  C   UNL     1     -10.534  10.721  64.341  1.00  0.00    -0.344 A  
HETATM   20  C   UNL     1     -10.342  11.294  63.095  1.00  0.00    -0.280 A  
HETATM   21  C   UNL     1      -9.431  10.159  64.990  1.00  0.00    -0.330 A  
ENDBRANCH  15  16
ENDBRANCH  11  15
BRANCH  12  22
HETATM   22  C   UNL     1      -9.161  10.054  69.021  1.00  0.00    -0.178 C  
BRANCH  22  23
HETATM   23  C   UNL     1     -10.010   9.639  70.259  1.00  0.00    -0.270 C  
HETATM   24  O   UNL     1     -11.326   9.275  69.810  1.00  0.00    -0.412 OA 
HETATM   25  H   UNL     1     -11.844   9.021  70.566  1.00  0.00     0.000 HD 
BRANCH  23  26
HETATM   26  C   UNL     1      -9.574   8.360  71.032  1.00  0.00    -0.212 C  
HETATM   27  C   UNL     1      -8.677   7.284  70.369  1.00  0.00    -0.146 C  
HETATM   28  C   UNL     1      -8.057   6.368  71.481  1.00  0.00    -0.113 C  
HETATM   29  C   UNL     1      -9.500   6.419  69.392  1.00  0.00    -0.140 C  
HETATM   30  O   UNL     1     -10.712   6.266  69.507  1.00  0.00    -0.236 OA 
HETATM   31  N   UNL     1      -8.795   5.821  68.362  1.00  0.00    -0.110 N  
HETATM   32  H   UNL     1      -7.776   5.797  68.402  1.00  0.00     0.000 HD 
BRANCH  28  33
HETATM   33  C   UNL     1      -7.104   7.029  72.477  1.00  0.00    -0.069 A  
HETATM   34  C   UNL     1      -6.882   8.412  72.463  1.00  0.00    -0.104 A  
HETATM   35  C   UNL     1      -6.390   6.257  73.407  1.00  0.00    -0.065 A  
HETATM   36  C   UNL     1      -5.492   6.854  74.313  1.00  0.00    -0.051 A  
HETATM   37  C   UNL     1      -5.985   9.009  73.368  1.00  0.00     0.003 A  
HETATM   38  C   UNL     1      -5.293   8.229  74.294  1.00  0.00    -0.079 A  
ENDBRANCH  28  33
BRANCH  31  39
HETATM   39  C   UNL     1      -9.491   5.218  67.206  1.00  0.00    -0.127 C  
HETATM   40  C   UNL     1      -8.899   2.957  66.251  1.00  0.00    -0.146 C  
HETATM   41  C   UNL     1      -8.324   4.070  65.445  1.00  0.00    -0.109 A  
HETATM   42  H   UNL     1      -9.564   2.195  68.668  1.00  0.00     0.000 HD 
HETATM   43  C   UNL     1      -9.744   3.678  67.323  1.00  0.00    -0.056 C  
HETATM   44  O   UNL     1      -9.410   3.130  68.597  1.00  0.00    -0.162 OA 
HETATM   45  C   UNL     1      -7.554   3.941  64.288  1.00  0.00    -0.079 A  
HETATM   46  C   UNL     1      -7.148   5.100  63.628  1.00  0.00    -0.048 A  
HETATM   47  C   UNL     1      -7.523   6.357  64.112  1.00  0.00    -0.084 A  
HETATM   48  C   UNL     1      -8.278   6.480  65.282  1.00  0.00    -0.135 A  
HETATM   49  C   UNL     1      -8.666   5.317  65.953  1.00  0.00    -0.138 A  
ENDBRANCH  31  39
ENDBRANCH  23  26
ENDBRANCH  22  23
ENDBRANCH  12  22
ENDBRANCH   6   9
TORSDOF 8
ENDMDL
MODEL      102
REMARK 921   NORMALIZED FREE ENERGY PREDICTED BY IDOCK:   -4.50 KCAL/MOL
REMARK 922        TOTAL FREE ENERGY PREDICTED BY IDOCK:   -8.57 KCAL/MOL
REMARK 923 INTER-LIGAND FREE ENERGY PREDICTED BY IDOCK:   -8.89 KCAL/MOL
REMARK 924 INTRA-LIGAND FREE ENERGY PREDICTED BY IDOCK:    0.32 KCAL/MOL
REMARK 927      BINDING AFFINITY PREDICTED BY RF-SCORE:    0.00 PKD
ROOT
HETATM    1  C   UNL     1     -10.365  14.023  65.023  1.00  0.00    -0.432 C  
HETATM    2  C   UNL     1     -11.321  12.880  64.669  1.00  0.00    -0.323 C  
HETATM    3  N   UNL     1     -11.235  11.689  65.573  1.00  0.00    -0.253 N  
HETATM    4  C   UNL     1     -10.918  12.399  63.245  1.00  0.00    -0.325 C  
HETATM    5  C   UNL     1     -12.755  13.420  64.552  1.00  0.00    -0.190 C  
HETATM    6  C   UNL     1     -11.462  11.357  66.882  1.00  0.00    -0.119 C  
HETATM    7  H   UNL     1     -10.905  10.875  65.054  1.00  0.00     0.000 HD 
HETATM    8  O   UNL     1     -11.533  10.139  67.102  1.00  0.00    -0.103 OA 
ENDROOT
BRANCH   6   9
HETATM    9  C   UNL     1     -11.558  12.351  68.052  1.00  0.00    -0.347 C  
HETATM   10  C   UNL     1     -10.394  13.405  68.233  1.00  0.00    -0.249 C  
HETATM   11  N   UNL     1     -10.833  14.548  69.098  1.00  0.00    -0.259 NA 
HETATM   12  N   UNL     1     -11.923  11.713  69.349  1.00  0.00    -0.323 NA 
HETATM   13  C   UNL     1     -11.543  14.058  70.313  1.00  0.00    -0.171 C  
HETATM   14  C   UNL     1     -12.503  12.850  70.121  1.00  0.00    -0.074 C  
BRANCH  11  15
HETATM   15  C   UNL     1      -9.722  15.419  69.549  1.00  0.00    -0.257 C  
BRANCH  15  16
HETATM   16  C   UNL     1      -9.327  16.572  68.660  1.00  0.00    -0.241 A  
HETATM   17  C   UNL     1      -9.990  17.794  68.753  1.00  0.00    -0.367 A  
HETATM   18  N   UNL     1      -9.811  18.835  67.904  1.00  0.00    -0.325 NA 
HETATM   19  C   UNL     1      -8.208  17.482  66.718  1.00  0.00    -0.273 A  
HETATM   20  C   UNL     1      -8.925  18.652  66.904  1.00  0.00    -0.294 A  
HETATM   21  C   UNL     1      -8.417  16.428  67.610  1.00  0.00    -0.178 A  
ENDBRANCH  15  16
ENDBRANCH  11  15
BRANCH  12  22
HETATM   22  C   UNL     1     -10.829  11.068  70.167  1.00  0.00     0.118 C  
BRANCH  22  23
HETATM   23  C   UNL     1      -9.733  10.210  69.468  1.00  0.00    -0.229 C  
HETATM   24  O   UNL     1      -8.601  10.109  70.349  1.00  0.00    -0.344 OA 
HETATM   25  H   UNL     1      -7.932   9.586  69.922  1.00  0.00     0.000 HD 
BRANCH  23  26
HETATM   26  C   UNL     1     -10.058   8.712  69.198  1.00  0.00    -0.203 C  
HETATM   27  C   UNL     1      -8.932   7.656  69.055  1.00  0.00    -0.137 C  
HETATM   28  C   UNL     1      -9.541   6.221  69.225  1.00  0.00    -0.147 C  
HETATM   29  C   UNL     1      -8.258   7.766  67.670  1.00  0.00    -0.125 C  
HETATM   30  O   UNL     1      -8.835   8.231  66.691  1.00  0.00    -0.132 OA 
HETATM   31  N   UNL     1      -6.953   7.314  67.588  1.00  0.00    -0.073 N  
HETATM   32  H   UNL     1      -6.569   6.755  68.350  1.00  0.00     0.000 HD 
BRANCH  28  33
HETATM   33  C   UNL     1     -10.148   5.879  70.586  1.00  0.00    -0.252 A  
HETATM   34  C   UNL     1      -9.527   4.970  71.452  1.00  0.00    -0.206 A  
HETATM   35  C   UNL     1     -11.372   6.438  70.986  1.00  0.00    -0.386 A  
HETATM   36  C   UNL     1     -11.952   6.110  72.227  1.00  0.00    -0.285 A  
HETATM   37  C   UNL     1     -10.106   4.643  72.692  1.00  0.00    -0.224 A  
HETATM   38  C   UNL     1     -11.316   5.216  73.079  1.00  0.00    -0.381 A  
ENDBRANCH  28  33
BRANCH  31  39
HETATM   39  C   UNL     1      -6.106   7.626  66.418  1.00  0.00    -0.044 C  
HETATM   40  C   UNL     1      -6.477   9.629  64.927  1.00  0.00    -0.092 C  
HETATM   41  C   UNL     1      -7.015   8.378  64.323  1.00  0.00    -0.081 A  
HETATM   42  H   UNL     1      -6.043  10.897  67.179  1.00  0.00     0.000 HD 
HETATM   43  C   UNL     1      -5.791   9.147  66.223  1.00  0.00    -0.058 C  
HETATM   44  O   UNL     1      -6.235   9.974  67.297  1.00  0.00    -0.061 OA 
HETATM   45  C   UNL     1      -7.647   8.263  63.084  1.00  0.00    -0.127 A  
HETATM   46  C   UNL     1      -8.035   6.996  62.651  1.00  0.00    -0.116 A  
HETATM   47  C   UNL     1      -7.778   5.871  63.440  1.00  0.00    -0.091 A  
HETATM   48  C   UNL     1      -7.162   5.995  64.689  1.00  0.00    -0.063 A  
HETATM   49  C   UNL     1      -6.793   7.269  65.129  1.00  0.00    -0.047 A  
ENDBRANCH  31  39
ENDBRANCH  23  26
ENDBRANCH  22  23
ENDBRANCH  12  22
ENDBRANCH   6   9
TORSDOF 8
ENDMDL
MODEL      103
REMARK 921   NORMALIZED FREE ENERGY PREDICTED BY IDOCK:   -4.49 KCAL/MOL
REMARK 922        TOTAL FREE ENERGY PREDICTED BY IDOCK:   -8.55 KCAL/MOL
REMARK 923 INTER-LIGAND FREE ENERGY PREDICTED BY IDOCK:   -7.70 KCAL/MOL
REMARK 924 INTRA-LIGAND FREE ENERGY PREDICTED BY IDOCK:   -0.85 KCAL/MOL
REMARK 927      BINDING AFFINITY PREDICTED BY RF-SCORE:    0.00 PKD
ROOT
HETATM    1  C   UNL     1     -10.674  13.757  65.637  1.00  0.00    -0.288 C  
HETATM    2  C   UNL     1     -11.189  12.670  64.689  1.00  0.00    -0.310 C  
HETATM    3  N   UNL     1     -10.153  11.682  64.249  1.00  0.00    -0.269 N  
HETATM    4  C   UNL     1     -11.686  13.405  63.411  1.00  0.00    -0.211 C  
HETATM    5  C   UNL     1     -12.422  11.989  65.302  1.00  0.00     0.305 C  
HETATM    6  C   UNL     1      -9.347  10.712  64.783  1.00  0.00    -0.233 C  
HETATM    7  H   UNL     1     -10.002  11.753  63.243  1.00  0.00     0.000 HD 
HETATM    8  O   UNL     1      -8.856   9.932  63.953  1.00  0.00    -0.191 OA 
ENDROOT
BRANCH   6   9
HETATM    9  C   UNL     1      -8.971  10.580  66.269  1.00  0.00    -0.158 C  
HETATM   10  C   UNL     1     -10.138  10.422  67.323  1.00  0.00    -0.200 C  
HETATM   11  N   UNL     1      -9.624   9.870  68.617  1.00  0.00    -0.152 NA 
HETATM   12  N   UNL     1      -7.959  11.579  66.720  1.00  0.00    -0.160 NA 
HETATM   13  C   UNL     1      -8.375  10.566  69.038  1.00  0.00    -0.154 C  
HETATM   14  C   UNL     1      -7.360  10.919  67.915  1.00  0.00    -0.088 C  
BRANCH  11  15
HETATM   15  C   UNL     1     -10.590   9.967  69.737  1.00  0.00    -0.264 C  
BRANCH  15  16
HETATM   16  C   UNL     1     -10.680   8.800  70.690  1.00  0.00    -0.267 A  
HETATM   17  C   UNL     1     -11.497   7.711  70.395  1.00  0.00    -0.174 A  
HETATM   18  N   UNL     1     -11.759   6.691  71.248  1.00  0.00    -0.319 NA 
HETATM   19  C   UNL     1     -10.347   7.790  72.862  1.00  0.00    -0.396 A  
HETATM   20  C   UNL     1     -11.179   6.757  72.464  1.00  0.00    -0.268 A  
HETATM   21  C   UNL     1     -10.098   8.826  71.959  1.00  0.00    -0.397 A  
ENDBRANCH  15  16
ENDBRANCH  11  15
BRANCH  12  22
HETATM   22  C   UNL     1      -8.434  12.960  67.104  1.00  0.00    -0.179 C  
BRANCH  22  23
HETATM   23  C   UNL     1      -7.599  13.828  68.092  1.00  0.00    -0.128 C  
HETATM   24  O   UNL     1      -7.104  14.977  67.385  1.00  0.00    -0.191 OA 
HETATM   25  H   UNL     1      -6.594  15.506  67.987  1.00  0.00     0.000 HD 
BRANCH  23  26
HETATM   26  C   UNL     1      -8.354  14.489  69.281  1.00  0.00     0.082 C  
HETATM   27  C   UNL     1      -9.156  15.803  69.097  1.00  0.00    -0.262 C  
HETATM   28  C   UNL     1     -10.137  15.987  70.307  1.00  0.00     0.219 C  
HETATM   29  C   UNL     1      -8.202  17.014  69.022  1.00  0.00    -0.130 C  
HETATM   30  O   UNL     1      -7.085  17.006  69.530  1.00  0.00    -0.177 OA 
HETATM   31  N   UNL     1      -8.673  18.121  68.339  1.00  0.00    -0.287 N  
HETATM   32  H   UNL     1      -9.664  18.179  68.103  1.00  0.00     0.000 HD 
BRANCH  28  33
HETATM   33  C   UNL     1     -11.241  14.943  70.473  1.00  0.00    -0.243 A  
HETATM   34  C   UNL     1     -11.858  14.727  71.712  1.00  0.00    -0.373 A  
HETATM   35  C   UNL     1     -11.636  14.138  69.392  1.00  0.00    -0.353 A  
HETATM   36  C   UNL     1     -12.635  13.156  69.541  1.00  0.00     0.272 A  
HETATM   37  C   UNL     1     -12.856  13.747  71.861  1.00  0.00    -0.400 A  
HETATM   38  C   UNL     1     -13.246  12.965  70.774  1.00  0.00     0.267 A  
ENDBRANCH  28  33
BRANCH  31  39
HETATM   39  C   UNL     1      -7.768  19.220  67.944  1.00  0.00    -0.283 C  
HETATM   40  C   UNL     1      -8.133  20.657  65.900  1.00  0.00     0.316 C  
HETATM   41  C   UNL     1      -7.109  19.602  65.663  1.00  0.00    -0.321 A  
HETATM   42  H   UNL     1     -10.345  21.235  67.180  1.00  0.00     0.000 HD 
HETATM   43  C   UNL     1      -8.487  20.498  67.394  1.00  0.00    -0.275 C  
HETATM   44  O   UNL     1      -9.908  20.460  67.514  1.00  0.00    -0.416 OA 
HETATM   45  C   UNL     1      -6.397  19.391  64.482  1.00  0.00    -0.086 A  
HETATM   46  C   UNL     1      -5.428  18.388  64.459  1.00  0.00    -0.059 A  
HETATM   47  C   UNL     1      -5.173  17.627  65.604  1.00  0.00    -0.088 A  
HETATM   48  C   UNL     1      -5.903  17.830  66.779  1.00  0.00    -0.195 A  
HETATM   49  C   UNL     1      -6.887  18.823  66.792  1.00  0.00    -0.210 A  
ENDBRANCH  31  39
ENDBRANCH  23  26
ENDBRANCH  22  23
ENDBRANCH  12  22
ENDBRANCH   6   9
TORSDOF 8
ENDMDL
MODEL      104
REMARK 921   NORMALIZED FREE ENERGY PREDICTED BY IDOCK:   -4.24 KCAL/MOL
REMARK 922        TOTAL FREE ENERGY PREDICTED BY IDOCK:   -8.19 KCAL/MOL
REMARK 923 INTER-LIGAND FREE ENERGY PREDICTED BY IDOCK:   -7.01 KCAL/MOL
REMARK 924 INTRA-LIGAND FREE ENERGY PREDICTED BY IDOCK:   -1.19 KCAL/MOL
REMARK 927      BINDING AFFINITY PREDICTED BY RF-SCORE:    0.00 PKD
ROOT
HETATM    1  C   UNL     1     -13.859   9.400  70.918  1.00  0.00     0.094 C  
HETATM    2  C   UNL     1     -12.555   8.602  71.011  1.00  0.00    -0.055 C  
HETATM    3  N   UNL     1     -11.845   8.409  69.707  1.00  0.00    -0.041 N  
HETATM    4  C   UNL     1     -12.946   7.187  71.529  1.00  0.00    -0.431 C  
HETATM    5  C   UNL     1     -11.646   9.218  72.085  1.00  0.00    -0.172 C  
HETATM    6  C   UNL     1     -11.218   9.153  68.743  1.00  0.00     0.273 C  
HETATM    7  H   UNL     1     -11.821   7.420  69.461  1.00  0.00     0.000 HD 
HETATM    8  O   UNL     1     -10.502   8.500  67.969  1.00  0.00    -0.221 OA 
ENDROOT
BRANCH   6   9
HETATM    9  C   UNL     1     -11.395  10.666  68.525  1.00  0.00    -0.284 C  
HETATM   10  C   UNL     1     -11.336  11.218  67.046  1.00  0.00    -0.187 C  
HETATM   11  N   UNL     1     -11.954  12.581  66.955  1.00  0.00    -0.531 NA 
HETATM   12  N   UNL     1     -10.582  11.502  69.454  1.00  0.00    -0.086 NA 
HETATM   13  C   UNL     1     -11.479  13.459  68.062  1.00  0.00    -0.304 C  
HETATM   14  C   UNL     1     -11.321  12.797  69.460  1.00  0.00    -0.154 C  
BRANCH  11  15
HETATM   15  C   UNL     1     -11.678  13.281  65.678  1.00  0.00    -0.356 C  
BRANCH  15  16
HETATM   16  C   UNL     1     -10.770  14.484  65.719  1.00  0.00    -0.320 A  
HETATM   17  C   UNL     1      -9.603  14.462  66.479  1.00  0.00    -0.293 A  
HETATM   18  N   UNL     1      -8.804  15.535  66.698  1.00  0.00    -0.266 NA 
HETATM   19  C   UNL     1     -10.323  16.833  65.352  1.00  0.00    -0.169 A  
HETATM   20  C   UNL     1      -9.186  16.697  66.130  1.00  0.00    -0.277 A  
HETATM   21  C   UNL     1     -11.126  15.708  65.147  1.00  0.00    -0.357 A  
ENDBRANCH  15  16
ENDBRANCH  11  15
BRANCH  12  22
HETATM   22  C   UNL     1      -9.135  11.761  69.108  1.00  0.00     0.412 C  
BRANCH  22  23
HETATM   23  C   UNL     1      -8.029  10.769  69.574  1.00  0.00    -0.010 C  
HETATM   24  O   UNL     1      -8.643   9.736  70.363  1.00  0.00    -0.253 OA 
HETATM   25  H   UNL     1      -7.968   9.131  70.648  1.00  0.00     0.000 HD 
BRANCH  23  26
HETATM   26  C   UNL     1      -7.300   9.938  68.477  1.00  0.00    -0.078 C  
HETATM   27  C   UNL     1      -7.751   8.498  68.125  1.00  0.00    -0.102 C  
HETATM   28  C   UNL     1      -7.147   8.090  66.736  1.00  0.00    -0.081 C  
HETATM   29  C   UNL     1      -7.275   7.501  69.203  1.00  0.00    -0.084 C  
HETATM   30  O   UNL     1      -6.297   7.716  69.914  1.00  0.00    -0.027 OA 
HETATM   31  N   UNL     1      -8.020   6.343  69.335  1.00  0.00    -0.108 N  
HETATM   32  H   UNL     1      -8.695   6.097  68.611  1.00  0.00     0.000 HD 
BRANCH  28  33
HETATM   33  C   UNL     1      -7.603   8.890  65.516  1.00  0.00    -0.087 A  
HETATM   34  C   UNL     1      -8.955   8.958  65.154  1.00  0.00    -0.189 A  
HETATM   35  C   UNL     1      -6.670   9.545  64.698  1.00  0.00    -0.094 A  
HETATM   36  C   UNL     1      -7.077  10.265  63.558  1.00  0.00    -0.075 A  
HETATM   37  C   UNL     1      -9.363   9.677  64.016  1.00  0.00    -0.119 A  
HETATM   38  C   UNL     1      -8.423  10.332  63.221  1.00  0.00    -0.181 A  
ENDBRANCH  28  33
BRANCH  31  39
HETATM   39  C   UNL     1      -7.855   5.455  70.505  1.00  0.00    -0.093 C  
HETATM   40  C   UNL     1      -9.699   3.984  71.407  1.00  0.00    -0.253 C  
HETATM   41  C   UNL     1      -9.537   5.229  72.209  1.00  0.00    -0.180 A  
HETATM   42  H   UNL     1      -9.522   2.956  69.003  1.00  0.00     0.000 HD 
HETATM   43  C   UNL     1      -8.553   4.060  70.375  1.00  0.00    -0.072 C  
HETATM   44  O   UNL     1      -9.099   3.803  69.082  1.00  0.00    -0.110 OA 
HETATM   45  C   UNL     1     -10.277   5.588  73.336  1.00  0.00    -0.222 A  
HETATM   46  C   UNL     1      -9.946   6.769  74.000  1.00  0.00    -0.367 A  
HETATM   47  C   UNL     1      -8.886   7.560  73.547  1.00  0.00    -0.258 A  
HETATM   48  C   UNL     1      -8.162   7.205  72.405  1.00  0.00    -0.113 A  
HETATM   49  C   UNL     1      -8.508   6.031  71.731  1.00  0.00    -0.127 A  
ENDBRANCH  31  39
ENDBRANCH  23  26
ENDBRANCH  22  23
ENDBRANCH  12  22
ENDBRANCH   6   9
TORSDOF 8
ENDMDL
MODEL      105
REMARK 921   NORMALIZED FREE ENERGY PREDICTED BY IDOCK:   -4.22 KCAL/MOL
REMARK 922        TOTAL FREE ENERGY PREDICTED BY IDOCK:   -8.17 KCAL/MOL
REMARK 923 INTER-LIGAND FREE ENERGY PREDICTED BY IDOCK:   -6.69 KCAL/MOL
REMARK 924 INTRA-LIGAND FREE ENERGY PREDICTED BY IDOCK:   -1.47 KCAL/MOL
REMARK 927      BINDING AFFINITY PREDICTED BY RF-SCORE:    0.00 PKD
ROOT
HETATM    1  C   UNL     1     -13.765  10.211  70.075  1.00  0.00     1.275 C  
HETATM    2  C   UNL     1     -12.633  10.768  70.945  1.00  0.00    -0.401 C  
HETATM    3  N   UNL     1     -11.721   9.731  71.523  1.00  0.00    -0.389 N  
HETATM    4  C   UNL     1     -13.318  11.489  72.142  1.00  0.00    -0.284 C  
HETATM    5  C   UNL     1     -11.868  11.851  70.169  1.00  0.00    -0.390 C  
HETATM    6  C   UNL     1     -10.819   8.788  71.106  1.00  0.00    -0.268 C  
HETATM    7  H   UNL     1     -11.794   9.724  72.540  1.00  0.00     0.000 HD 
HETATM    8  O   UNL     1     -10.070   8.359  71.996  1.00  0.00    -0.238 OA 
ENDROOT
BRANCH   6   9
HETATM    9  C   UNL     1     -10.730   8.204  69.686  1.00  0.00    -0.195 C  
HETATM   10  C   UNL     1     -10.184   6.730  69.519  1.00  0.00    -0.184 C  
HETATM   11  N   UNL     1     -10.568   6.162  68.187  1.00  0.00    -0.234 NA 
HETATM   12  N   UNL     1     -10.110   9.132  68.696  1.00  0.00    -0.188 NA 
HETATM   13  C   UNL     1     -10.316   7.142  67.093  1.00  0.00    -0.289 C  
HETATM   14  C   UNL     1     -10.647   8.630  67.398  1.00  0.00    -0.228 C  
BRANCH  11  15
HETATM   15  C   UNL     1      -9.854   4.910  67.840  1.00  0.00    -0.143 C  
BRANCH  15  16
HETATM   16  C   UNL     1      -9.311   4.074  68.972  1.00  0.00    -0.237 A  
HETATM   17  C   UNL     1      -9.302   2.684  68.881  1.00  0.00    -0.155 A  
HETATM   18  N   UNL     1      -8.974   1.847  69.896  1.00  0.00    -0.074 NA 
HETATM   19  C   UNL     1      -8.610   3.793  71.270  1.00  0.00    -0.111 A  
HETATM   20  C   UNL     1      -8.639   2.423  71.068  1.00  0.00    -0.059 A  
HETATM   21  C   UNL     1      -8.954   4.627  70.204  1.00  0.00    -0.136 A  
ENDBRANCH  15  16
ENDBRANCH  11  15
BRANCH  12  22
HETATM   22  C   UNL     1      -8.604   9.196  68.616  1.00  0.00    -0.128 C  
BRANCH  22  23
HETATM   23  C   UNL     1      -7.898  10.525  68.214  1.00  0.00    -0.111 C  
HETATM   24  O   UNL     1      -6.477  10.343  68.336  1.00  0.00    -0.055 OA 
HETATM   25  H   UNL     1      -6.046  11.153  68.091  1.00  0.00     0.000 HD 
BRANCH  23  26
HETATM   26  C   UNL     1      -8.032  10.990  66.735  1.00  0.00    -0.152 C  
HETATM   27  C   UNL     1      -8.316   9.980  65.595  1.00  0.00    -0.148 C  
HETATM   28  C   UNL     1      -8.822  10.755  64.328  1.00  0.00    -0.123 C  
HETATM   29  C   UNL     1      -7.038   9.192  65.237  1.00  0.00    -0.088 C  
HETATM   30  O   UNL     1      -5.912   9.635  65.440  1.00  0.00    -0.061 OA 
HETATM   31  N   UNL     1      -7.229   7.942  64.674  1.00  0.00    -0.075 N  
HETATM   32  H   UNL     1      -8.155   7.683  64.334  1.00  0.00     0.000 HD 
BRANCH  28  33
HETATM   33  C   UNL     1     -10.151  11.500  64.453  1.00  0.00    -0.328 A  
HETATM   34  C   UNL     1     -10.422  12.324  65.554  1.00  0.00    -0.296 A  
HETATM   35  C   UNL     1     -11.155  11.344  63.485  1.00  0.00    -0.373 A  
HETATM   36  C   UNL     1     -12.392  12.007  63.603  1.00  0.00    -0.648 A  
HETATM   37  C   UNL     1     -11.658  12.987  65.672  1.00  0.00    -0.391 A  
HETATM   38  C   UNL     1     -12.640  12.830  64.695  1.00  0.00    -0.491 A  
ENDBRANCH  28  33
BRANCH  31  39
HETATM   39  C   UNL     1      -6.116   6.977  64.558  1.00  0.00    -0.037 C  
HETATM   40  C   UNL     1      -6.405   4.616  63.711  1.00  0.00    -0.026 C  
HETATM   41  C   UNL     1      -6.329   4.669  65.197  1.00  0.00    -0.035 A  
HETATM   42  H   UNL     1      -7.200   5.897  61.567  1.00  0.00     0.000 HD 
HETATM   43  C   UNL     1      -6.159   6.077  63.277  1.00  0.00    -0.022 C  
HETATM   44  O   UNL     1      -7.174   6.443  62.345  1.00  0.00    -0.041 OA 
HETATM   45  C   UNL     1      -6.393   3.579  66.067  1.00  0.00    -0.032 A  
HETATM   46  C   UNL     1      -6.244   3.811  67.434  1.00  0.00    -0.036 A  
HETATM   47  C   UNL     1      -6.020   5.107  67.910  1.00  0.00    -0.022 A  
HETATM   48  C   UNL     1      -5.977   6.196  67.035  1.00  0.00    -0.018 A  
HETATM   49  C   UNL     1      -6.146   5.963  65.667  1.00  0.00    -0.029 A  
ENDBRANCH  31  39
ENDBRANCH  23  26
ENDBRANCH  22  23
ENDBRANCH  12  22
ENDBRANCH   6   9
TORSDOF 8
ENDMDL
MODEL      106
REMARK 921   NORMALIZED FREE ENERGY PREDICTED BY IDOCK:   -4.21 KCAL/MOL
REMARK 922        TOTAL FREE ENERGY PREDICTED BY IDOCK:   -8.15 KCAL/MOL
REMARK 923 INTER-LIGAND FREE ENERGY PREDICTED BY IDOCK:   -7.06 KCAL/MOL
REMARK 924 INTRA-LIGAND FREE ENERGY PREDICTED BY IDOCK:   -1.09 KCAL/MOL
REMARK 927      BINDING AFFINITY PREDICTED BY RF-SCORE:    0.00 PKD
ROOT
HETATM    1  C   UNL     1      -9.808  13.584  66.238  1.00  0.00    -0.306 C  
HETATM    2  C   UNL     1     -10.594  12.560  65.413  1.00  0.00    -0.281 C  
HETATM    3  N   UNL     1      -9.910  11.239  65.240  1.00  0.00    -0.235 N  
HETATM    4  C   UNL     1     -10.758  13.176  63.994  1.00  0.00    -0.330 C  
HETATM    5  C   UNL     1     -12.012  12.411  65.986  1.00  0.00    -0.419 C  
HETATM    6  C   UNL     1      -9.489  10.177  65.995  1.00  0.00    -0.197 C  
HETATM    7  H   UNL     1      -9.689  11.082  64.256  1.00  0.00     0.000 HD 
HETATM    8  O   UNL     1      -9.231   9.151  65.349  1.00  0.00    -0.219 OA 
ENDROOT
BRANCH   6   9
HETATM    9  C   UNL     1      -9.256  10.199  67.516  1.00  0.00    -0.137 C  
HETATM   10  C   UNL     1      -7.780  10.005  68.048  1.00  0.00    -0.089 C  
HETATM   11  N   UNL     1      -7.650  10.486  69.461  1.00  0.00    -0.150 NA 
HETATM   12  N   UNL     1     -10.227   9.365  68.280  1.00  0.00    -0.188 NA 
HETATM   13  C   UNL     1      -8.779   9.994  70.300  1.00  0.00     0.119 C  
HETATM   14  C   UNL     1     -10.186   9.979  69.639  1.00  0.00    -0.239 C  
BRANCH  11  15
HETATM   15  C   UNL     1      -6.389  10.074  70.121  1.00  0.00    -0.093 C  
BRANCH  15  16
HETATM   16  C   UNL     1      -6.374   8.750  70.845  1.00  0.00    -0.049 A  
HETATM   17  C   UNL     1      -5.996   8.682  72.183  1.00  0.00    -0.070 A  
HETATM   18  N   UNL     1      -5.809   7.531  72.875  1.00  0.00    -0.044 NA 
HETATM   19  C   UNL     1      -6.386   6.331  70.867  1.00  0.00    -0.040 A  
HETATM   20  C   UNL     1      -6.006   6.382  72.198  1.00  0.00    -0.038 A  
HETATM   21  C   UNL     1      -6.570   7.535  70.183  1.00  0.00    -0.042 A  
ENDBRANCH  15  16
ENDBRANCH  11  15
BRANCH  12  22
HETATM   22  C   UNL     1      -9.963   7.883  68.400  1.00  0.00    -0.180 C  
BRANCH  22  23
HETATM   23  C   UNL     1     -11.152   6.879  68.468  1.00  0.00    -0.075 C  
HETATM   24  O   UNL     1     -11.636   6.653  67.133  1.00  0.00    -0.749 OA 
HETATM   25  H   UNL     1     -12.362   6.041  67.175  1.00  0.00     0.000 HD 
BRANCH  23  26
HETATM   26  C   UNL     1     -10.842   5.430  68.943  1.00  0.00    -0.012 C  
HETATM   27  C   UNL     1      -9.391   4.887  68.981  1.00  0.00    -0.183 C  
HETATM   28  C   UNL     1      -9.338   3.607  69.885  1.00  0.00    -0.246 C  
HETATM   29  C   UNL     1      -8.908   4.530  67.559  1.00  0.00    -0.107 C  
HETATM   30  O   UNL     1      -9.683   4.236  66.653  1.00  0.00    -0.194 OA 
HETATM   31  N   UNL     1      -7.540   4.565  67.351  1.00  0.00    -0.081 N  
HETATM   32  H   UNL     1      -6.914   4.613  68.155  1.00  0.00     0.000 HD 
BRANCH  28  33
HETATM   33  C   UNL     1      -9.666   3.787  71.367  1.00  0.00    -0.242 A  
HETATM   34  C   UNL     1      -9.686   5.057  71.958  1.00  0.00    -0.214 A  
HETATM   35  C   UNL     1      -9.913   2.676  72.188  1.00  0.00    -0.236 A  
HETATM   36  C   UNL     1     -10.191   2.830  73.560  1.00  0.00    -0.198 A  
HETATM   37  C   UNL     1      -9.964   5.212  73.329  1.00  0.00    -0.182 A  
HETATM   38  C   UNL     1     -10.220   4.098  74.127  1.00  0.00    -0.242 A  
ENDBRANCH  28  33
BRANCH  31  39
HETATM   39  C   UNL     1      -6.971   4.533  65.988  1.00  0.00    -0.066 C  
HETATM   40  C   UNL     1      -7.969   5.784  64.035  1.00  0.00    -0.121 C  
HETATM   41  C   UNL     1      -8.335   4.341  64.017  1.00  0.00    -0.103 A  
HETATM   42  H   UNL     1      -7.443   7.834  65.580  1.00  0.00     0.000 HD 
HETATM   43  C   UNL     1      -7.002   5.904  65.232  1.00  0.00    -0.063 C  
HETATM   44  O   UNL     1      -7.425   7.002  66.039  1.00  0.00    -0.076 OA 
HETATM   45  C   UNL     1      -9.121   3.698  63.059  1.00  0.00    -0.099 A  
HETATM   46  C   UNL     1      -9.312   2.322  63.170  1.00  0.00    -0.092 A  
HETATM   47  C   UNL     1      -8.712   1.608  64.212  1.00  0.00    -0.087 A  
HETATM   48  C   UNL     1      -7.942   2.260  65.180  1.00  0.00    -0.078 A  
HETATM   49  C   UNL     1      -7.769   3.643  65.077  1.00  0.00    -0.085 A  
ENDBRANCH  31  39
ENDBRANCH  23  26
ENDBRANCH  22  23
ENDBRANCH  12  22
ENDBRANCH   6   9
TORSDOF 8
ENDMDL
MODEL      107
REMARK 921   NORMALIZED FREE ENERGY PREDICTED BY IDOCK:   -4.17 KCAL/MOL
REMARK 922        TOTAL FREE ENERGY PREDICTED BY IDOCK:   -8.09 KCAL/MOL
REMARK 923 INTER-LIGAND FREE ENERGY PREDICTED BY IDOCK:   -6.80 KCAL/MOL
REMARK 924 INTRA-LIGAND FREE ENERGY PREDICTED BY IDOCK:   -1.29 KCAL/MOL
REMARK 927      BINDING AFFINITY PREDICTED BY RF-SCORE:    0.00 PKD
ROOT
HETATM    1  C   UNL     1     -10.410  15.112  66.048  1.00  0.00    -0.326 C  
HETATM    2  C   UNL     1     -11.457  14.145  65.486  1.00  0.00    -0.324 C  
HETATM    3  N   UNL     1     -10.895  12.886  64.901  1.00  0.00    -0.295 N  
HETATM    4  C   UNL     1     -12.174  14.902  64.332  1.00  0.00    -0.399 C  
HETATM    5  C   UNL     1     -12.529  13.866  66.551  1.00  0.00    -0.364 C  
HETATM    6  C   UNL     1     -10.205  11.772  65.297  1.00  0.00    -0.267 C  
HETATM    7  H   UNL     1     -11.084  12.847  63.900  1.00  0.00     0.000 HD 
HETATM    8  O   UNL     1     -10.224  10.835  64.485  1.00  0.00    -0.328 OA 
ENDROOT
BRANCH   6   9
HETATM    9  C   UNL     1      -9.385  11.641  66.593  1.00  0.00    -0.194 C  
HETATM   10  C   UNL     1      -7.821  11.449  66.470  1.00  0.00    -0.105 C  
HETATM   11  N   UNL     1      -7.136  11.782  67.761  1.00  0.00    -0.088 NA 
HETATM   12  N   UNL     1      -9.977  10.693  67.580  1.00  0.00    -0.166 NA 
HETATM   13  C   UNL     1      -7.840  11.161  68.918  1.00  0.00    -0.131 C  
HETATM   14  C   UNL     1      -9.394  11.161  68.871  1.00  0.00    -0.106 C  
BRANCH  11  15
HETATM   15  C   UNL     1      -5.718  11.352  67.816  1.00  0.00    -0.046 C  
BRANCH  15  16
HETATM   16  C   UNL     1      -5.424   9.969  68.343  1.00  0.00    -0.039 A  
HETATM   17  C   UNL     1      -5.354   8.884  67.474  1.00  0.00    -0.034 A  
HETATM   18  N   UNL     1      -5.244   7.590  67.863  1.00  0.00    -0.024 NA 
HETATM   19  C   UNL     1      -5.258   8.364  70.144  1.00  0.00    -0.022 A  
HETATM   20  C   UNL     1      -5.202   7.361  69.191  1.00  0.00    -0.015 A  
HETATM   21  C   UNL     1      -5.374   9.687  69.710  1.00  0.00    -0.033 A  
ENDBRANCH  15  16
ENDBRANCH  11  15
BRANCH  12  22
HETATM   22  C   UNL     1      -9.697   9.218  67.418  1.00  0.00    -0.161 C  
BRANCH  22  23
HETATM   23  C   UNL     1     -10.789   8.170  67.783  1.00  0.00    -0.002 C  
HETATM   24  O   UNL     1     -11.145   7.447  66.592  1.00  0.00    -0.408 OA 
HETATM   25  H   UNL     1     -11.812   6.807  66.815  1.00  0.00     0.000 HD 
BRANCH  23  26
HETATM   26  C   UNL     1     -10.383   7.016  68.745  1.00  0.00    -0.196 C  
HETATM   27  C   UNL     1      -8.929   6.479  68.791  1.00  0.00    -0.124 C  
HETATM   28  C   UNL     1      -8.721   5.659  70.112  1.00  0.00    -0.140 C  
HETATM   29  C   UNL     1      -8.646   5.572  67.575  1.00  0.00    -0.108 C  
HETATM   30  O   UNL     1      -9.536   4.973  66.978  1.00  0.00    -0.133 OA 
HETATM   31  N   UNL     1      -7.324   5.472  67.182  1.00  0.00    -0.079 N  
HETATM   32  H   UNL     1      -6.590   5.810  67.805  1.00  0.00     0.000 HD 
BRANCH  28  33
HETATM   33  C   UNL     1      -8.837   6.422  71.431  1.00  0.00    -0.138 A  
HETATM   34  C   UNL     1      -9.949   6.262  72.269  1.00  0.00    -0.182 A  
HETATM   35  C   UNL     1      -7.849   7.341  71.818  1.00  0.00    -0.091 A  
HETATM   36  C   UNL     1      -7.960   8.067  73.020  1.00  0.00    -0.207 A  
HETATM   37  C   UNL     1     -10.060   6.987  73.469  1.00  0.00    -0.348 A  
HETATM   38  C   UNL     1      -9.063   7.887  73.845  1.00  0.00    -0.237 A  
ENDBRANCH  28  33
BRANCH  31  39
HETATM   39  C   UNL     1      -6.954   4.884  65.878  1.00  0.00    -0.066 C  
HETATM   40  C   UNL     1      -8.312   5.203  63.773  1.00  0.00    -0.130 C  
HETATM   41  C   UNL     1      -8.567   3.879  64.404  1.00  0.00    -0.104 A  
HETATM   42  H   UNL     1      -7.726   7.714  64.242  1.00  0.00     0.000 HD 
HETATM   43  C   UNL     1      -7.196   5.818  64.645  1.00  0.00    -0.062 C  
HETATM   44  O   UNL     1      -7.580   7.147  64.990  1.00  0.00    -0.089 OA 
HETATM   45  C   UNL     1      -9.431   2.890  63.931  1.00  0.00    -0.122 A  
HETATM   46  C   UNL     1      -9.500   1.682  64.623  1.00  0.00    -0.086 A  
HETATM   47  C   UNL     1      -8.707   1.469  65.754  1.00  0.00    -0.115 A  
HETATM   48  C   UNL     1      -7.857   2.470  66.234  1.00  0.00    -0.080 A  
HETATM   49  C   UNL     1      -7.805   3.688  65.550  1.00  0.00    -0.089 A  
ENDBRANCH  31  39
ENDBRANCH  23  26
ENDBRANCH  22  23
ENDBRANCH  12  22
ENDBRANCH   6   9
TORSDOF 8
ENDMDL
MODEL      108
REMARK 921   NORMALIZED FREE ENERGY PREDICTED BY IDOCK:   -4.06 KCAL/MOL
REMARK 922        TOTAL FREE ENERGY PREDICTED BY IDOCK:   -7.93 KCAL/MOL
REMARK 923 INTER-LIGAND FREE ENERGY PREDICTED BY IDOCK:   -9.15 KCAL/MOL
REMARK 924 INTRA-LIGAND FREE ENERGY PREDICTED BY IDOCK:    1.22 KCAL/MOL
REMARK 927      BINDING AFFINITY PREDICTED BY RF-SCORE:    0.00 PKD
ROOT
HETATM    1  C   UNL     1      -9.795   9.296  71.080  1.00  0.00    -0.342 C  
HETATM    2  C   UNL     1     -11.181   9.080  70.465  1.00  0.00    -0.260 C  
HETATM    3  N   UNL     1     -11.566  10.085  69.424  1.00  0.00    -0.459 N  
HETATM    4  C   UNL     1     -12.202   9.218  71.630  1.00  0.00    -0.445 C  
HETATM    5  C   UNL     1     -11.302   7.636  69.954  1.00  0.00    -0.017 C  
HETATM    6  C   UNL     1     -11.173  10.497  68.179  1.00  0.00    -0.293 C  
HETATM    7  H   UNL     1     -12.367  10.631  69.740  1.00  0.00     0.000 HD 
HETATM    8  O   UNL     1     -12.008  11.185  67.573  1.00  0.00    -0.580 OA 
ENDROOT
BRANCH   6   9
HETATM    9  C   UNL     1      -9.796  10.234  67.543  1.00  0.00    -0.173 C  
HETATM   10  C   UNL     1      -8.757   9.359  68.350  1.00  0.00    -0.124 C  
HETATM   11  N   UNL     1      -7.683   8.831  67.448  1.00  0.00    -0.096 NA 
HETATM   12  N   UNL     1      -9.158  11.456  66.976  1.00  0.00    -0.164 NA 
HETATM   13  C   UNL     1      -7.165   9.900  66.549  1.00  0.00    -0.095 C  
HETATM   14  C   UNL     1      -8.212  10.893  65.969  1.00  0.00    -0.155 C  
BRANCH  11  15
HETATM   15  C   UNL     1      -6.525   8.252  68.170  1.00  0.00    -0.056 C  
BRANCH  15  16
HETATM   16  C   UNL     1      -6.808   7.297  69.302  1.00  0.00    -0.054 A  
HETATM   17  C   UNL     1      -7.641   6.199  69.107  1.00  0.00    -0.095 A  
HETATM   18  N   UNL     1      -8.073   5.373  70.092  1.00  0.00    -0.087 NA 
HETATM   19  C   UNL     1      -6.821   6.718  71.651  1.00  0.00    -0.066 A  
HETATM   20  C   UNL     1      -7.654   5.655  71.342  1.00  0.00    -0.104 A  
HETATM   21  C   UNL     1      -6.396   7.550  70.613  1.00  0.00    -0.038 A  
ENDBRANCH  15  16
ENDBRANCH  11  15
BRANCH  12  22
HETATM   22  C   UNL     1      -8.399  12.370  67.908  1.00  0.00    -0.165 C  
BRANCH  22  23
HETATM   23  C   UNL     1      -8.725  13.893  67.948  1.00  0.00    -0.184 C  
HETATM   24  O   UNL     1      -9.885  14.134  67.135  1.00  0.00    -0.243 OA 
HETATM   25  H   UNL     1     -10.084  15.063  67.159  1.00  0.00     0.000 HD 
BRANCH  23  26
HETATM   26  C   UNL     1      -9.163  14.498  69.313  1.00  0.00     0.102 C  
HETATM   27  C   UNL     1      -9.949  15.832  69.389  1.00  0.00    -0.274 C  
HETATM   28  C   UNL     1     -10.615  15.963  70.802  1.00  0.00     0.093 C  
HETATM   29  C   UNL     1      -9.007  17.031  69.153  1.00  0.00    -0.050 C  
HETATM   30  O   UNL     1      -7.802  16.978  69.384  1.00  0.00    -0.067 OA 
HETATM   31  N   UNL     1      -9.594  18.181  68.657  1.00  0.00    -0.330 N  
HETATM   32  H   UNL     1     -10.610  18.266  68.663  1.00  0.00     0.000 HD 
BRANCH  28  33
HETATM   33  C   UNL     1     -11.678  14.927  71.170  1.00  0.00    -0.377 A  
HETATM   34  C   UNL     1     -11.895  13.793  70.376  1.00  0.00    -0.323 A  
HETATM   35  C   UNL     1     -12.499  15.109  72.294  1.00  0.00    -0.431 A  
HETATM   36  C   UNL     1     -13.497  14.173  72.627  1.00  0.00    -0.634 A  
HETATM   37  C   UNL     1     -12.892  12.858  70.708  1.00  0.00    -0.128 A  
HETATM   38  C   UNL     1     -13.690  13.048  71.835  1.00  0.00    -0.309 A  
ENDBRANCH  28  33
BRANCH  31  39
HETATM   39  C   UNL     1      -8.776  19.287  68.117  1.00  0.00    -0.331 C  
HETATM   40  C   UNL     1      -8.882  20.050  65.712  1.00  0.00     0.009 C  
HETATM   41  C   UNL     1      -7.702  19.178  65.968  1.00  0.00    -0.267 A  
HETATM   42  H   UNL     1     -11.371  20.524  66.379  1.00  0.00     0.000 HD 
HETATM   43  C   UNL     1      -9.522  20.222  67.106  1.00  0.00    -0.422 C  
HETATM   44  O   UNL     1     -10.919  19.957  66.992  1.00  0.00    -0.376 OA 
HETATM   45  C   UNL     1      -6.734  18.801  65.036  1.00  0.00     0.061 A  
HETATM   46  C   UNL     1      -5.662  18.023  65.469  1.00  0.00    -0.180 A  
HETATM   47  C   UNL     1      -5.559  17.647  66.811  1.00  0.00    -0.194 A  
HETATM   48  C   UNL     1      -6.542  18.011  67.736  1.00  0.00    -0.189 A  
HETATM   49  C   UNL     1      -7.627  18.774  67.295  1.00  0.00    -0.232 A  
ENDBRANCH  31  39
ENDBRANCH  23  26
ENDBRANCH  22  23
ENDBRANCH  12  22
ENDBRANCH   6   9
TORSDOF 8
ENDMDL
MODEL      109
REMARK 921   NORMALIZED FREE ENERGY PREDICTED BY IDOCK:   -4.04 KCAL/MOL
REMARK 922        TOTAL FREE ENERGY PREDICTED BY IDOCK:   -7.90 KCAL/MOL
REMARK 923 INTER-LIGAND FREE ENERGY PREDICTED BY IDOCK:   -4.81 KCAL/MOL
REMARK 924 INTRA-LIGAND FREE ENERGY PREDICTED BY IDOCK:   -3.09 KCAL/MOL
REMARK 927      BINDING AFFINITY PREDICTED BY RF-SCORE:    0.00 PKD
ROOT
HETATM    1  C   UNL     1     -13.378  10.192  69.933  1.00  0.00     0.882 C  
HETATM    2  C   UNL     1     -12.406  10.908  70.875  1.00  0.00    -0.400 C  
HETATM    3  N   UNL     1     -11.484  10.001  71.629  1.00  0.00    -0.167 N  
HETATM    4  C   UNL     1     -13.283  11.643  71.930  1.00  0.00    -0.475 C  
HETATM    5  C   UNL     1     -11.649  12.001  70.106  1.00  0.00    -0.228 C  
HETATM    6  C   UNL     1     -10.464   9.119  71.389  1.00  0.00    -0.344 C  
HETATM    7  H   UNL     1     -11.674  10.057  72.630  1.00  0.00     0.000 HD 
HETATM    8  O   UNL     1      -9.790   8.822  72.387  1.00  0.00    -0.284 OA 
ENDROOT
BRANCH   6   9
HETATM    9  C   UNL     1     -10.162   8.450  70.037  1.00  0.00    -0.202 C  
HETATM   10  C   UNL     1     -10.303   6.879  69.934  1.00  0.00    -0.205 C  
HETATM   11  N   UNL     1     -10.416   6.441  68.506  1.00  0.00    -0.199 NA 
HETATM   12  N   UNL     1      -8.900   8.928  69.403  1.00  0.00    -0.141 NA 
HETATM   13  C   UNL     1      -9.400   7.121  67.654  1.00  0.00    -0.127 C  
HETATM   14  C   UNL     1      -9.122   8.619  67.961  1.00  0.00    -0.140 C  
BRANCH  11  15
HETATM   15  C   UNL     1     -10.259   4.980  68.311  1.00  0.00    -0.073 C  
BRANCH  15  16
HETATM   16  C   UNL     1     -10.097   4.472  66.900  1.00  0.00    -0.200 A  
HETATM   17  C   UNL     1     -10.909   4.959  65.878  1.00  0.00    -0.082 A  
HETATM   18  N   UNL     1     -10.942   4.463  64.617  1.00  0.00    -0.089 NA 
HETATM   19  C   UNL     1      -9.273   2.862  65.294  1.00  0.00    -0.139 A  
HETATM   20  C   UNL     1     -10.125   3.423  64.356  1.00  0.00    -0.151 A  
HETATM   21  C   UNL     1      -9.264   3.396  66.584  1.00  0.00    -0.186 A  
ENDBRANCH  15  16
ENDBRANCH  11  15
BRANCH  12  22
HETATM   22  C   UNL     1      -7.594   8.310  69.845  1.00  0.00    -0.080 C  
BRANCH  22  23
HETATM   23  C   UNL     1      -6.282   8.608  69.061  1.00  0.00    -0.044 C  
HETATM   24  O   UNL     1      -5.214   8.783  70.006  1.00  0.00    -0.028 OA 
HETATM   25  H   UNL     1      -4.413   8.965  69.527  1.00  0.00     0.000 HD 
BRANCH  23  26
HETATM   26  C   UNL     1      -5.718   7.479  68.150  1.00  0.00    -0.027 C  
HETATM   27  C   UNL     1      -6.423   6.103  68.042  1.00  0.00    -0.049 C  
HETATM   28  C   UNL     1      -5.904   5.352  66.766  1.00  0.00    -0.018 C  
HETATM   29  C   UNL     1      -6.133   5.246  69.293  1.00  0.00    -0.025 C  
HETATM   30  O   UNL     1      -5.131   5.406  69.984  1.00  0.00    -0.004 OA 
HETATM   31  N   UNL     1      -7.075   4.281  69.603  1.00  0.00    -0.049 N  
HETATM   32  H   UNL     1      -7.784   4.034  68.913  1.00  0.00     0.000 HD 
BRANCH  28  33
HETATM   33  C   UNL     1      -6.210   5.991  65.411  1.00  0.00    -0.037 A  
HETATM   34  C   UNL     1      -7.500   5.955  64.864  1.00  0.00    -0.077 A  
HETATM   35  C   UNL     1      -5.192   6.595  64.656  1.00  0.00    -0.026 A  
HETATM   36  C   UNL     1      -5.459   7.164  63.396  1.00  0.00    -0.033 A  
HETATM   37  C   UNL     1      -7.767   6.524  63.605  1.00  0.00    -0.114 A  
HETATM   38  C   UNL     1      -6.746   7.130  62.874  1.00  0.00    -0.053 A  
ENDBRANCH  28  33
BRANCH  31  39
HETATM   39  C   UNL     1      -7.071   3.601  70.916  1.00  0.00    -0.033 C  
HETATM   40  C   UNL     1      -8.640   1.714  71.510  1.00  0.00    -0.076 C  
HETATM   41  C   UNL     1      -9.092   3.014  72.078  1.00  0.00    -0.145 A  
HETATM   42  H   UNL     1      -7.413   0.578  69.492  1.00  0.00     0.000 HD 
HETATM   43  C   UNL     1      -7.284   2.051  70.853  1.00  0.00    -0.033 C  
HETATM   44  O   UNL     1      -7.284   1.519  69.530  1.00  0.00    -0.036 OA 
HETATM   45  C   UNL     1     -10.230   3.224  72.859  1.00  0.00    -0.235 A  
HETATM   46  C   UNL     1     -10.467   4.505  73.357  1.00  0.00    -0.264 A  
HETATM   47  C   UNL     1      -9.572   5.544  73.087  1.00  0.00    -0.158 A  
HETATM   48  C   UNL     1      -8.445   5.332  72.288  1.00  0.00    -0.125 A  
HETATM   49  C   UNL     1      -8.221   4.052  71.773  1.00  0.00    -0.090 A  
ENDBRANCH  31  39
ENDBRANCH  23  26
ENDBRANCH  22  23
ENDBRANCH  12  22
ENDBRANCH   6   9
TORSDOF 8
ENDMDL
MODEL      110
REMARK 921   NORMALIZED FREE ENERGY PREDICTED BY IDOCK:   -4.02 KCAL/MOL
REMARK 922        TOTAL FREE ENERGY PREDICTED BY IDOCK:   -7.87 KCAL/MOL
REMARK 923 INTER-LIGAND FREE ENERGY PREDICTED BY IDOCK:   -6.55 KCAL/MOL
REMARK 924 INTRA-LIGAND FREE ENERGY PREDICTED BY IDOCK:   -1.32 KCAL/MOL
REMARK 927      BINDING AFFINITY PREDICTED BY RF-SCORE:    0.00 PKD
ROOT
HETATM    1  C   UNL     1     -13.225   9.970  69.733  1.00  0.00     1.110 C  
HETATM    2  C   UNL     1     -12.769  10.042  71.194  1.00  0.00    -0.387 C  
HETATM    3  N   UNL     1     -11.459   9.372  71.473  1.00  0.00    -0.376 N  
HETATM    4  C   UNL     1     -13.849   9.293  72.026  1.00  0.00    -0.446 C  
HETATM    5  C   UNL     1     -12.790  11.502  71.672  1.00  0.00    -0.475 C  
HETATM    6  C   UNL     1     -10.135   9.495  71.144  1.00  0.00    -0.192 C  
HETATM    7  H   UNL     1     -11.595   8.580  72.101  1.00  0.00     0.000 HD 
HETATM    8  O   UNL     1      -9.358   8.867  71.878  1.00  0.00    -0.284 OA 
ENDROOT
BRANCH   6   9
HETATM    9  C   UNL     1      -9.583  10.268  69.933  1.00  0.00    -0.035 C  
HETATM   10  C   UNL     1     -10.421  10.253  68.593  1.00  0.00    -0.193 C  
HETATM   11  N   UNL     1     -10.008  11.373  67.688  1.00  0.00    -0.178 NA 
HETATM   12  N   UNL     1      -8.136  10.020  69.676  1.00  0.00    -0.159 NA 
HETATM   13  C   UNL     1      -8.523  11.470  67.598  1.00  0.00    -0.135 C  
HETATM   14  C   UNL     1      -7.727  11.234  68.912  1.00  0.00    -0.125 C  
BRANCH  11  15
HETATM   15  C   UNL     1     -10.533  11.254  66.307  1.00  0.00    -0.258 C  
BRANCH  15  16
HETATM   16  C   UNL     1     -11.107  12.492  65.664  1.00  0.00    -0.338 A  
HETATM   17  C   UNL     1     -10.267  13.512  65.225  1.00  0.00    -0.306 A  
HETATM   18  N   UNL     1     -10.690  14.719  64.773  1.00  0.00    -0.399 NA 
HETATM   19  C   UNL     1     -12.949  13.980  65.169  1.00  0.00    -0.260 A  
HETATM   20  C   UNL     1     -12.022  14.924  64.760  1.00  0.00    -0.361 A  
HETATM   21  C   UNL     1     -12.480  12.747  65.630  1.00  0.00    -0.341 A  
ENDBRANCH  15  16
ENDBRANCH  11  15
BRANCH  12  22
HETATM   22  C   UNL     1      -7.745   8.789  68.894  1.00  0.00    -0.095 C  
BRANCH  22  23
HETATM   23  C   UNL     1      -6.359   8.119  69.130  1.00  0.00    -0.039 C  
HETATM   24  O   UNL     1      -6.306   7.643  70.485  1.00  0.00    -0.037 OA 
HETATM   25  H   UNL     1      -5.460   7.234  70.629  1.00  0.00     0.000 HD 
BRANCH  23  26
HETATM   26  C   UNL     1      -6.042   6.824  68.326  1.00  0.00    -0.029 C  
HETATM   27  C   UNL     1      -7.026   5.627  68.305  1.00  0.00    -0.068 C  
HETATM   28  C   UNL     1      -6.667   4.681  67.107  1.00  0.00    -0.051 C  
HETATM   29  C   UNL     1      -6.945   4.834  69.626  1.00  0.00    -0.053 C  
HETATM   30  O   UNL     1      -5.941   4.831  70.332  1.00  0.00    -0.016 OA 
HETATM   31  N   UNL     1      -8.077   4.123  69.982  1.00  0.00    -0.058 N  
HETATM   32  H   UNL     1      -8.815   3.979  69.293  1.00  0.00     0.000 HD 
BRANCH  28  33
HETATM   33  C   UNL     1      -6.811   5.257  65.698  1.00  0.00    -0.061 A  
HETATM   34  C   UNL     1      -5.883   4.958  64.691  1.00  0.00    -0.017 A  
HETATM   35  C   UNL     1      -7.857   6.139  65.386  1.00  0.00    -0.106 A  
HETATM   36  C   UNL     1      -7.984   6.695  64.098  1.00  0.00    -0.084 A  
HETATM   37  C   UNL     1      -6.009   5.512  63.404  1.00  0.00    -0.021 A  
HETATM   38  C   UNL     1      -7.061   6.378  63.108  1.00  0.00    -0.050 A  
ENDBRANCH  28  33
BRANCH  31  39
HETATM   39  C   UNL     1      -8.237   3.568  71.343  1.00  0.00    -0.061 C  
HETATM   40  C   UNL     1     -10.404   2.600  72.204  1.00  0.00    -0.080 C  
HETATM   41  C   UNL     1     -10.181   3.989  72.694  1.00  0.00    -0.232 A  
HETATM   42  H   UNL     1     -10.011   0.953  70.204  1.00  0.00     0.000 HD 
HETATM   43  C   UNL     1      -9.112   2.273  71.425  1.00  0.00    -0.095 C  
HETATM   44  O   UNL     1      -9.481   1.740  70.154  1.00  0.00    -0.107 OA 
HETATM   45  C   UNL     1     -11.025   4.714  73.536  1.00  0.00    -0.395 A  
HETATM   46  C   UNL     1     -10.626   5.987  73.942  1.00  0.00    -0.236 A  
HETATM   47  C   UNL     1      -9.399   6.509  73.522  1.00  0.00    -0.153 A  
HETATM   48  C   UNL     1      -8.567   5.785  72.663  1.00  0.00    -0.120 A  
HETATM   49  C   UNL     1      -8.979   4.518  72.242  1.00  0.00    -0.141 A  
ENDBRANCH  31  39
ENDBRANCH  23  26
ENDBRANCH  22  23
ENDBRANCH  12  22
ENDBRANCH   6   9
TORSDOF 8
ENDMDL
MODEL      111
REMARK 921   NORMALIZED FREE ENERGY PREDICTED BY IDOCK:   -3.82 KCAL/MOL
REMARK 922        TOTAL FREE ENERGY PREDICTED BY IDOCK:   -7.58 KCAL/MOL
REMARK 923 INTER-LIGAND FREE ENERGY PREDICTED BY IDOCK:   -6.09 KCAL/MOL
REMARK 924 INTRA-LIGAND FREE ENERGY PREDICTED BY IDOCK:   -1.49 KCAL/MOL
REMARK 927      BINDING AFFINITY PREDICTED BY RF-SCORE:    0.00 PKD
ROOT
HETATM    1  C   UNL     1     -11.624  10.310  69.190  1.00  0.00    -0.166 C  
HETATM    2  C   UNL     1     -11.304   9.659  70.539  1.00  0.00    -0.296 C  
HETATM    3  N   UNL     1     -11.763   8.240  70.673  1.00  0.00    -0.451 N  
HETATM    4  C   UNL     1     -12.068  10.486  71.614  1.00  0.00    -0.197 C  
HETATM    5  C   UNL     1      -9.809   9.821  70.851  1.00  0.00    -0.018 C  
HETATM    6  C   UNL     1     -11.519   7.011  70.121  1.00  0.00    -0.256 C  
HETATM    7  H   UNL     1     -12.476   8.166  71.398  1.00  0.00     0.000 HD 
HETATM    8  O   UNL     1     -11.943   6.052  70.783  1.00  0.00    -0.016 OA 
ENDROOT
BRANCH   6   9
HETATM    9  C   UNL     1     -10.848   6.760  68.759  1.00  0.00    -0.231 C  
HETATM   10  C   UNL     1     -10.363   5.293  68.425  1.00  0.00    -0.108 C  
HETATM   11  N   UNL     1     -10.155   5.117  66.952  1.00  0.00    -0.201 NA 
HETATM   12  N   UNL     1      -9.810   7.772  68.409  1.00  0.00    -0.164 NA 
HETATM   13  C   UNL     1      -9.398   6.265  66.376  1.00  0.00    -0.151 C  
HETATM   14  C   UNL     1      -9.751   7.677  66.922  1.00  0.00    -0.213 C  
BRANCH  11  15
HETATM   15  C   UNL     1      -9.428   3.876  66.592  1.00  0.00    -0.199 C  
BRANCH  15  16
HETATM   16  C   UNL     1      -9.556   3.373  65.176  1.00  0.00    -0.131 A  
HETATM   17  C   UNL     1     -10.573   3.844  64.349  1.00  0.00    -0.208 A  
HETATM   18  N   UNL     1     -10.860   3.348  63.120  1.00  0.00    -0.203 NA 
HETATM   19  C   UNL     1      -9.057   1.780  63.425  1.00  0.00    -0.089 A  
HETATM   20  C   UNL     1     -10.096   2.324  62.689  1.00  0.00    -0.094 A  
HETATM   21  C   UNL     1      -8.788   2.313  64.688  1.00  0.00    -0.115 A  
ENDBRANCH  15  16
ENDBRANCH  11  15
BRANCH  12  22
HETATM   22  C   UNL     1      -8.419   7.599  68.971  1.00  0.00    -0.132 C  
BRANCH  22  23
HETATM   23  C   UNL     1      -7.559   8.848  69.329  1.00  0.00    -0.082 C  
HETATM   24  O   UNL     1      -6.197   8.427  69.512  1.00  0.00    -0.036 OA 
HETATM   25  H   UNL     1      -5.672   9.189  69.730  1.00  0.00     0.000 HD 
BRANCH  23  26
HETATM   26  C   UNL     1      -7.407   9.950  68.241  1.00  0.00    -0.079 C  
HETATM   27  C   UNL     1      -7.508   9.613  66.731  1.00  0.00    -0.094 C  
HETATM   28  C   UNL     1      -7.751  10.932  65.919  1.00  0.00    -0.073 C  
HETATM   29  C   UNL     1      -6.210   8.939  66.238  1.00  0.00    -0.064 C  
HETATM   30  O   UNL     1      -5.127   9.112  66.789  1.00  0.00    -0.033 OA 
HETATM   31  N   UNL     1      -6.331   8.116  65.133  1.00  0.00    -0.048 N  
HETATM   32  H   UNL     1      -7.187   8.145  64.578  1.00  0.00     0.000 HD 
BRANCH  28  33
HETATM   33  C   UNL     1      -9.058  11.681  66.182  1.00  0.00    -0.209 A  
HETATM   34  C   UNL     1      -9.183  12.572  67.255  1.00  0.00    -0.190 A  
HETATM   35  C   UNL     1     -10.187  11.460  65.376  1.00  0.00    -0.320 A  
HETATM   36  C   UNL     1     -11.402  12.125  65.625  1.00  0.00    -0.395 A  
HETATM   37  C   UNL     1     -10.397  13.238  67.504  1.00  0.00    -0.229 A  
HETATM   38  C   UNL     1     -11.505  13.016  66.687  1.00  0.00    -0.382 A  
ENDBRANCH  28  33
BRANCH  31  39
HETATM   39  C   UNL     1      -5.244   7.193  64.742  1.00  0.00    -0.028 C  
HETATM   40  C   UNL     1      -5.560   5.274  63.132  1.00  0.00    -0.014 C  
HETATM   41  C   UNL     1      -5.565   4.818  64.550  1.00  0.00    -0.014 A  
HETATM   42  H   UNL     1      -6.193   7.241  61.520  1.00  0.00     0.000 HD 
HETATM   43  C   UNL     1      -5.244   6.782  63.231  1.00  0.00    -0.031 C  
HETATM   44  O   UNL     1      -6.194   7.491  62.437  1.00  0.00    -0.064 OA 
HETATM   45  C   UNL     1      -5.711   3.504  64.995  1.00  0.00    -0.017 A  
HETATM   46  C   UNL     1      -5.632   3.253  66.364  1.00  0.00    -0.018 A  
HETATM   47  C   UNL     1      -5.395   4.299  67.260  1.00  0.00    -0.012 A  
HETATM   48  C   UNL     1      -5.268   5.616  66.810  1.00  0.00    -0.005 A  
HETATM   49  C   UNL     1      -5.369   5.867  65.439  1.00  0.00    -0.013 A  
ENDBRANCH  31  39
ENDBRANCH  23  26
ENDBRANCH  22  23
ENDBRANCH  12  22
ENDBRANCH   6   9
TORSDOF 8
ENDMDL
MODEL      112
REMARK 921   NORMALIZED FREE ENERGY PREDICTED BY IDOCK:   -3.78 KCAL/MOL
REMARK 922        TOTAL FREE ENERGY PREDICTED BY IDOCK:   -7.51 KCAL/MOL
REMARK 923 INTER-LIGAND FREE ENERGY PREDICTED BY IDOCK:   -6.79 KCAL/MOL
REMARK 924 INTRA-LIGAND FREE ENERGY PREDICTED BY IDOCK:   -0.71 KCAL/MOL
REMARK 927      BINDING AFFINITY PREDICTED BY RF-SCORE:    0.00 PKD
ROOT
HETATM    1  C   UNL     1     -10.101   5.505  68.249  1.00  0.00    -0.226 C  
HETATM    2  C   UNL     1      -9.322   4.880  67.088  1.00  0.00    -0.130 C  
HETATM    3  N   UNL     1      -7.900   5.336  66.971  1.00  0.00    -0.100 N  
HETATM    4  C   UNL     1     -10.049   5.322  65.786  1.00  0.00    -0.031 C  
HETATM    5  C   UNL     1      -9.440   3.349  67.150  1.00  0.00    -0.199 C  
HETATM    6  C   UNL     1      -6.727   5.279  67.676  1.00  0.00    -0.055 C  
HETATM    7  H   UNL     1      -7.764   5.847  66.099  1.00  0.00     0.000 HD 
HETATM    8  O   UNL     1      -5.713   5.554  67.017  1.00  0.00    -0.016 OA 
ENDROOT
BRANCH   6   9
HETATM    9  C   UNL     1      -6.601   4.979  69.179  1.00  0.00    -0.047 C  
HETATM   10  C   UNL     1      -7.531   3.860  69.797  1.00  0.00    -0.052 C  
HETATM   11  N   UNL     1      -6.997   3.383  71.114  1.00  0.00    -0.032 NA 
HETATM   12  N   UNL     1      -6.577   6.202  70.032  1.00  0.00    -0.043 NA 
HETATM   13  C   UNL     1      -6.596   4.530  71.976  1.00  0.00    -0.023 C  
HETATM   14  C   UNL     1      -5.894   5.724  71.269  1.00  0.00    -0.025 C  
BRANCH  11  15
HETATM   15  C   UNL     1      -7.954   2.556  71.886  1.00  0.00    -0.053 C  
BRANCH  15  16
HETATM   16  C   UNL     1      -9.144   3.249  72.502  1.00  0.00    -0.128 A  
HETATM   17  C   UNL     1      -9.893   4.158  71.759  1.00  0.00    -0.182 A  
HETATM   18  N   UNL     1     -10.882   4.937  72.262  1.00  0.00    -0.152 NA 
HETATM   19  C   UNL     1     -10.461   3.933  74.412  1.00  0.00    -0.269 A  
HETATM   20  C   UNL     1     -11.139   4.808  73.580  1.00  0.00    -0.335 A  
HETATM   21  C   UNL     1      -9.447   3.145  73.862  1.00  0.00    -0.116 A  
ENDBRANCH  15  16
ENDBRANCH  11  15
BRANCH  12  22
HETATM   22  C   UNL     1      -7.893   6.840  70.410  1.00  0.00    -0.109 C  
BRANCH  22  23
HETATM   23  C   UNL     1      -7.925   8.024  71.422  1.00  0.00    -0.102 C  
HETATM   24  O   UNL     1      -6.782   8.862  71.183  1.00  0.00    -0.066 OA 
HETATM   25  H   UNL     1      -6.802   9.584  71.800  1.00  0.00     0.000 HD 
BRANCH  23  26
HETATM   26  C   UNL     1      -9.096   9.043  71.297  1.00  0.00    -0.302 C  
HETATM   27  C   UNL     1      -9.781   9.321  69.935  1.00  0.00    -0.220 C  
HETATM   28  C   UNL     1     -11.160  10.026  70.181  1.00  0.00    -0.371 C  
HETATM   29  C   UNL     1      -8.892  10.226  69.056  1.00  0.00    -0.168 C  
HETATM   30  O   UNL     1      -8.063  10.997  69.530  1.00  0.00    -0.003 OA 
HETATM   31  N   UNL     1      -9.075  10.120  67.688  1.00  0.00    -0.137 N  
HETATM   32  H   UNL     1      -9.895   9.630  67.330  1.00  0.00     0.000 HD 
BRANCH  28  33
HETATM   33  C   UNL     1     -12.225   9.228  70.933  1.00  0.00    -0.264 A  
HETATM   34  C   UNL     1     -12.392   7.854  70.718  1.00  0.00     0.004 A  
HETATM   35  C   UNL     1     -13.097   9.864  71.831  1.00  0.00    -0.559 A  
HETATM   36  C   UNL     1     -14.098   9.143  72.511  1.00  0.00    -0.387 A  
HETATM   37  C   UNL     1     -13.391   7.133  71.397  1.00  0.00    -0.380 A  
HETATM   38  C   UNL     1     -14.241   7.778  72.295  1.00  0.00    -0.221 A  
ENDBRANCH  28  33
BRANCH  31  39
HETATM   39  C   UNL     1      -8.104  10.701  66.738  1.00  0.00    -0.131 C  
HETATM   40  C   UNL     1      -5.700  11.194  67.332  1.00  0.00    -0.052 C  
HETATM   41  C   UNL     1      -6.545  12.420  67.365  1.00  0.00    -0.157 A  
HETATM   42  H   UNL     1      -5.677   8.606  67.742  1.00  0.00     0.000 HD 
HETATM   43  C   UNL     1      -6.661  10.099  66.823  1.00  0.00    -0.073 C  
HETATM   44  O   UNL     1      -6.553   8.972  67.690  1.00  0.00    -0.060 OA 
HETATM   45  C   UNL     1      -6.115  13.713  67.670  1.00  0.00    -0.108 A  
HETATM   46  C   UNL     1      -7.037  14.755  67.594  1.00  0.00    -0.206 A  
HETATM   47  C   UNL     1      -8.356  14.504  67.205  1.00  0.00    -0.232 A  
HETATM   48  C   UNL     1      -8.786  13.205  66.920  1.00  0.00    -0.156 A  
HETATM   49  C   UNL     1      -7.864  12.159  67.017  1.00  0.00    -0.123 A  
ENDBRANCH  31  39
ENDBRANCH  23  26
ENDBRANCH  22  23
ENDBRANCH  12  22
ENDBRANCH   6   9
TORSDOF 8
ENDMDL
MODEL      113
REMARK 921   NORMALIZED FREE ENERGY PREDICTED BY IDOCK:   -3.69 KCAL/MOL
REMARK 922        TOTAL FREE ENERGY PREDICTED BY IDOCK:   -7.39 KCAL/MOL
REMARK 923 INTER-LIGAND FREE ENERGY PREDICTED BY IDOCK:   -7.94 KCAL/MOL
REMARK 924 INTRA-LIGAND FREE ENERGY PREDICTED BY IDOCK:    0.55 KCAL/MOL
REMARK 927      BINDING AFFINITY PREDICTED BY RF-SCORE:    0.00 PKD
ROOT
HETATM    1  C   UNL     1     -10.946   5.217  70.557  1.00  0.00     0.023 C  
HETATM    2  C   UNL     1      -9.771   5.330  69.580  1.00  0.00    -0.178 C  
HETATM    3  N   UNL     1      -9.996   6.274  68.439  1.00  0.00    -0.133 N  
HETATM    4  C   UNL     1      -9.578   3.914  68.966  1.00  0.00    -0.209 C  
HETATM    5  C   UNL     1      -8.482   5.646  70.353  1.00  0.00    -0.127 C  
HETATM    6  C   UNL     1     -10.196   7.611  68.218  1.00  0.00    -0.195 C  
HETATM    7  H   UNL     1     -10.003   5.765  67.556  1.00  0.00     0.000 HD 
HETATM    8  O   UNL     1     -10.032   7.972  67.043  1.00  0.00    -0.202 OA 
ENDROOT
BRANCH   6   9
HETATM    9  C   UNL     1     -10.660   8.632  69.271  1.00  0.00    -0.192 C  
HETATM   10  C   UNL     1     -11.166  10.043  68.770  1.00  0.00    -0.122 C  
HETATM   11  N   UNL     1     -11.978  10.729  69.826  1.00  0.00    -0.315 NA 
HETATM   12  N   UNL     1      -9.727   8.764  70.426  1.00  0.00    -0.172 NA 
HETATM   13  C   UNL     1     -11.310  10.644  71.155  1.00  0.00     0.298 C  
HETATM   14  C   UNL     1     -10.612   9.299  71.501  1.00  0.00    -0.335 C  
BRANCH  11  15
HETATM   15  C   UNL     1     -12.239  12.161  69.547  1.00  0.00    -0.109 C  
BRANCH  15  16
HETATM   16  C   UNL     1     -12.421  13.085  70.725  1.00  0.00    -0.384 A  
HETATM   17  C   UNL     1     -13.365  12.798  71.707  1.00  0.00    -0.342 A  
HETATM   18  N   UNL     1     -13.706  13.634  72.719  1.00  0.00    -0.695 NA 
HETATM   19  C   UNL     1     -12.117  15.214  71.834  1.00  0.00    -0.448 A  
HETATM   20  C   UNL     1     -13.074  14.824  72.755  1.00  0.00    -0.474 A  
HETATM   21  C   UNL     1     -11.790  14.329  70.803  1.00  0.00    -0.336 A  
ENDBRANCH  15  16
ENDBRANCH  11  15
BRANCH  12  22
HETATM   22  C   UNL     1      -8.526   9.668  70.280  1.00  0.00    -0.188 C  
BRANCH  22  23
HETATM   23  C   UNL     1      -7.532   9.464  69.098  1.00  0.00    -0.073 C  
HETATM   24  O   UNL     1      -7.277   8.057  68.953  1.00  0.00    -0.072 OA 
HETATM   25  H   UNL     1      -6.670   7.933  68.232  1.00  0.00     0.000 HD 
BRANCH  23  26
HETATM   26  C   UNL     1      -8.025   9.845  67.672  1.00  0.00    -0.109 C  
HETATM   27  C   UNL     1      -7.232  10.837  66.783  1.00  0.00    -0.128 C  
HETATM   28  C   UNL     1      -7.705  10.694  65.295  1.00  0.00    -0.021 C  
HETATM   29  C   UNL     1      -7.458  12.289  67.255  1.00  0.00    -0.147 C  
HETATM   30  O   UNL     1      -8.465  12.634  67.867  1.00  0.00    -0.152 OA 
HETATM   31  N   UNL     1      -6.453  13.192  66.957  1.00  0.00    -0.081 N  
HETATM   32  H   UNL     1      -5.732  12.933  66.284  1.00  0.00     0.000 HD 
BRANCH  28  33
HETATM   33  C   UNL     1      -7.449   9.352  64.609  1.00  0.00    -0.108 A  
HETATM   34  C   UNL     1      -8.274   8.896  63.572  1.00  0.00    -0.177 A  
HETATM   35  C   UNL     1      -6.401   8.519  65.031  1.00  0.00    -0.060 A  
HETATM   36  C   UNL     1      -6.172   7.270  64.422  1.00  0.00    -0.037 A  
HETATM   37  C   UNL     1      -8.045   7.648  62.963  1.00  0.00    -0.073 A  
HETATM   38  C   UNL     1      -6.992   6.838  63.387  1.00  0.00    -0.056 A  
ENDBRANCH  28  33
BRANCH  31  39
HETATM   39  C   UNL     1      -6.406  14.524  67.595  1.00  0.00    -0.107 C  
HETATM   40  C   UNL     1      -7.242  14.977  69.934  1.00  0.00    -0.088 C  
HETATM   41  C   UNL     1      -8.224  15.404  68.899  1.00  0.00    -0.192 A  
HETATM   42  H   UNL     1      -5.383  13.225  70.519  1.00  0.00     0.000 HD 
HETATM   43  C   UNL     1      -6.021  14.511  69.113  1.00  0.00    -0.094 C  
HETATM   44  O   UNL     1      -5.617  13.232  69.598  1.00  0.00    -0.088 OA 
HETATM   45  C   UNL     1      -9.466  15.996  69.132  1.00  0.00    -0.253 A  
HETATM   46  C   UNL     1     -10.233  16.386  68.035  1.00  0.00    -0.264 A  
HETATM   47  C   UNL     1      -9.753  16.198  66.736  1.00  0.00    -0.255 A  
HETATM   48  C   UNL     1      -8.517  15.586  66.508  1.00  0.00    -0.283 A  
HETATM   49  C   UNL     1      -7.759  15.178  67.610  1.00  0.00    -0.186 A  
ENDBRANCH  31  39
ENDBRANCH  23  26
ENDBRANCH  22  23
ENDBRANCH  12  22
ENDBRANCH   6   9
TORSDOF 8
ENDMDL
MODEL      114
REMARK 921   NORMALIZED FREE ENERGY PREDICTED BY IDOCK:   -3.69 KCAL/MOL
REMARK 922        TOTAL FREE ENERGY PREDICTED BY IDOCK:   -7.38 KCAL/MOL
REMARK 923 INTER-LIGAND FREE ENERGY PREDICTED BY IDOCK:   -6.20 KCAL/MOL
REMARK 924 INTRA-LIGAND FREE ENERGY PREDICTED BY IDOCK:   -1.19 KCAL/MOL
REMARK 927      BINDING AFFINITY PREDICTED BY RF-SCORE:    0.00 PKD
ROOT
HETATM    1  C   UNL     1     -12.157  14.209  73.124  1.00  0.00     0.344 C  
HETATM    2  C   UNL     1     -12.305  14.851  71.741  1.00  0.00    -0.343 C  
HETATM    3  N   UNL     1     -11.436  14.251  70.678  1.00  0.00    -0.515 N  
HETATM    4  C   UNL     1     -11.868  16.336  71.900  1.00  0.00    -0.538 C  
HETATM    5  C   UNL     1     -13.787  14.877  71.337  1.00  0.00    -0.537 C  
HETATM    6  C   UNL     1     -11.272  13.065  70.014  1.00  0.00     0.273 C  
HETATM    7  H   UNL     1     -10.759  14.938  70.347  1.00  0.00     0.000 HD 
HETATM    8  O   UNL     1     -10.595  13.140  68.978  1.00  0.00    -0.176 OA 
ENDROOT
BRANCH   6   9
HETATM    9  C   UNL     1     -11.788  11.696  70.490  1.00  0.00    -0.231 C  
HETATM   10  C   UNL     1     -10.732  10.637  71.001  1.00  0.00     1.136 C  
HETATM   11  N   UNL     1     -11.393   9.571  71.823  1.00  0.00    -0.330 NA 
HETATM   12  N   UNL     1     -12.779  11.076  69.563  1.00  0.00    -0.184 NA 
HETATM   13  C   UNL     1     -12.633   9.077  71.161  1.00  0.00    -0.211 C  
HETATM   14  C   UNL     1     -13.521  10.141  70.457  1.00  0.00     0.204 C  
BRANCH  11  15
HETATM   15  C   UNL     1     -10.529   8.397  72.089  1.00  0.00    -0.326 C  
BRANCH  15  16
HETATM   16  C   UNL     1     -10.230   7.468  70.939  1.00  0.00    -0.193 A  
HETATM   17  C   UNL     1      -8.977   7.478  70.332  1.00  0.00    -0.152 A  
HETATM   18  N   UNL     1      -8.660   6.794  69.205  1.00  0.00    -0.131 NA 
HETATM   19  C   UNL     1     -10.925   5.974  69.169  1.00  0.00    -0.429 A  
HETATM   20  C   UNL     1      -9.645   6.060  68.648  1.00  0.00    -0.125 A  
HETATM   21  C   UNL     1     -11.219   6.692  70.330  1.00  0.00    -0.408 A  
ENDBRANCH  15  16
ENDBRANCH  11  15
BRANCH  12  22
HETATM   22  C   UNL     1     -12.264  10.313  68.367  1.00  0.00     1.371 C  
BRANCH  22  23
HETATM   23  C   UNL     1     -10.867  10.647  67.767  1.00  0.00    -0.286 C  
HETATM   24  O   UNL     1     -10.045   9.470  67.838  1.00  0.00    -0.171 OA 
HETATM   25  H   UNL     1      -9.192   9.674  67.472  1.00  0.00     0.000 HD 
BRANCH  23  26
HETATM   26  C   UNL     1     -10.800  10.988  66.249  1.00  0.00    -0.234 C  
HETATM   27  C   UNL     1     -10.031  12.233  65.736  1.00  0.00    -0.273 C  
HETATM   28  C   UNL     1      -9.769  12.083  64.197  1.00  0.00    -0.123 C  
HETATM   29  C   UNL     1     -10.845  13.518  65.995  1.00  0.00    -0.278 C  
HETATM   30  O   UNL     1     -12.068  13.514  66.101  1.00  0.00    -0.396 OA 
HETATM   31  N   UNL     1     -10.118  14.689  66.109  1.00  0.00    -0.286 N  
HETATM   32  H   UNL     1      -9.140  14.700  65.821  1.00  0.00     0.000 HD 
BRANCH  28  33
HETATM   33  C   UNL     1      -8.871  10.929  63.753  1.00  0.00    -0.070 A  
HETATM   34  C   UNL     1      -9.349   9.918  62.909  1.00  0.00    -0.232 A  
HETATM   35  C   UNL     1      -7.549  10.828  64.216  1.00  0.00     0.324 A  
HETATM   36  C   UNL     1      -6.722   9.756  63.832  1.00  0.00    -0.120 A  
HETATM   37  C   UNL     1      -8.522   8.846  62.525  1.00  0.00    -0.207 A  
HETATM   38  C   UNL     1      -7.208   8.768  62.985  1.00  0.00    -0.093 A  
ENDBRANCH  28  33
BRANCH  31  39
HETATM   39  C   UNL     1     -10.732  15.924  66.640  1.00  0.00    -0.270 C  
HETATM   40  C   UNL     1     -10.380  18.205  65.616  1.00  0.00    -0.039 C  
HETATM   41  C   UNL     1      -9.529  17.998  66.820  1.00  0.00    -0.293 A  
HETATM   42  H   UNL     1     -11.490  17.023  63.558  1.00  0.00     0.000 HD 
HETATM   43  C   UNL     1     -11.241  16.926  65.550  1.00  0.00     0.319 C  
HETATM   44  O   UNL     1     -11.181  16.415  64.219  1.00  0.00    -0.861 OA 
HETATM   45  C   UNL     1      -8.634  18.918  67.369  1.00  0.00    -0.293 A  
HETATM   46  C   UNL     1      -7.961  18.573  68.540  1.00  0.00    -0.346 A  
HETATM   47  C   UNL     1      -8.194  17.338  69.151  1.00  0.00     0.008 A  
HETATM   48  C   UNL     1      -9.076  16.412  68.586  1.00  0.00    -0.233 A  
HETATM   49  C   UNL     1      -9.735  16.753  67.401  1.00  0.00    -0.245 A  
ENDBRANCH  31  39
ENDBRANCH  23  26
ENDBRANCH  22  23
ENDBRANCH  12  22
ENDBRANCH   6   9
TORSDOF 8
ENDMDL
MODEL      115
REMARK 921   NORMALIZED FREE ENERGY PREDICTED BY IDOCK:   -3.62 KCAL/MOL
REMARK 922        TOTAL FREE ENERGY PREDICTED BY IDOCK:   -7.28 KCAL/MOL
REMARK 923 INTER-LIGAND FREE ENERGY PREDICTED BY IDOCK:   -5.77 KCAL/MOL
REMARK 924 INTRA-LIGAND FREE ENERGY PREDICTED BY IDOCK:   -1.51 KCAL/MOL
REMARK 927      BINDING AFFINITY PREDICTED BY RF-SCORE:    0.00 PKD
ROOT
HETATM    1  C   UNL     1     -12.836  13.988  73.070  1.00  0.00    -0.282 C  
HETATM    2  C   UNL     1     -12.733  14.488  71.626  1.00  0.00    -0.342 C  
HETATM    3  N   UNL     1     -11.668  13.824  70.809  1.00  0.00    -0.515 N  
HETATM    4  C   UNL     1     -12.365  15.997  71.713  1.00  0.00    -0.496 C  
HETATM    5  C   UNL     1     -14.113  14.418  70.954  1.00  0.00     0.183 C  
HETATM    6  C   UNL     1     -11.358  12.587  70.310  1.00  0.00     0.424 C  
HETATM    7  H   UNL     1     -10.955  14.502  70.542  1.00  0.00     0.000 HD 
HETATM    8  O   UNL     1     -10.500  12.590  69.415  1.00  0.00     0.121 OA 
ENDROOT
BRANCH   6   9
HETATM    9  C   UNL     1     -11.927  11.251  70.817  1.00  0.00    -0.279 C  
HETATM   10  C   UNL     1     -10.910  10.146  71.311  1.00  0.00     0.321 C  
HETATM   11  N   UNL     1     -11.598   9.124  72.164  1.00  0.00    -0.296 NA 
HETATM   12  N   UNL     1     -12.973  10.671  69.927  1.00  0.00    -0.055 NA 
HETATM   13  C   UNL     1     -12.879   8.684  71.545  1.00  0.00    -0.319 C  
HETATM   14  C   UNL     1     -13.734   9.784  70.853  1.00  0.00     0.069 C  
BRANCH  11  15
HETATM   15  C   UNL     1     -10.785   7.911  72.420  1.00  0.00    -0.305 C  
BRANCH  15  16
HETATM   16  C   UNL     1      -9.292   8.082  72.560  1.00  0.00    -0.289 A  
HETATM   17  C   UNL     1      -8.704   8.140  73.821  1.00  0.00    -0.224 A  
HETATM   18  N   UNL     1      -7.402   8.437  74.052  1.00  0.00    -0.286 NA 
HETATM   19  C   UNL     1      -7.120   8.662  71.669  1.00  0.00    -0.105 A  
HETATM   20  C   UNL     1      -6.641   8.695  72.968  1.00  0.00    -0.011 A  
HETATM   21  C   UNL     1      -8.467   8.353  71.466  1.00  0.00    -0.202 A  
ENDBRANCH  15  16
ENDBRANCH  11  15
BRANCH  12  22
HETATM   22  C   UNL     1     -12.532   9.870  68.726  1.00  0.00     2.251 C  
BRANCH  22  23
HETATM   23  C   UNL     1     -11.024   9.550  68.510  1.00  0.00    -0.065 C  
HETATM   24  O   UNL     1     -10.809   8.154  68.780  1.00  0.00    -0.408 OA 
HETATM   25  H   UNL     1      -9.888   7.959  68.648  1.00  0.00     0.000 HD 
BRANCH  23  26
HETATM   26  C   UNL     1     -10.461   9.683  67.064  1.00  0.00    -0.302 C  
HETATM   27  C   UNL     1      -9.780  10.989  66.582  1.00  0.00    -0.226 C  
HETATM   28  C   UNL     1      -8.949  10.693  65.285  1.00  0.00    -0.209 C  
HETATM   29  C   UNL     1     -10.837  12.071  66.276  1.00  0.00    -0.279 C  
HETATM   30  O   UNL     1     -11.994  11.795  65.969  1.00  0.00    -0.435 OA 
HETATM   31  N   UNL     1     -10.413  13.384  66.371  1.00  0.00    -0.282 N  
HETATM   32  H   UNL     1      -9.414  13.584  66.428  1.00  0.00     0.000 HD 
BRANCH  28  33
HETATM   33  C   UNL     1      -7.768   9.731  65.421  1.00  0.00    -0.123 A  
HETATM   34  C   UNL     1      -6.581  10.120  66.054  1.00  0.00    -0.102 A  
HETATM   35  C   UNL     1      -7.827   8.440  64.872  1.00  0.00    -0.121 A  
HETATM   36  C   UNL     1      -6.736   7.555  64.969  1.00  0.00    -0.047 A  
HETATM   37  C   UNL     1      -5.490   9.237  66.152  1.00  0.00    -0.044 A  
HETATM   38  C   UNL     1      -5.571   7.954  65.612  1.00  0.00    -0.036 A  
ENDBRANCH  28  33
BRANCH  31  39
HETATM   39  C   UNL     1     -11.379  14.502  66.393  1.00  0.00    -0.349 C  
HETATM   40  C   UNL     1     -11.283  16.456  64.797  1.00  0.00    -0.219 C  
HETATM   41  C   UNL     1     -10.714  16.797  66.130  1.00  0.00    -0.116 A  
HETATM   42  H   UNL     1     -11.605  14.537  63.042  1.00  0.00     0.000 HD 
HETATM   43  C   UNL     1     -11.817  15.020  64.981  1.00  0.00    -0.244 C  
HETATM   44  O   UNL     1     -11.339  14.223  63.898  1.00  0.00    -0.011 OA 
HETATM   45  C   UNL     1     -10.186  18.032  66.513  1.00  0.00    -0.383 A  
HETATM   46  C   UNL     1      -9.750  18.189  67.827  1.00  0.00    -0.294 A  
HETATM   47  C   UNL     1      -9.856  17.134  68.738  1.00  0.00    -0.293 A  
HETATM   48  C   UNL     1     -10.367  15.894  68.344  1.00  0.00    -0.240 A  
HETATM   49  C   UNL     1     -10.785  15.733  67.020  1.00  0.00    -0.306 A  
ENDBRANCH  31  39
ENDBRANCH  23  26
ENDBRANCH  22  23
ENDBRANCH  12  22
ENDBRANCH   6   9
TORSDOF 8
ENDMDL
MODEL      116
REMARK 921   NORMALIZED FREE ENERGY PREDICTED BY IDOCK:   -3.61 KCAL/MOL
REMARK 922        TOTAL FREE ENERGY PREDICTED BY IDOCK:   -7.26 KCAL/MOL
REMARK 923 INTER-LIGAND FREE ENERGY PREDICTED BY IDOCK:   -5.41 KCAL/MOL
REMARK 924 INTRA-LIGAND FREE ENERGY PREDICTED BY IDOCK:   -1.85 KCAL/MOL
REMARK 927      BINDING AFFINITY PREDICTED BY RF-SCORE:    0.00 PKD
ROOT
HETATM    1  C   UNL     1      -5.482  14.243  71.322  1.00  0.00    -0.188 C  
HETATM    2  C   UNL     1      -6.253  15.197  70.404  1.00  0.00    -0.072 C  
HETATM    3  N   UNL     1      -5.930  15.060  68.948  1.00  0.00    -0.088 N  
HETATM    4  C   UNL     1      -5.842  16.637  70.827  1.00  0.00     0.297 C  
HETATM    5  C   UNL     1      -7.760  15.079  70.681  1.00  0.00     1.236 C  
HETATM    6  C   UNL     1      -6.039  14.141  67.939  1.00  0.00    -0.146 C  
HETATM    7  H   UNL     1      -5.495  15.915  68.601  1.00  0.00     0.000 HD 
HETATM    8  O   UNL     1      -5.899  14.604  66.798  1.00  0.00     0.724 OA 
ENDROOT
BRANCH   6   9
HETATM    9  C   UNL     1      -6.243  12.627  68.128  1.00  0.00    -0.083 C  
HETATM   10  C   UNL     1      -5.645  11.653  67.037  1.00  0.00    -0.124 C  
HETATM   11  N   UNL     1      -5.530  10.256  67.568  1.00  0.00    -0.041 NA 
HETATM   12  N   UNL     1      -7.641  12.253  68.488  1.00  0.00    -0.120 NA 
HETATM   13  C   UNL     1      -6.774   9.849  68.280  1.00  0.00    -0.060 C  
HETATM   14  C   UNL     1      -7.463  10.933  69.157  1.00  0.00    -0.130 C  
BRANCH  11  15
HETATM   15  C   UNL     1      -5.257   9.238  66.526  1.00  0.00    -0.040 C  
BRANCH  15  16
HETATM   16  C   UNL     1      -6.372   8.896  65.569  1.00  0.00    -0.063 A  
HETATM   17  C   UNL     1      -7.116   9.905  64.964  1.00  0.00    -0.131 A  
HETATM   18  N   UNL     1      -8.225   9.701  64.211  1.00  0.00    -0.144 NA 
HETATM   19  C   UNL     1      -7.951   7.339  64.603  1.00  0.00    -0.115 A  
HETATM   20  C   UNL     1      -8.618   8.421  64.051  1.00  0.00     0.113 A  
HETATM   21  C   UNL     1      -6.813   7.585  65.375  1.00  0.00    -0.048 A  
ENDBRANCH  15  16
ENDBRANCH  11  15
BRANCH  12  22
HETATM   22  C   UNL     1      -8.656  12.112  67.379  1.00  0.00    -0.175 C  
BRANCH  22  23
HETATM   23  C   UNL     1      -8.937  13.306  66.419  1.00  0.00     0.029 C  
HETATM   24  O   UNL     1      -9.542  12.796  65.219  1.00  0.00    -0.469 OA 
HETATM   25  H   UNL     1      -9.714  13.524  64.634  1.00  0.00     0.000 HD 
BRANCH  23  26
HETATM   26  C   UNL     1      -9.983  14.364  66.877  1.00  0.00    -0.261 C  
HETATM   27  C   UNL     1     -10.538  14.376  68.324  1.00  0.00    -0.243 C  
HETATM   28  C   UNL     1     -11.208  15.764  68.612  1.00  0.00    -0.351 C  
HETATM   29  C   UNL     1     -11.580  13.254  68.515  1.00  0.00    -0.333 C  
HETATM   30  O   UNL     1     -12.226  12.787  67.581  1.00  0.00    -0.321 OA 
HETATM   31  N   UNL     1     -11.748  12.789  69.808  1.00  0.00    -0.442 N  
HETATM   32  H   UNL     1     -11.355  13.320  70.585  1.00  0.00     0.000 HD 
BRANCH  28  33
HETATM   33  C   UNL     1     -10.300  16.993  68.592  1.00  0.00    -0.351 A  
HETATM   34  C   UNL     1     -10.831  18.289  68.561  1.00  0.00     0.228 A  
HETATM   35  C   UNL     1      -8.903  16.853  68.561  1.00  0.00    -0.251 A  
HETATM   36  C   UNL     1      -8.059  17.979  68.518  1.00  0.00    -0.306 A  
HETATM   37  C   UNL     1      -9.987  19.415  68.518  1.00  0.00    -0.520 A  
HETATM   38  C   UNL     1      -8.602  19.258  68.499  1.00  0.00    -0.400 A  
ENDBRANCH  28  33
BRANCH  31  39
HETATM   39  C   UNL     1     -12.485  11.538  70.083  1.00  0.00    -0.164 C  
HETATM   40  C   UNL     1     -12.172  10.172  72.183  1.00  0.00     0.173 C  
HETATM   41  C   UNL     1     -11.432   9.593  71.027  1.00  0.00    -0.444 A  
HETATM   42  H   UNL     1     -13.000  12.399  73.288  1.00  0.00     0.000 HD 
HETATM   43  C   UNL     1     -12.944  11.359  71.569  1.00  0.00    -0.399 C  
HETATM   44  O   UNL     1     -12.721  12.507  72.386  1.00  0.00     0.004 OA 
HETATM   45  C   UNL     1     -10.654   8.435  71.040  1.00  0.00    -0.258 A  
HETATM   46  C   UNL     1     -10.079   8.007  69.844  1.00  0.00    -0.198 A  
HETATM   47  C   UNL     1     -10.296   8.721  68.661  1.00  0.00    -0.230 A  
HETATM   48  C   UNL     1     -11.061   9.891  68.659  1.00  0.00    -0.182 A  
HETATM   49  C   UNL     1     -11.619  10.328  69.863  1.00  0.00    -0.326 A  
ENDBRANCH  31  39
ENDBRANCH  23  26
ENDBRANCH  22  23
ENDBRANCH  12  22
ENDBRANCH   6   9
TORSDOF 8
ENDMDL
MODEL      117
REMARK 921   NORMALIZED FREE ENERGY PREDICTED BY IDOCK:   -3.58 KCAL/MOL
REMARK 922        TOTAL FREE ENERGY PREDICTED BY IDOCK:   -7.23 KCAL/MOL
REMARK 923 INTER-LIGAND FREE ENERGY PREDICTED BY IDOCK:   -6.60 KCAL/MOL
REMARK 924 INTRA-LIGAND FREE ENERGY PREDICTED BY IDOCK:   -0.62 KCAL/MOL
REMARK 927      BINDING AFFINITY PREDICTED BY RF-SCORE:    0.00 PKD
ROOT
HETATM    1  C   UNL     1     -10.451  14.445  70.670  1.00  0.00     0.996 C  
HETATM    2  C   UNL     1     -11.872  14.144  70.183  1.00  0.00    -0.313 C  
HETATM    3  N   UNL     1     -11.947  13.218  69.009  1.00  0.00    -0.311 N  
HETATM    4  C   UNL     1     -12.475  15.504  69.728  1.00  0.00    -0.188 C  
HETATM    5  C   UNL     1     -12.733  13.663  71.362  1.00  0.00    -0.437 C  
HETATM    6  C   UNL     1     -11.655  11.919  68.687  1.00  0.00    -0.310 C  
HETATM    7  H   UNL     1     -12.335  13.704  68.201  1.00  0.00     0.000 HD 
HETATM    8  O   UNL     1     -12.184  11.514  67.641  1.00  0.00    -0.513 OA 
ENDROOT
BRANCH   6   9
HETATM    9  C   UNL     1     -10.699  10.999  69.465  1.00  0.00    -0.183 C  
HETATM   10  C   UNL     1      -9.146  11.164  69.227  1.00  0.00     0.178 C  
HETATM   11  N   UNL     1      -8.361  10.542  70.342  1.00  0.00     0.522 NA 
HETATM   12  N   UNL     1     -11.106   9.564  69.447  1.00  0.00    -0.165 NA 
HETATM   13  C   UNL     1      -8.889   9.191  70.681  1.00  0.00    -0.232 C  
HETATM   14  C   UNL     1     -10.434   9.020  70.663  1.00  0.00    -0.230 C  
BRANCH  11  15
HETATM   15  C   UNL     1      -6.915  10.398  70.052  1.00  0.00    -0.157 C  
BRANCH  15  16
HETATM   16  C   UNL     1      -6.451  10.673  68.643  1.00  0.00    -0.051 A  
HETATM   17  C   UNL     1      -5.796   9.685  67.911  1.00  0.00    -0.040 A  
HETATM   18  N   UNL     1      -5.213   9.879  66.702  1.00  0.00    -0.040 NA 
HETATM   19  C   UNL     1      -5.911  12.182  66.831  1.00  0.00    -0.008 A  
HETATM   20  C   UNL     1      -5.282  11.125  66.193  1.00  0.00    -0.137 A  
HETATM   21  C   UNL     1      -6.500  11.949  68.075  1.00  0.00    -0.055 A  
ENDBRANCH  15  16
ENDBRANCH  11  15
BRANCH  12  22
HETATM   22  C   UNL     1     -10.722   8.723  68.253  1.00  0.00    -0.067 C  
BRANCH  22  23
HETATM   23  C   UNL     1      -9.467   9.089  67.408  1.00  0.00    -0.144 C  
HETATM   24  O   UNL     1      -8.491   8.045  67.562  1.00  0.00    -0.125 OA 
HETATM   25  H   UNL     1      -7.725   8.268  67.046  1.00  0.00     0.000 HD 
BRANCH  23  26
HETATM   26  C   UNL     1      -9.632   9.144  65.862  1.00  0.00    -0.343 C  
HETATM   27  C   UNL     1      -9.412  10.460  65.073  1.00  0.00    -0.308 C  
HETATM   28  C   UNL     1      -9.218  10.128  63.553  1.00  0.00    -0.322 C  
HETATM   29  C   UNL     1     -10.623  11.402  65.241  1.00  0.00    -0.277 C  
HETATM   30  O   UNL     1     -11.748  10.989  65.506  1.00  0.00     0.265 OA 
HETATM   31  N   UNL     1     -10.372  12.753  65.084  1.00  0.00    -0.292 N  
HETATM   32  H   UNL     1      -9.488  13.053  64.672  1.00  0.00     0.000 HD 
BRANCH  28  33
HETATM   33  C   UNL     1      -7.990   9.301  63.172  1.00  0.00    -0.147 A  
HETATM   34  C   UNL     1      -8.113   7.981  62.720  1.00  0.00    -0.139 A  
HETATM   35  C   UNL     1      -6.697   9.832  63.307  1.00  0.00    -0.118 A  
HETATM   36  C   UNL     1      -5.559   9.070  62.982  1.00  0.00    -0.077 A  
HETATM   37  C   UNL     1      -6.976   7.219  62.395  1.00  0.00    -0.069 A  
HETATM   38  C   UNL     1      -5.700   7.766  62.524  1.00  0.00    -0.067 A  
ENDBRANCH  28  33
BRANCH  31  39
HETATM   39  C   UNL     1     -11.361  13.770  65.501  1.00  0.00    -0.307 C  
HETATM   40  C   UNL     1     -11.902  15.826  64.138  1.00  0.00    -0.035 C  
HETATM   41  C   UNL     1     -10.973  16.131  65.262  1.00  0.00    -0.280 A  
HETATM   42  H   UNL     1     -12.616  14.005  62.394  1.00  0.00     0.000 HD 
HETATM   43  C   UNL     1     -12.249  14.336  64.343  1.00  0.00    -0.447 C  
HETATM   44  O   UNL     1     -12.077  13.662  63.097  1.00  0.00    -0.459 OA 
HETATM   45  C   UNL     1     -10.441  17.382  65.579  1.00  0.00    -0.112 A  
HETATM   46  C   UNL     1      -9.631  17.493  66.707  1.00  0.00    -0.286 A  
HETATM   47  C   UNL     1      -9.375  16.374  67.506  1.00  0.00    -0.214 A  
HETATM   48  C   UNL     1      -9.894  15.120  67.172  1.00  0.00    -0.228 A  
HETATM   49  C   UNL     1     -10.690  15.008  66.029  1.00  0.00    -0.329 A  
ENDBRANCH  31  39
ENDBRANCH  23  26
ENDBRANCH  22  23
ENDBRANCH  12  22
ENDBRANCH   6   9
TORSDOF 8
ENDMDL
MODEL      118
REMARK 921   NORMALIZED FREE ENERGY PREDICTED BY IDOCK:   -3.32 KCAL/MOL
REMARK 922        TOTAL FREE ENERGY PREDICTED BY IDOCK:   -6.83 KCAL/MOL
REMARK 923 INTER-LIGAND FREE ENERGY PREDICTED BY IDOCK:   -7.15 KCAL/MOL
REMARK 924 INTRA-LIGAND FREE ENERGY PREDICTED BY IDOCK:    0.32 KCAL/MOL
REMARK 927      BINDING AFFINITY PREDICTED BY RF-SCORE:    0.00 PKD
ROOT
HETATM    1  C   UNL     1     -11.171  12.866  65.567  1.00  0.00    -0.319 C  
HETATM    2  C   UNL     1     -11.325  12.413  64.112  1.00  0.00    -0.379 C  
HETATM    3  N   UNL     1     -10.042  12.046  63.433  1.00  0.00    -0.445 N  
HETATM    4  C   UNL     1     -11.918  13.626  63.338  1.00  0.00    -0.202 C  
HETATM    5  C   UNL     1     -12.372  11.292  64.026  1.00  0.00     0.631 C  
HETATM    6  C   UNL     1      -9.044  11.113  63.526  1.00  0.00    -0.124 C  
HETATM    7  H   UNL     1      -9.853  12.689  62.664  1.00  0.00     0.000 HD 
HETATM    8  O   UNL     1      -8.317  11.030  62.525  1.00  0.00    -0.220 OA 
ENDROOT
BRANCH   6   9
HETATM    9  C   UNL     1      -8.739  10.252  64.764  1.00  0.00    -0.188 C  
HETATM   10  C   UNL     1      -9.875   9.298  65.309  1.00  0.00     0.112 C  
HETATM   11  N   UNL     1      -9.304   8.235  66.198  1.00  0.00    -0.204 NA 
HETATM   12  N   UNL     1      -8.084  11.009  65.870  1.00  0.00    -0.121 NA 
HETATM   13  C   UNL     1      -8.335   8.814  67.171  1.00  0.00    -0.103 C  
HETATM   14  C   UNL     1      -7.395   9.932  66.639  1.00  0.00    -0.099 C  
BRANCH  11  15
HETATM   15  C   UNL     1     -10.325   7.489  66.973  1.00  0.00    -0.324 C  
BRANCH  15  16
HETATM   16  C   UNL     1      -9.985   7.099  68.389  1.00  0.00    -0.166 A  
HETATM   17  C   UNL     1      -9.529   5.815  68.677  1.00  0.00    -0.123 A  
HETATM   18  N   UNL     1      -9.340   5.325  69.927  1.00  0.00    -0.135 NA 
HETATM   19  C   UNL     1     -10.077   7.454  70.780  1.00  0.00    -0.190 A  
HETATM   20  C   UNL     1      -9.622   6.157  70.950  1.00  0.00    -0.173 A  
HETATM   21  C   UNL     1     -10.262   7.928  69.479  1.00  0.00    -0.208 A  
ENDBRANCH  15  16
ENDBRANCH  11  15
BRANCH  12  22
HETATM   22  C   UNL     1      -8.956  11.807  66.810  1.00  0.00    -0.196 C  
BRANCH  22  23
HETATM   23  C   UNL     1      -8.392  12.291  68.179  1.00  0.00    -0.174 C  
HETATM   24  O   UNL     1      -7.486  13.381  67.941  1.00  0.00    -0.116 OA 
HETATM   25  H   UNL     1      -7.142  13.676  68.776  1.00  0.00     0.000 HD 
BRANCH  23  26
HETATM   26  C   UNL     1      -9.396  12.927  69.184  1.00  0.00     0.652 C  
HETATM   27  C   UNL     1     -10.662  13.674  68.695  1.00  0.00    -0.272 C  
HETATM   28  C   UNL     1     -11.675  13.815  69.884  1.00  0.00    -0.353 C  
HETATM   29  C   UNL     1     -10.294  15.077  68.167  1.00  0.00    -0.239 C  
HETATM   30  O   UNL     1      -9.293  15.681  68.542  1.00  0.00    -0.187 OA 
HETATM   31  N   UNL     1     -11.156  15.625  67.234  1.00  0.00    -0.282 N  
HETATM   32  H   UNL     1     -12.072  15.201  67.090  1.00  0.00     0.000 HD 
BRANCH  28  33
HETATM   33  C   UNL     1     -12.253  12.524  70.463  1.00  0.00    -0.382 A  
HETATM   34  C   UNL     1     -12.825  12.491  71.741  1.00  0.00    -0.347 A  
HETATM   35  C   UNL     1     -12.185  11.321  69.742  1.00  0.00    -0.343 A  
HETATM   36  C   UNL     1     -12.692  10.121  70.276  1.00  0.00    -0.105 A  
HETATM   37  C   UNL     1     -13.333  11.292  72.275  1.00  0.00    -0.068 A  
HETATM   38  C   UNL     1     -13.268  10.109  71.541  1.00  0.00    -0.496 A  
ENDBRANCH  28  33
BRANCH  31  39
HETATM   39  C   UNL     1     -10.774  16.812  66.441  1.00  0.00    -0.105 C  
HETATM   40  C   UNL     1      -8.395  17.330  65.770  1.00  0.00     0.210 C  
HETATM   41  C   UNL     1      -8.831  18.137  66.944  1.00  0.00    -0.273 A  
HETATM   42  H   UNL     1      -8.647  15.022  64.554  1.00  0.00     0.000 HD 
HETATM   43  C   UNL     1      -9.666  16.554  65.364  1.00  0.00     0.256 C  
HETATM   44  O   UNL     1      -9.319  15.179  65.208  1.00  0.00    -0.006 OA 
HETATM   45  C   UNL     1      -8.067  19.085  67.625  1.00  0.00    -0.296 A  
HETATM   46  C   UNL     1      -8.661  19.792  68.670  1.00  0.00    -0.237 A  
HETATM   47  C   UNL     1      -9.997  19.558  69.009  1.00  0.00    -0.490 A  
HETATM   48  C   UNL     1     -10.751  18.593  68.337  1.00  0.00     0.022 A  
HETATM   49  C   UNL     1     -10.147  17.872  67.303  1.00  0.00    -0.344 A  
ENDBRANCH  31  39
ENDBRANCH  23  26
ENDBRANCH  22  23
ENDBRANCH  12  22
ENDBRANCH   6   9
TORSDOF 8
ENDMDL
MODEL      119
REMARK 921   NORMALIZED FREE ENERGY PREDICTED BY IDOCK:   -3.32 KCAL/MOL
REMARK 922        TOTAL FREE ENERGY PREDICTED BY IDOCK:   -6.83 KCAL/MOL
REMARK 923 INTER-LIGAND FREE ENERGY PREDICTED BY IDOCK:   -5.82 KCAL/MOL
REMARK 924 INTRA-LIGAND FREE ENERGY PREDICTED BY IDOCK:   -1.02 KCAL/MOL
REMARK 927      BINDING AFFINITY PREDICTED BY RF-SCORE:    0.00 PKD
ROOT
HETATM    1  C   UNL     1      -9.080   5.243  73.341  1.00  0.00    -0.128 C  
HETATM    2  C   UNL     1      -7.712   5.895  73.567  1.00  0.00    -0.101 C  
HETATM    3  N   UNL     1      -6.906   6.104  72.322  1.00  0.00    -0.072 N  
HETATM    4  C   UNL     1      -6.907   4.918  74.471  1.00  0.00    -0.072 C  
HETATM    5  C   UNL     1      -7.884   7.190  74.376  1.00  0.00    -0.153 C  
HETATM    6  C   UNL     1      -6.958   6.821  71.156  1.00  0.00    -0.070 C  
HETATM    7  H   UNL     1      -6.058   5.540  72.353  1.00  0.00     0.000 HD 
HETATM    8  O   UNL     1      -5.881   6.895  70.546  1.00  0.00    -0.023 OA 
ENDROOT
BRANCH   6   9
HETATM    9  C   UNL     1      -8.224   7.448  70.548  1.00  0.00    -0.127 C  
HETATM   10  C   UNL     1      -8.951   6.675  69.377  1.00  0.00    -0.133 C  
HETATM   11  N   UNL     1     -10.359   7.158  69.207  1.00  0.00    -0.197 NA 
HETATM   12  N   UNL     1      -8.082   8.900  70.240  1.00  0.00    -0.109 NA 
HETATM   13  C   UNL     1     -10.421   8.647  69.222  1.00  0.00    -0.217 C  
HETATM   14  C   UNL     1      -9.496   9.373  70.239  1.00  0.00    -0.251 C  
BRANCH  11  15
HETATM   15  C   UNL     1     -11.005   6.696  67.955  1.00  0.00    -0.257 C  
BRANCH  15  16
HETATM   16  C   UNL     1     -10.115   6.398  66.774  1.00  0.00    -0.239 A  
HETATM   17  C   UNL     1     -10.153   5.148  66.160  1.00  0.00    -0.207 A  
HETATM   18  N   UNL     1      -9.294   4.736  65.195  1.00  0.00    -0.150 NA 
HETATM   19  C   UNL     1      -8.213   6.883  65.360  1.00  0.00    -0.134 A  
HETATM   20  C   UNL     1      -8.342   5.613  64.821  1.00  0.00    -0.128 A  
HETATM   21  C   UNL     1      -9.114   7.276  66.353  1.00  0.00    -0.192 A  
ENDBRANCH  15  16
ENDBRANCH  11  15
BRANCH  12  22
HETATM   22  C   UNL     1      -7.427   9.298  68.939  1.00  0.00    -0.075 C  
BRANCH  22  23
HETATM   23  C   UNL     1      -7.542  10.762  68.420  1.00  0.00    -0.102 C  
HETATM   24  O   UNL     1      -6.296  11.127  67.803  1.00  0.00    -0.053 OA 
HETATM   25  H   UNL     1      -6.366  12.021  67.487  1.00  0.00     0.000 HD 
BRANCH  23  26
HETATM   26  C   UNL     1      -8.557  11.040  67.274  1.00  0.00    -0.130 C  
HETATM   27  C   UNL     1      -8.490  12.342  66.436  1.00  0.00     0.096 C  
HETATM   28  C   UNL     1      -9.320  12.155  65.118  1.00  0.00     0.159 C  
HETATM   29  C   UNL     1      -9.059  13.532  67.236  1.00  0.00    -0.225 C  
HETATM   30  O   UNL     1      -9.878  13.388  68.139  1.00  0.00    -0.222 OA 
HETATM   31  N   UNL     1      -8.590  14.785  66.884  1.00  0.00    -0.294 N  
HETATM   32  H   UNL     1      -8.073  14.899  66.012  1.00  0.00     0.000 HD 
BRANCH  28  33
HETATM   33  C   UNL     1      -8.830  11.097  64.130  1.00  0.00     0.111 A  
HETATM   34  C   UNL     1      -9.628   9.998  63.786  1.00  0.00    -0.191 A  
HETATM   35  C   UNL     1      -7.544  11.175  63.574  1.00  0.00     0.788 A  
HETATM   36  C   UNL     1      -7.074  10.192  62.682  1.00  0.00    -0.133 A  
HETATM   37  C   UNL     1      -9.159   9.015  62.894  1.00  0.00     0.220 A  
HETATM   38  C   UNL     1      -7.884   9.115  62.341  1.00  0.00    -0.121 A  
ENDBRANCH  28  33
BRANCH  31  39
HETATM   39  C   UNL     1      -8.823  15.962  67.748  1.00  0.00    -0.175 C  
HETATM   40  C   UNL     1     -10.459  17.801  67.182  1.00  0.00    -0.338 C  
HETATM   41  C   UNL     1      -9.055  18.189  66.872  1.00  0.00    -0.276 A  
HETATM   42  H   UNL     1     -12.146  15.799  67.284  1.00  0.00     0.000 HD 
HETATM   43  C   UNL     1     -10.318  16.415  67.849  1.00  0.00    -0.286 C  
HETATM   44  O   UNL     1     -11.239  15.523  67.223  1.00  0.00    -0.308 OA 
HETATM   45  C   UNL     1      -8.632  19.409  66.342  1.00  0.00    -0.372 A  
HETATM   46  C   UNL     1      -7.265  19.621  66.172  1.00  0.00    -0.287 A  
HETATM   47  C   UNL     1      -6.346  18.634  66.540  1.00  0.00    -0.209 A  
HETATM   48  C   UNL     1      -6.776  17.407  67.052  1.00  0.00    -0.218 A  
HETATM   49  C   UNL     1      -8.148  17.189  67.203  1.00  0.00    -0.215 A  
ENDBRANCH  31  39
ENDBRANCH  23  26
ENDBRANCH  22  23
ENDBRANCH  12  22
ENDBRANCH   6   9
TORSDOF 8
ENDMDL
MODEL      120
REMARK 921   NORMALIZED FREE ENERGY PREDICTED BY IDOCK:   -3.30 KCAL/MOL
REMARK 922        TOTAL FREE ENERGY PREDICTED BY IDOCK:   -6.81 KCAL/MOL
REMARK 923 INTER-LIGAND FREE ENERGY PREDICTED BY IDOCK:   -6.28 KCAL/MOL
REMARK 924 INTRA-LIGAND FREE ENERGY PREDICTED BY IDOCK:   -0.53 KCAL/MOL
REMARK 927      BINDING AFFINITY PREDICTED BY RF-SCORE:    0.00 PKD
ROOT
HETATM    1  C   UNL     1      -8.039  19.300  67.086  1.00  0.00    -0.290 C  
HETATM    2  C   UNL     1      -9.535  19.134  67.374  1.00  0.00    -0.305 C  
HETATM    3  N   UNL     1     -10.103  17.805  66.982  1.00  0.00    -0.323 N  
HETATM    4  C   UNL     1     -10.265  20.210  66.521  1.00  0.00    -0.558 C  
HETATM    5  C   UNL     1      -9.821  19.480  68.843  1.00  0.00    -0.522 C  
HETATM    6  C   UNL     1      -9.981  16.482  67.313  1.00  0.00    -0.264 C  
HETATM    7  H   UNL     1     -10.793  17.922  66.240  1.00  0.00     0.000 HD 
HETATM    8  O   UNL     1     -10.904  15.759  66.907  1.00  0.00    -0.319 OA 
ENDROOT
BRANCH   6   9
HETATM    9  C   UNL     1      -8.792  15.853  68.059  1.00  0.00    -0.178 C  
HETATM   10  C   UNL     1      -7.666  15.145  67.205  1.00  0.00    -0.188 C  
HETATM   11  N   UNL     1      -6.405  14.991  68.000  1.00  0.00    -0.136 NA 
HETATM   12  N   UNL     1      -9.194  15.022  69.230  1.00  0.00    -0.191 NA 
HETATM   13  C   UNL     1      -6.693  14.471  69.366  1.00  0.00    -0.142 C  
HETATM   14  C   UNL     1      -7.962  15.027  70.071  1.00  0.00     0.305 C  
BRANCH  11  15
HETATM   15  C   UNL     1      -5.410  14.085  67.377  1.00  0.00     0.382 C  
BRANCH  15  16
HETATM   16  C   UNL     1      -5.534  12.608  67.656  1.00  0.00    -0.124 A  
HETATM   17  C   UNL     1      -5.264  12.105  68.926  1.00  0.00    -0.054 A  
HETATM   18  N   UNL     1      -5.203  10.786  69.237  1.00  0.00    -0.041 NA 
HETATM   19  C   UNL     1      -5.699  10.307  66.928  1.00  0.00    -0.046 A  
HETATM   20  C   UNL     1      -5.419   9.918  68.228  1.00  0.00    -0.039 A  
HETATM   21  C   UNL     1      -5.754  11.673  66.641  1.00  0.00    -0.115 A  
ENDBRANCH  15  16
ENDBRANCH  11  15
BRANCH  12  22
HETATM   22  C   UNL     1      -9.618  13.593  68.986  1.00  0.00     0.231 C  
BRANCH  22  23
HETATM   23  C   UNL     1     -10.850  13.004  69.735  1.00  0.00     0.465 C  
HETATM   24  O   UNL     1     -12.038  13.350  69.004  1.00  0.00    -0.325 OA 
HETATM   25  H   UNL     1     -12.790  12.990  69.462  1.00  0.00     0.000 HD 
BRANCH  23  26
HETATM   26  C   UNL     1     -10.967  11.454  69.817  1.00  0.00    -0.118 C  
HETATM   27  C   UNL     1     -10.218  10.536  68.818  1.00  0.00    -0.205 C  
HETATM   28  C   UNL     1     -10.167   9.077  69.392  1.00  0.00    -0.206 C  
HETATM   29  C   UNL     1     -10.934  10.523  67.451  1.00  0.00    -0.288 C  
HETATM   30  O   UNL     1     -12.131  10.766  67.331  1.00  0.00     0.089 OA 
HETATM   31  N   UNL     1     -10.147  10.229  66.352  1.00  0.00    -0.227 N  
HETATM   32  H   UNL     1      -9.215   9.839  66.494  1.00  0.00     0.000 HD 
BRANCH  28  33
HETATM   33  C   UNL     1      -9.386   8.867  70.689  1.00  0.00    -0.256 A  
HETATM   34  C   UNL     1     -10.021   8.425  71.857  1.00  0.00    -0.331 A  
HETATM   35  C   UNL     1      -8.013   9.154  70.755  1.00  0.00    -0.192 A  
HETATM   36  C   UNL     1      -7.290   8.987  71.952  1.00  0.00     0.107 A  
HETATM   37  C   UNL     1      -9.299   8.257  73.053  1.00  0.00    -0.310 A  
HETATM   38  C   UNL     1      -7.933   8.536  73.098  1.00  0.00    -0.069 A  
ENDBRANCH  28  33
BRANCH  31  39
HETATM   39  C   UNL     1     -10.631  10.468  64.976  1.00  0.00    -0.039 C  
HETATM   40  C   UNL     1      -9.367  11.842  63.275  1.00  0.00    -0.092 C  
HETATM   41  C   UNL     1     -10.477  12.613  63.901  1.00  0.00    -0.441 A  
HETATM   42  H   UNL     1      -7.571   9.977  63.680  1.00  0.00     0.000 HD 
HETATM   43  C   UNL     1      -9.521  10.427  63.873  1.00  0.00    -0.304 C  
HETATM   44  O   UNL     1      -8.245  10.003  64.349  1.00  0.00    -0.150 OA 
HETATM   45  C   UNL     1     -10.830  13.933  63.616  1.00  0.00     1.048 A  
HETATM   46  C   UNL     1     -11.940  14.478  64.260  1.00  0.00    -0.419 A  
HETATM   47  C   UNL     1     -12.685  13.707  65.157  1.00  0.00    -0.443 A  
HETATM   48  C   UNL     1     -12.315  12.392  65.453  1.00  0.00    -0.308 A  
HETATM   49  C   UNL     1     -11.190  11.855  64.821  1.00  0.00    -0.356 A  
ENDBRANCH  31  39
ENDBRANCH  23  26
ENDBRANCH  22  23
ENDBRANCH  12  22
ENDBRANCH   6   9
TORSDOF 8
ENDMDL
MODEL      121
REMARK 921   NORMALIZED FREE ENERGY PREDICTED BY IDOCK:   -3.25 KCAL/MOL
REMARK 922        TOTAL FREE ENERGY PREDICTED BY IDOCK:   -6.74 KCAL/MOL
REMARK 923 INTER-LIGAND FREE ENERGY PREDICTED BY IDOCK:   -3.58 KCAL/MOL
REMARK 924 INTRA-LIGAND FREE ENERGY PREDICTED BY IDOCK:   -3.16 KCAL/MOL
REMARK 927      BINDING AFFINITY PREDICTED BY RF-SCORE:    0.00 PKD
ROOT
HETATM    1  C   UNL     1      -8.822  17.852  66.842  1.00  0.00    -0.263 C  
HETATM    2  C   UNL     1     -10.305  17.494  66.980  1.00  0.00    -0.324 C  
HETATM    3  N   UNL     1     -10.659  16.113  66.521  1.00  0.00    -0.297 N  
HETATM    4  C   UNL     1     -11.081  18.489  66.070  1.00  0.00     0.420 C  
HETATM    5  C   UNL     1     -10.772  17.768  68.418  1.00  0.00    -0.205 C  
HETATM    6  C   UNL     1     -10.403  14.809  66.849  1.00  0.00    -0.267 C  
HETATM    7  H   UNL     1     -11.284  16.159  65.716  1.00  0.00     0.000 HD 
HETATM    8  O   UNL     1     -11.183  13.985  66.347  1.00  0.00    -0.308 OA 
ENDROOT
BRANCH   6   9
HETATM    9  C   UNL     1      -9.220  14.317  67.701  1.00  0.00    -0.194 C  
HETATM   10  C   UNL     1      -7.902  13.864  66.957  1.00  0.00     0.127 C  
HETATM   11  N   UNL     1      -6.733  13.847  67.895  1.00  0.00    -0.143 NA 
HETATM   12  N   UNL     1      -9.611  13.345  68.761  1.00  0.00    -0.039 NA 
HETATM   13  C   UNL     1      -7.087  13.184  69.181  1.00  0.00     0.021 C  
HETATM   14  C   UNL     1      -8.504  13.478  69.751  1.00  0.00     1.815 C  
BRANCH  11  15
HETATM   15  C   UNL     1      -5.537  13.160  67.351  1.00  0.00     0.058 C  
BRANCH  15  16
HETATM   16  C   UNL     1      -5.634  11.676  67.098  1.00  0.00    -0.111 A  
HETATM   17  C   UNL     1      -5.981  10.806  68.128  1.00  0.00    -0.049 A  
HETATM   18  N   UNL     1      -5.950   9.453  68.040  1.00  0.00    -0.048 NA 
HETATM   19  C   UNL     1      -5.185   9.705  65.769  1.00  0.00    -0.035 A  
HETATM   20  C   UNL     1      -5.549   8.935  66.861  1.00  0.00    -0.041 A  
HETATM   21  C   UNL     1      -5.227  11.096  65.894  1.00  0.00    -0.114 A  
ENDBRANCH  15  16
ENDBRANCH  11  15
BRANCH  12  22
HETATM   22  C   UNL     1      -9.764  11.891  68.383  1.00  0.00    -0.201 C  
BRANCH  22  23
HETATM   23  C   UNL     1     -10.989  11.074  68.890  1.00  0.00    -0.227 C  
HETATM   24  O   UNL     1     -11.905  10.898  67.797  1.00  0.00    -0.655 OA 
HETATM   25  H   UNL     1     -12.653  10.399  68.107  1.00  0.00     0.000 HD 
BRANCH  23  26
HETATM   26  C   UNL     1     -10.737   9.604  69.334  1.00  0.00    -0.248 C  
HETATM   27  C   UNL     1      -9.568   8.774  68.747  1.00  0.00    -0.160 C  
HETATM   28  C   UNL     1      -9.299   7.532  69.666  1.00  0.00    -0.153 C  
HETATM   29  C   UNL     1      -9.907   8.291  67.320  1.00  0.00    -0.197 C  
HETATM   30  O   UNL     1     -11.062   8.143  66.932  1.00  0.00     0.050 OA 
HETATM   31  N   UNL     1      -8.830   8.037  66.489  1.00  0.00    -0.143 N  
HETATM   32  H   UNL     1      -7.894   7.974  66.889  1.00  0.00     0.000 HD 
BRANCH  28  33
HETATM   33  C   UNL     1      -8.827   7.811  71.093  1.00  0.00    -0.143 A  
HETATM   34  C   UNL     1      -9.677   7.623  72.191  1.00  0.00    -0.220 A  
HETATM   35  C   UNL     1      -7.537   8.308  71.338  1.00  0.00    -0.095 A  
HETATM   36  C   UNL     1      -7.101   8.592  72.647  1.00  0.00    -0.064 A  
HETATM   37  C   UNL     1      -9.242   7.906  73.498  1.00  0.00    -0.340 A  
HETATM   38  C   UNL     1      -7.953   8.387  73.725  1.00  0.00    -0.182 A  
ENDBRANCH  28  33
BRANCH  31  39
HETATM   39  C   UNL     1      -9.012   7.857  65.033  1.00  0.00     0.347 C  
HETATM   40  C   UNL     1      -7.093   7.707  63.400  1.00  0.00    -0.071 C  
HETATM   41  C   UNL     1      -7.715   9.060  63.406  1.00  0.00    -0.124 A  
HETATM   42  H   UNL     1      -6.513   5.618  64.872  1.00  0.00     0.000 HD 
HETATM   43  C   UNL     1      -7.984   6.888  64.358  1.00  0.00    -0.093 C  
HETATM   44  O   UNL     1      -7.137   6.206  65.282  1.00  0.00    -0.061 OA 
HETATM   45  C   UNL     1      -7.334  10.149  62.620  1.00  0.00    -0.143 A  
HETATM   46  C   UNL     1      -8.071  11.328  62.715  1.00  0.00     0.163 A  
HETATM   47  C   UNL     1      -9.175  11.403  63.570  1.00  0.00    -0.106 A  
HETATM   48  C   UNL     1      -9.540  10.316  64.369  1.00  0.00    -0.378 A  
HETATM   49  C   UNL     1      -8.786   9.142  64.286  1.00  0.00    -0.139 A  
ENDBRANCH  31  39
ENDBRANCH  23  26
ENDBRANCH  22  23
ENDBRANCH  12  22
ENDBRANCH   6   9
TORSDOF 8
ENDMDL
MODEL      122
REMARK 921   NORMALIZED FREE ENERGY PREDICTED BY IDOCK:   -3.19 KCAL/MOL
REMARK 922        TOTAL FREE ENERGY PREDICTED BY IDOCK:   -6.64 KCAL/MOL
REMARK 923 INTER-LIGAND FREE ENERGY PREDICTED BY IDOCK:   -6.13 KCAL/MOL
REMARK 924 INTRA-LIGAND FREE ENERGY PREDICTED BY IDOCK:   -0.52 KCAL/MOL
REMARK 927      BINDING AFFINITY PREDICTED BY RF-SCORE:    0.00 PKD
ROOT
HETATM    1  C   UNL     1     -12.165  12.440  65.736  1.00  0.00    -0.277 C  
HETATM    2  C   UNL     1     -11.389  13.478  64.919  1.00  0.00    -0.334 C  
HETATM    3  N   UNL     1     -10.304  14.182  65.673  1.00  0.00    -0.317 N  
HETATM    4  C   UNL     1     -12.423  14.560  64.494  1.00  0.00    -0.346 C  
HETATM    5  C   UNL     1     -10.876  12.837  63.621  1.00  0.00    -0.361 C  
HETATM    6  C   UNL     1      -9.112  13.903  66.288  1.00  0.00     0.004 C  
HETATM    7  H   UNL     1     -10.518  15.176  65.754  1.00  0.00     0.000 HD 
HETATM    8  O   UNL     1      -8.407  14.895  66.526  1.00  0.00    -0.125 OA 
ENDROOT
BRANCH   6   9
HETATM    9  C   UNL     1      -8.648  12.509  66.745  1.00  0.00    -0.109 C  
HETATM   10  C   UNL     1      -9.691  11.583  67.489  1.00  0.00    -0.179 C  
HETATM   11  N   UNL     1      -9.250  10.151  67.466  1.00  0.00    -0.137 NA 
HETATM   12  N   UNL     1      -7.330  12.518  67.442  1.00  0.00    -0.149 NA 
HETATM   13  C   UNL     1      -7.808  10.028  67.823  1.00  0.00    -0.094 C  
HETATM   14  C   UNL     1      -6.854  11.117  67.256  1.00  0.00    -0.095 C  
BRANCH  11  15
HETATM   15  C   UNL     1     -10.014   9.273  68.384  1.00  0.00    -0.176 C  
BRANCH  15  16
HETATM   16  C   UNL     1     -10.062   7.798  68.068  1.00  0.00    -0.227 A  
HETATM   17  C   UNL     1     -10.850   7.326  67.022  1.00  0.00    -0.280 A  
HETATM   18  N   UNL     1     -11.075   6.016  66.756  1.00  0.00    -0.236 NA 
HETATM   19  C   UNL     1      -9.677   5.480  68.644  1.00  0.00    -0.186 A  
HETATM   20  C   UNL     1     -10.484   5.124  67.577  1.00  0.00    -0.080 A  
HETATM   21  C   UNL     1      -9.467   6.839  68.892  1.00  0.00    -0.128 A  
ENDBRANCH  15  16
ENDBRANCH  11  15
BRANCH  12  22
HETATM   22  C   UNL     1      -7.296  12.860  68.912  1.00  0.00    -0.014 C  
BRANCH  22  23
HETATM   23  C   UNL     1      -7.124  14.340  69.367  1.00  0.00    -0.086 C  
HETATM   24  O   UNL     1      -7.055  15.173  68.198  1.00  0.00    -0.103 OA 
HETATM   25  H   UNL     1      -6.950  16.076  68.476  1.00  0.00     0.000 HD 
BRANCH  23  26
HETATM   26  C   UNL     1      -8.300  14.991  70.151  1.00  0.00     0.603 C  
HETATM   27  C   UNL     1      -9.304  15.944  69.454  1.00  0.00    -0.250 C  
HETATM   28  C   UNL     1     -10.587  16.089  70.344  1.00  0.00    -0.127 C  
HETATM   29  C   UNL     1      -8.671  17.335  69.237  1.00  0.00     0.180 C  
HETATM   30  O   UNL     1      -7.759  17.761  69.940  1.00  0.00     0.770 OA 
HETATM   31  N   UNL     1      -9.186  18.084  68.194  1.00  0.00    -0.272 N  
HETATM   32  H   UNL     1     -10.063  17.800  67.759  1.00  0.00     0.000 HD 
BRANCH  28  33
HETATM   33  C   UNL     1     -11.424  14.829  70.570  1.00  0.00    -0.300 A  
HETATM   34  C   UNL     1     -12.301  14.724  71.657  1.00  0.00    -0.409 A  
HETATM   35  C   UNL     1     -11.302  13.724  69.713  1.00  0.00    -0.200 A  
HETATM   36  C   UNL     1     -12.050  12.550  69.927  1.00  0.00    -0.322 A  
HETATM   37  C   UNL     1     -13.049  13.551  71.871  1.00  0.00    -0.475 A  
HETATM   38  C   UNL     1     -12.924  12.467  71.003  1.00  0.00    -0.151 A  
ENDBRANCH  28  33
BRANCH  31  39
HETATM   39  C   UNL     1      -8.487  19.289  67.699  1.00  0.00    -0.292 C  
HETATM   40  C   UNL     1      -8.713  20.156  65.338  1.00  0.00     0.638 C  
HETATM   41  C   UNL     1      -7.451  19.388  65.531  1.00  0.00    -0.045 A  
HETATM   42  H   UNL     1     -11.221  20.357  66.067  1.00  0.00     0.000 HD 
HETATM   43  C   UNL     1      -9.337  20.197  66.749  1.00  0.00    -0.386 C  
HETATM   44  O   UNL     1     -10.705  19.806  66.643  1.00  0.00    -0.473 OA 
HETATM   45  C   UNL     1      -6.471  19.151  64.566  1.00  0.00     0.172 A  
HETATM   46  C   UNL     1      -5.321  18.458  64.942  1.00  0.00    -0.160 A  
HETATM   47  C   UNL     1      -5.157  18.028  66.262  1.00  0.00    -0.200 A  
HETATM   48  C   UNL     1      -6.150  18.250  67.219  1.00  0.00    -0.172 A  
HETATM   49  C   UNL     1      -7.311  18.928  66.834  1.00  0.00    -0.224 A  
ENDBRANCH  31  39
ENDBRANCH  23  26
ENDBRANCH  22  23
ENDBRANCH  12  22
ENDBRANCH   6   9
TORSDOF 8
ENDMDL
MODEL      123
REMARK 921   NORMALIZED FREE ENERGY PREDICTED BY IDOCK:   -3.17 KCAL/MOL
REMARK 922        TOTAL FREE ENERGY PREDICTED BY IDOCK:   -6.62 KCAL/MOL
REMARK 923 INTER-LIGAND FREE ENERGY PREDICTED BY IDOCK:   -7.03 KCAL/MOL
REMARK 924 INTRA-LIGAND FREE ENERGY PREDICTED BY IDOCK:    0.40 KCAL/MOL
REMARK 927      BINDING AFFINITY PREDICTED BY RF-SCORE:    0.00 PKD
ROOT
HETATM    1  C   UNL     1      -5.484   9.281  72.145  1.00  0.00    -0.075 C  
HETATM    2  C   UNL     1      -6.218   8.033  72.648  1.00  0.00    -0.066 C  
HETATM    3  N   UNL     1      -7.673   8.237  72.937  1.00  0.00    -0.135 N  
HETATM    4  C   UNL     1      -5.538   7.639  73.991  1.00  0.00    -0.053 C  
HETATM    5  C   UNL     1      -5.974   6.864  71.681  1.00  0.00    -0.037 C  
HETATM    6  C   UNL     1      -8.832   8.546  72.277  1.00  0.00    -0.208 C  
HETATM    7  H   UNL     1      -7.857   8.105  73.932  1.00  0.00     0.000 HD 
HETATM    8  O   UNL     1      -9.870   8.303  72.912  1.00  0.00    -0.276 OA 
ENDROOT
BRANCH   6   9
HETATM    9  C   UNL     1      -8.923   9.212  70.893  1.00  0.00    -0.237 C  
HETATM   10  C   UNL     1     -10.355   9.573  70.332  1.00  0.00    -0.276 C  
HETATM   11  N   UNL     1     -10.261  10.584  69.229  1.00  0.00    -0.219 NA 
HETATM   12  N   UNL     1      -8.080   8.550  69.856  1.00  0.00    -0.115 NA 
HETATM   13  C   UNL     1      -9.188  10.223  68.261  1.00  0.00    -0.139 C  
HETATM   14  C   UNL     1      -7.877   9.639  68.858  1.00  0.00    -0.081 C  
BRANCH  11  15
HETATM   15  C   UNL     1     -11.518  10.754  68.462  1.00  0.00    -0.292 C  
BRANCH  15  16
HETATM   16  C   UNL     1     -11.719  12.052  67.721  1.00  0.00    -0.379 A  
HETATM   17  C   UNL     1     -11.612  12.096  66.333  1.00  0.00    -0.364 A  
HETATM   18  N   UNL     1     -11.628  13.232  65.593  1.00  0.00    -0.324 NA 
HETATM   19  C   UNL     1     -11.874  14.465  67.649  1.00  0.00    -0.412 A  
HETATM   20  C   UNL     1     -11.755  14.391  66.271  1.00  0.00    -0.385 A  
HETATM   21  C   UNL     1     -11.853  13.276  68.381  1.00  0.00    -0.395 A  
ENDBRANCH  15  16
ENDBRANCH  11  15
BRANCH  12  22
HETATM   22  C   UNL     1      -8.629   7.331  69.154  1.00  0.00    -0.133 C  
BRANCH  22  23
HETATM   23  C   UNL     1      -8.254   7.049  67.669  1.00  0.00    -0.117 C  
HETATM   24  O   UNL     1      -7.013   7.713  67.376  1.00  0.00    -0.079 OA 
HETATM   25  H   UNL     1      -6.785   7.541  66.470  1.00  0.00     0.000 HD 
BRANCH  23  26
HETATM   26  C   UNL     1      -7.925   5.578  67.279  1.00  0.00    -0.101 C  
HETATM   27  C   UNL     1      -8.866   4.410  67.673  1.00  0.00    -0.121 C  
HETATM   28  C   UNL     1      -8.526   3.153  66.800  1.00  0.00    -0.104 C  
HETATM   29  C   UNL     1      -8.697   4.058  69.166  1.00  0.00    -0.087 C  
HETATM   30  O   UNL     1      -7.663   4.291  69.786  1.00  0.00    -0.053 OA 
HETATM   31  N   UNL     1      -9.785   3.464  69.780  1.00  0.00    -0.100 N  
HETATM   32  H   UNL     1     -10.547   3.102  69.207  1.00  0.00     0.000 HD 
BRANCH  28  33
HETATM   33  C   UNL     1      -8.753   3.270  65.292  1.00  0.00    -0.119 A  
HETATM   34  C   UNL     1      -9.997   3.647  64.771  1.00  0.00    -0.160 A  
HETATM   35  C   UNL     1      -7.727   2.959  64.386  1.00  0.00    -0.077 A  
HETATM   36  C   UNL     1      -7.933   3.040  62.995  1.00  0.00    -0.069 A  
HETATM   37  C   UNL     1     -10.204   3.729  63.381  1.00  0.00    -0.202 A  
HETATM   38  C   UNL     1      -9.170   3.428  62.495  1.00  0.00    -0.088 A  
ENDBRANCH  28  33
BRANCH  31  39
HETATM   39  C   UNL     1      -9.865   3.347  71.252  1.00  0.00    -0.124 C  
HETATM   40  C   UNL     1      -8.996   5.109  72.837  1.00  0.00    -0.120 C  
HETATM   41  C   UNL     1      -8.050   3.966  72.702  1.00  0.00    -0.089 A  
HETATM   42  H   UNL     1     -10.782   6.560  71.585  1.00  0.00     0.000 HD 
HETATM   43  C   UNL     1     -10.218   4.676  71.999  1.00  0.00    -0.190 C  
HETATM   44  O   UNL     1     -10.568   5.754  71.132  1.00  0.00    -0.231 OA 
HETATM   45  C   UNL     1      -6.824   3.826  73.354  1.00  0.00    -0.044 A  
HETATM   46  C   UNL     1      -6.094   2.656  73.152  1.00  0.00    -0.008 A  
HETATM   47  C   UNL     1      -6.594   1.646  72.325  1.00  0.00    -0.014 A  
HETATM   48  C   UNL     1      -7.813   1.800  71.660  1.00  0.00    -0.041 A  
HETATM   49  C   UNL     1      -8.534   2.983  71.848  1.00  0.00    -0.086 A  
ENDBRANCH  31  39
ENDBRANCH  23  26
ENDBRANCH  22  23
ENDBRANCH  12  22
ENDBRANCH   6   9
TORSDOF 8
ENDMDL
MODEL      124
REMARK 921   NORMALIZED FREE ENERGY PREDICTED BY IDOCK:   -3.08 KCAL/MOL
REMARK 922        TOTAL FREE ENERGY PREDICTED BY IDOCK:   -6.49 KCAL/MOL
REMARK 923 INTER-LIGAND FREE ENERGY PREDICTED BY IDOCK:   -5.59 KCAL/MOL
REMARK 924 INTRA-LIGAND FREE ENERGY PREDICTED BY IDOCK:   -0.90 KCAL/MOL
REMARK 927      BINDING AFFINITY PREDICTED BY RF-SCORE:    0.00 PKD
ROOT
HETATM    1  C   UNL     1      -8.124   9.362  63.532  1.00  0.00    -0.157 C  
HETATM    2  C   UNL     1      -6.969   8.986  64.465  1.00  0.00    -0.089 C  
HETATM    3  N   UNL     1      -6.663  10.002  65.522  1.00  0.00    -0.098 N  
HETATM    4  C   UNL     1      -5.703   8.870  63.567  1.00  0.00    -0.075 C  
HETATM    5  C   UNL     1      -7.211   7.587  65.052  1.00  0.00    -0.066 C  
HETATM    6  C   UNL     1      -7.251  10.570  66.621  1.00  0.00    -0.119 C  
HETATM    7  H   UNL     1      -5.731  10.390  65.379  1.00  0.00     0.000 HD 
HETATM    8  O   UNL     1      -6.469  11.167  67.375  1.00  0.00    -0.062 OA 
ENDROOT
BRANCH   6   9
HETATM    9  C   UNL     1      -8.759  10.575  66.926  1.00  0.00    -0.127 C  
HETATM   10  C   UNL     1      -9.241  11.203  68.293  1.00  0.00    -0.169 C  
HETATM   11  N   UNL     1     -10.701  11.535  68.248  1.00  0.00    -0.200 NA 
HETATM   12  N   UNL     1      -9.426   9.268  66.659  1.00  0.00    -0.177 NA 
HETATM   13  C   UNL     1     -11.488  10.412  67.664  1.00  0.00     0.105 C  
HETATM   14  C   UNL     1     -10.850   9.664  66.460  1.00  0.00     0.144 C  
BRANCH  11  15
HETATM   15  C   UNL     1     -11.287  11.852  69.572  1.00  0.00    -0.236 C  
BRANCH  15  16
HETATM   16  C   UNL     1     -11.816  13.247  69.792  1.00  0.00    -0.394 A  
HETATM   17  C   UNL     1     -11.767  14.189  68.767  1.00  0.00    -0.345 A  
HETATM   18  N   UNL     1     -12.077  15.501  68.909  1.00  0.00    -0.267 NA 
HETATM   19  C   UNL     1     -12.543  15.051  71.230  1.00  0.00    -0.409 A  
HETATM   20  C   UNL     1     -12.455  15.901  70.140  1.00  0.00    -0.071 A  
HETATM   21  C   UNL     1     -12.215  13.705  71.050  1.00  0.00    -0.374 A  
ENDBRANCH  15  16
ENDBRANCH  11  15
BRANCH  12  22
HETATM   22  C   UNL     1      -9.355   8.195  67.719  1.00  0.00    -0.134 C  
BRANCH  22  23
HETATM   23  C   UNL     1     -10.651   7.467  68.183  1.00  0.00    -0.162 C  
HETATM   24  O   UNL     1     -11.044   6.536  67.162  1.00  0.00    -0.429 OA 
HETATM   25  H   UNL     1     -11.835   6.092  67.445  1.00  0.00     0.000 HD 
BRANCH  23  26
HETATM   26  C   UNL     1     -10.547   6.543  69.432  1.00  0.00    -0.291 C  
HETATM   27  C   UNL     1      -9.362   5.560  69.610  1.00  0.00    -0.172 C  
HETATM   28  C   UNL     1      -9.290   5.100  71.108  1.00  0.00    -0.194 C  
HETATM   29  C   UNL     1      -9.541   4.324  68.703  1.00  0.00    -0.142 C  
HETATM   30  O   UNL     1     -10.643   3.943  68.317  1.00  0.00     0.961 OA 
HETATM   31  N   UNL     1      -8.383   3.662  68.338  1.00  0.00    -0.081 N  
HETATM   32  H   UNL     1      -7.512   3.871  68.826  1.00  0.00     0.000 HD 
BRANCH  28  33
HETATM   33  C   UNL     1      -8.992   6.176  72.153  1.00  0.00    -0.142 A  
HETATM   34  C   UNL     1      -9.177   7.536  71.870  1.00  0.00    -0.159 A  
HETATM   35  C   UNL     1      -8.482   5.830  73.414  1.00  0.00    -0.115 A  
HETATM   36  C   UNL     1      -8.181   6.815  74.374  1.00  0.00    -0.151 A  
HETATM   37  C   UNL     1      -8.876   8.520  72.829  1.00  0.00    -0.197 A  
HETATM   38  C   UNL     1      -8.381   8.158  74.082  1.00  0.00    -0.286 A  
ENDBRANCH  28  33
BRANCH  31  39
HETATM   39  C   UNL     1      -8.384   2.658  67.253  1.00  0.00    -0.090 C  
HETATM   40  C   UNL     1      -6.373   2.170  65.807  1.00  0.00    -0.024 C  
HETATM   41  C   UNL     1      -7.353   3.054  65.117  1.00  0.00    -0.068 A  
HETATM   42  H   UNL     1      -5.346   1.524  68.129  1.00  0.00     0.000 HD 
HETATM   43  C   UNL     1      -7.070   1.815  67.137  1.00  0.00    -0.043 C  
HETATM   44  O   UNL     1      -6.143   2.036  68.199  1.00  0.00    -0.023 OA 
HETATM   45  C   UNL     1      -7.234   3.573  63.827  1.00  0.00    -0.051 A  
HETATM   46  C   UNL     1      -8.282   4.339  63.320  1.00  0.00    -0.091 A  
HETATM   47  C   UNL     1      -9.429   4.564  64.088  1.00  0.00    -0.040 A  
HETATM   48  C   UNL     1      -9.534   4.058  65.387  1.00  0.00    -0.172 A  
HETATM   49  C   UNL     1      -8.472   3.307  65.900  1.00  0.00    -0.111 A  
ENDBRANCH  31  39
ENDBRANCH  23  26
ENDBRANCH  22  23
ENDBRANCH  12  22
ENDBRANCH   6   9
TORSDOF 8
ENDMDL
MODEL      125
REMARK 921   NORMALIZED FREE ENERGY PREDICTED BY IDOCK:   -3.07 KCAL/MOL
REMARK 922        TOTAL FREE ENERGY PREDICTED BY IDOCK:   -6.48 KCAL/MOL
REMARK 923 INTER-LIGAND FREE ENERGY PREDICTED BY IDOCK:   -4.57 KCAL/MOL
REMARK 924 INTRA-LIGAND FREE ENERGY PREDICTED BY IDOCK:   -1.91 KCAL/MOL
REMARK 927      BINDING AFFINITY PREDICTED BY RF-SCORE:    0.00 PKD
ROOT
HETATM    1  C   UNL     1     -13.783  10.579  70.182  1.00  0.00     1.233 C  
HETATM    2  C   UNL     1     -12.815  11.034  71.279  1.00  0.00    -0.425 C  
HETATM    3  N   UNL     1     -12.129   9.920  72.008  1.00  0.00    -0.180 N  
HETATM    4  C   UNL     1     -13.671  11.802  72.326  1.00  0.00     0.079 C  
HETATM    5  C   UNL     1     -11.820  12.053  70.702  1.00  0.00    -0.100 C  
HETATM    6  C   UNL     1     -11.240   8.907  71.763  1.00  0.00    -0.362 C  
HETATM    7  H   UNL     1     -12.411   9.913  72.988  1.00  0.00     0.000 HD 
HETATM    8  O   UNL     1     -10.728   8.411  72.778  1.00  0.00    -0.307 OA 
ENDROOT
BRANCH   6   9
HETATM    9  C   UNL     1     -10.906   8.326  70.378  1.00  0.00    -0.235 C  
HETATM   10  C   UNL     1     -10.224   6.902  70.311  1.00  0.00    -0.192 C  
HETATM   11  N   UNL     1     -10.372   6.298  68.948  1.00  0.00    -0.183 NA 
HETATM   12  N   UNL     1     -10.234   9.298  69.469  1.00  0.00    -0.198 NA 
HETATM   13  C   UNL     1     -10.051   7.291  67.884  1.00  0.00    -0.177 C  
HETATM   14  C   UNL     1     -10.542   8.747  68.118  1.00  0.00    -0.147 C  
BRANCH  11  15
HETATM   15  C   UNL     1      -9.516   5.108  68.723  1.00  0.00    -0.133 C  
BRANCH  15  16
HETATM   16  C   UNL     1      -9.451   4.544  67.325  1.00  0.00    -0.184 A  
HETATM   17  C   UNL     1      -8.316   3.866  66.891  1.00  0.00    -0.100 A  
HETATM   18  N   UNL     1      -8.102   3.455  65.616  1.00  0.00    -0.092 NA 
HETATM   19  C   UNL     1     -10.244   4.400  65.044  1.00  0.00    -0.166 A  
HETATM   20  C   UNL     1      -9.072   3.735  64.722  1.00  0.00    -0.139 A  
HETATM   21  C   UNL     1     -10.432   4.811  66.366  1.00  0.00    -0.283 A  
ENDBRANCH  15  16
ENDBRANCH  11  15
BRANCH  12  22
HETATM   22  C   UNL     1      -8.741   9.487  69.596  1.00  0.00    -0.182 C  
BRANCH  22  23
HETATM   23  C   UNL     1      -8.005  10.529  68.703  1.00  0.00    -0.124 C  
HETATM   24  O   UNL     1      -6.976  11.157  69.485  1.00  0.00    -0.121 OA 
HETATM   25  H   UNL     1      -6.527  11.793  68.940  1.00  0.00     0.000 HD 
BRANCH  23  26
HETATM   26  C   UNL     1      -7.195   9.989  67.489  1.00  0.00    -0.089 C  
HETATM   27  C   UNL     1      -7.078   8.469  67.210  1.00  0.00    -0.076 C  
HETATM   28  C   UNL     1      -6.598   8.247  65.734  1.00  0.00    -0.052 C  
HETATM   29  C   UNL     1      -6.070   7.816  68.180  1.00  0.00    -0.041 C  
HETATM   30  O   UNL     1      -5.159   8.447  68.708  1.00  0.00    -0.028 OA 
HETATM   31  N   UNL     1      -6.251   6.468  68.432  1.00  0.00    -0.031 N  
HETATM   32  H   UNL     1      -6.879   5.927  67.837  1.00  0.00     0.000 HD 
BRANCH  28  33
HETATM   33  C   UNL     1      -7.533   8.719  64.620  1.00  0.00    -0.104 A  
HETATM   34  C   UNL     1      -7.604   8.043  63.394  1.00  0.00    -0.130 A  
HETATM   35  C   UNL     1      -8.315   9.873  64.780  1.00  0.00    -0.163 A  
HETATM   36  C   UNL     1      -9.160  10.331  63.751  1.00  0.00    -0.285 A  
HETATM   37  C   UNL     1      -8.448   8.500  62.365  1.00  0.00    -0.174 A  
HETATM   38  C   UNL     1      -9.228   9.641  62.547  1.00  0.00    -0.226 A  
ENDBRANCH  28  33
BRANCH  31  39
HETATM   39  C   UNL     1      -5.552   5.796  69.548  1.00  0.00    -0.008 C  
HETATM   40  C   UNL     1      -6.066   3.440  70.296  1.00  0.00    -0.023 C  
HETATM   41  C   UNL     1      -6.701   4.456  71.180  1.00  0.00    -0.031 A  
HETATM   42  H   UNL     1      -5.325   2.914  67.838  1.00  0.00     0.000 HD 
HETATM   43  C   UNL     1      -5.232   4.283  69.307  1.00  0.00    -0.007 C  
HETATM   44  O   UNL     1      -5.519   3.833  67.984  1.00  0.00    -0.012 OA 
HETATM   45  C   UNL     1      -7.487   4.198  72.304  1.00  0.00    -0.067 A  
HETATM   46  C   UNL     1      -7.953   5.279  73.052  1.00  0.00    -0.102 A  
HETATM   47  C   UNL     1      -7.623   6.586  72.683  1.00  0.00    -0.101 A  
HETATM   48  C   UNL     1      -6.852   6.839  71.545  1.00  0.00    -0.066 A  
HETATM   49  C   UNL     1      -6.403   5.755  70.787  1.00  0.00    -0.035 A  
ENDBRANCH  31  39
ENDBRANCH  23  26
ENDBRANCH  22  23
ENDBRANCH  12  22
ENDBRANCH   6   9
TORSDOF 8
ENDMDL
MODEL      126
REMARK 921   NORMALIZED FREE ENERGY PREDICTED BY IDOCK:   -2.91 KCAL/MOL
REMARK 922        TOTAL FREE ENERGY PREDICTED BY IDOCK:   -6.23 KCAL/MOL
REMARK 923 INTER-LIGAND FREE ENERGY PREDICTED BY IDOCK:   -6.35 KCAL/MOL
REMARK 924 INTRA-LIGAND FREE ENERGY PREDICTED BY IDOCK:    0.12 KCAL/MOL
REMARK 927      BINDING AFFINITY PREDICTED BY RF-SCORE:    0.00 PKD
ROOT
HETATM    1  C   UNL     1      -9.706  14.274  65.243  1.00  0.00    -0.068 C  
HETATM    2  C   UNL     1     -10.971  13.560  64.756  1.00  0.00    -0.373 C  
HETATM    3  N   UNL     1     -11.411  12.413  65.613  1.00  0.00    -0.332 N  
HETATM    4  C   UNL     1     -10.631  12.977  63.355  1.00  0.00     0.396 C  
HETATM    5  C   UNL     1     -12.093  14.587  64.536  1.00  0.00    -0.501 C  
HETATM    6  C   UNL     1     -11.870  12.177  66.881  1.00  0.00    -0.222 C  
HETATM    7  H   UNL     1     -11.348  11.539  65.091  1.00  0.00     0.000 HD 
HETATM    8  O   UNL     1     -12.399  11.067  67.042  1.00  0.00     0.897 OA 
ENDROOT
BRANCH   6   9
HETATM    9  C   UNL     1     -11.714  13.129  68.080  1.00  0.00    -0.355 C  
HETATM   10  C   UNL     1     -10.457  14.086  68.114  1.00  0.00    -0.243 C  
HETATM   11  N   UNL     1     -10.672  15.223  69.066  1.00  0.00    -0.233 NA 
HETATM   12  N   UNL     1     -11.935  12.469  69.398  1.00  0.00    -0.286 NA 
HETATM   13  C   UNL     1     -11.233  14.740  70.359  1.00  0.00    -0.169 C  
HETATM   14  C   UNL     1     -12.303  13.615  70.279  1.00  0.00    -0.322 C  
BRANCH  11  15
HETATM   15  C   UNL     1      -9.441  15.991  69.371  1.00  0.00    -0.226 C  
BRANCH  15  16
HETATM   16  C   UNL     1      -8.114  15.346  69.057  1.00  0.00    -0.213 A  
HETATM   17  C   UNL     1      -7.580  15.421  67.773  1.00  0.00    -0.150 A  
HETATM   18  N   UNL     1      -6.476  14.754  67.355  1.00  0.00    -0.310 NA 
HETATM   19  C   UNL     1      -6.310  13.819  69.569  1.00  0.00    -0.118 A  
HETATM   20  C   UNL     1      -5.869  13.965  68.265  1.00  0.00    -0.114 A  
HETATM   21  C   UNL     1      -7.451  14.519  69.967  1.00  0.00     0.284 A  
ENDBRANCH  15  16
ENDBRANCH  11  15
BRANCH  12  22
HETATM   22  C   UNL     1     -10.788  11.713  70.025  1.00  0.00     0.482 C  
BRANCH  22  23
HETATM   23  C   UNL     1     -10.768  10.156  69.997  1.00  0.00    -0.305 C  
HETATM   24  O   UNL     1     -11.818   9.701  69.127  1.00  0.00    -0.300 OA 
HETATM   25  H   UNL     1     -11.806   8.751  69.110  1.00  0.00     0.000 HD 
BRANCH  23  26
HETATM   26  C   UNL     1      -9.520   9.465  69.376  1.00  0.00    -0.177 C  
HETATM   27  C   UNL     1      -9.523   7.954  69.032  1.00  0.00    -0.151 C  
HETATM   28  C   UNL     1      -8.341   7.642  68.049  1.00  0.00    -0.124 C  
HETATM   29  C   UNL     1      -9.362   7.105  70.311  1.00  0.00    -0.155 C  
HETATM   30  O   UNL     1      -8.817   7.536  71.323  1.00  0.00    -0.132 OA 
HETATM   31  N   UNL     1      -9.877   5.822  70.262  1.00  0.00    -0.180 N  
HETATM   32  H   UNL     1     -10.141   5.423  69.361  1.00  0.00     0.000 HD 
BRANCH  28  33
HETATM   33  C   UNL     1      -8.391   8.299  66.669  1.00  0.00    -0.111 A  
HETATM   34  C   UNL     1      -7.615   7.819  65.606  1.00  0.00    -0.085 A  
HETATM   35  C   UNL     1      -9.187   9.433  66.443  1.00  0.00    -0.215 A  
HETATM   36  C   UNL     1      -9.221  10.060  65.182  1.00  0.00    -0.273 A  
HETATM   37  C   UNL     1      -7.649   8.444  64.347  1.00  0.00    -0.115 A  
HETATM   38  C   UNL     1      -8.455   9.563  64.135  1.00  0.00    -0.194 A  
ENDBRANCH  28  33
BRANCH  31  39
HETATM   39  C   UNL     1     -10.052   5.019  71.490  1.00  0.00    -0.196 C  
HETATM   40  C   UNL     1     -10.493   6.029  73.762  1.00  0.00    -0.288 C  
HETATM   41  C   UNL     1      -9.066   5.636  73.595  1.00  0.00    -0.127 A  
HETATM   42  H   UNL     1     -12.620   6.923  72.520  1.00  0.00     0.000 HD 
HETATM   43  C   UNL     1     -11.165   5.538  72.461  1.00  0.00    -0.274 C  
HETATM   44  O   UNL     1     -11.945   6.608  71.931  1.00  0.00    -0.316 OA 
HETATM   45  C   UNL     1      -8.054   5.775  74.545  1.00  0.00    -0.106 A  
HETATM   46  C   UNL     1      -6.781   5.296  74.236  1.00  0.00    -0.076 A  
HETATM   47  C   UNL     1      -6.540   4.678  73.005  1.00  0.00    -0.055 A  
HETATM   48  C   UNL     1      -7.553   4.559  72.050  1.00  0.00    -0.088 A  
HETATM   49  C   UNL     1      -8.823   5.059  72.355  1.00  0.00    -0.133 A  
ENDBRANCH  31  39
ENDBRANCH  23  26
ENDBRANCH  22  23
ENDBRANCH  12  22
ENDBRANCH   6   9
TORSDOF 8
ENDMDL
MODEL      127
REMARK 921   NORMALIZED FREE ENERGY PREDICTED BY IDOCK:   -2.87 KCAL/MOL
REMARK 922        TOTAL FREE ENERGY PREDICTED BY IDOCK:   -6.19 KCAL/MOL
REMARK 923 INTER-LIGAND FREE ENERGY PREDICTED BY IDOCK:   -6.06 KCAL/MOL
REMARK 924 INTRA-LIGAND FREE ENERGY PREDICTED BY IDOCK:   -0.13 KCAL/MOL
REMARK 927      BINDING AFFINITY PREDICTED BY RF-SCORE:    0.00 PKD
ROOT
HETATM    1  C   UNL     1      -9.230   5.029  72.782  1.00  0.00    -0.144 C  
HETATM    2  C   UNL     1     -10.698   4.662  73.022  1.00  0.00    -0.233 C  
HETATM    3  N   UNL     1     -11.680   5.722  72.625  1.00  0.00    -0.476 N  
HETATM    4  C   UNL     1     -10.850   4.454  74.556  1.00  0.00     0.026 C  
HETATM    5  C   UNL     1     -11.008   3.307  72.369  1.00  0.00     0.372 C  
HETATM    6  C   UNL     1     -12.116   6.368  71.500  1.00  0.00    -0.231 C  
HETATM    7  H   UNL     1     -12.176   6.068  73.446  1.00  0.00     0.000 HD 
HETATM    8  O   UNL     1     -13.188   6.977  71.635  1.00  0.00    -0.374 OA 
ENDROOT
BRANCH   6   9
HETATM    9  C   UNL     1     -11.359   6.443  70.162  1.00  0.00    -0.420 C  
HETATM   10  C   UNL     1     -10.069   5.548  69.984  1.00  0.00    -0.241 C  
HETATM   11  N   UNL     1      -9.719   5.390  68.536  1.00  0.00    -0.130 NA 
HETATM   12  N   UNL     1     -11.128   7.836  69.684  1.00  0.00    -0.116 NA 
HETATM   13  C   UNL     1      -9.782   6.697  67.823  1.00  0.00    -0.123 C  
HETATM   14  C   UNL     1     -10.945   7.651  68.216  1.00  0.00     0.144 C  
BRANCH  11  15
HETATM   15  C   UNL     1      -8.373   4.817  68.302  1.00  0.00    -0.091 C  
BRANCH  15  16
HETATM   16  C   UNL     1      -7.791   4.930  66.915  1.00  0.00    -0.099 A  
HETATM   17  C   UNL     1      -8.383   4.263  65.845  1.00  0.00    -0.109 A  
HETATM   18  N   UNL     1      -7.856   4.181  64.599  1.00  0.00    -0.084 NA 
HETATM   19  C   UNL     1      -5.997   5.492  65.393  1.00  0.00    -0.025 A  
HETATM   20  C   UNL     1      -6.672   4.796  64.404  1.00  0.00    -0.044 A  
HETATM   21  C   UNL     1      -6.567   5.555  66.667  1.00  0.00    -0.056 A  
ENDBRANCH  15  16
ENDBRANCH  11  15
BRANCH  12  22
HETATM   22  C   UNL     1      -9.948   8.600  70.237  1.00  0.00    -0.186 C  
BRANCH  22  23
HETATM   23  C   UNL     1      -9.049   9.445  69.287  1.00  0.00    -0.152 C  
HETATM   24  O   UNL     1      -9.379  10.833  69.459  1.00  0.00    -0.406 OA 
HETATM   25  H   UNL     1      -8.831  11.349  68.879  1.00  0.00     0.000 HD 
BRANCH  23  26
HETATM   26  C   UNL     1      -7.517   9.448  69.563  1.00  0.00    -0.083 C  
HETATM   27  C   UNL     1      -6.803  10.699  70.135  1.00  0.00    -0.119 C  
HETATM   28  C   UNL     1      -5.403  10.284  70.706  1.00  0.00    -0.071 C  
HETATM   29  C   UNL     1      -6.612  11.765  69.035  1.00  0.00    -0.094 C  
HETATM   30  O   UNL     1      -6.556  11.479  67.843  1.00  0.00    -0.060 OA 
HETATM   31  N   UNL     1      -6.513  13.076  69.465  1.00  0.00    -0.225 N  
HETATM   32  H   UNL     1      -6.361  13.267  70.456  1.00  0.00     0.000 HD 
BRANCH  28  33
HETATM   33  C   UNL     1      -5.393   9.321  71.894  1.00  0.00    -0.070 A  
HETATM   34  C   UNL     1      -5.688   7.961  71.731  1.00  0.00    -0.035 A  
HETATM   35  C   UNL     1      -5.130   9.787  73.192  1.00  0.00    -0.045 A  
HETATM   36  C   UNL     1      -5.143   8.913  74.296  1.00  0.00    -0.102 A  
HETATM   37  C   UNL     1      -5.700   7.088  72.834  1.00  0.00    -0.041 A  
HETATM   38  C   UNL     1      -5.425   7.565  74.115  1.00  0.00    -0.053 A  
ENDBRANCH  28  33
BRANCH  31  39
HETATM   39  C   UNL     1      -6.622  14.204  68.517  1.00  0.00    -0.096 C  
HETATM   40  C   UNL     1      -7.477  16.490  69.166  1.00  0.00    -0.218 C  
HETATM   41  C   UNL     1      -8.518  15.682  68.472  1.00  0.00    -0.175 A  
HETATM   42  H   UNL     1      -5.407  16.379  70.770  1.00  0.00     0.000 HD 
HETATM   43  C   UNL     1      -6.218  15.598  69.105  1.00  0.00    -0.119 C  
HETATM   44  O   UNL     1      -5.653  15.534  70.413  1.00  0.00    -0.142 OA 
HETATM   45  C   UNL     1      -9.821  16.088  68.179  1.00  0.00    -0.222 A  
HETATM   46  C   UNL     1     -10.644  15.217  67.467  1.00  0.00    -0.273 A  
HETATM   47  C   UNL     1     -10.162  13.974  67.048  1.00  0.00    -0.261 A  
HETATM   48  C   UNL     1      -8.863  13.565  67.361  1.00  0.00    -0.221 A  
HETATM   49  C   UNL     1      -8.046  14.432  68.092  1.00  0.00    -0.137 A  
ENDBRANCH  31  39
ENDBRANCH  23  26
ENDBRANCH  22  23
ENDBRANCH  12  22
ENDBRANCH   6   9
TORSDOF 8
ENDMDL
MODEL      128
REMARK 921   NORMALIZED FREE ENERGY PREDICTED BY IDOCK:   -2.84 KCAL/MOL
REMARK 922        TOTAL FREE ENERGY PREDICTED BY IDOCK:   -6.14 KCAL/MOL
REMARK 923 INTER-LIGAND FREE ENERGY PREDICTED BY IDOCK:   -3.88 KCAL/MOL
REMARK 924 INTRA-LIGAND FREE ENERGY PREDICTED BY IDOCK:   -2.26 KCAL/MOL
REMARK 927      BINDING AFFINITY PREDICTED BY RF-SCORE:    0.00 PKD
ROOT
HETATM    1  C   UNL     1     -12.530  13.276  65.127  1.00  0.00    -0.525 C  
HETATM    2  C   UNL     1     -12.511  12.830  63.662  1.00  0.00    -0.389 C  
HETATM    3  N   UNL     1     -11.155  12.475  63.134  1.00  0.00    -0.715 N  
HETATM    4  C   UNL     1     -13.018  14.044  62.830  1.00  0.00     2.257 C  
HETATM    5  C   UNL     1     -13.533  11.704  63.449  1.00  0.00     0.865 C  
HETATM    6  C   UNL     1     -10.169  11.547  63.339  1.00  0.00    -0.420 C  
HETATM    7  H   UNL     1     -10.883  13.124  62.396  1.00  0.00     0.000 HD 
HETATM    8  O   UNL     1      -9.329  11.474  62.429  1.00  0.00    -0.170 OA 
ENDROOT
BRANCH   6   9
HETATM    9  C   UNL     1     -10.003  10.682  64.600  1.00  0.00    -0.337 C  
HETATM   10  C   UNL     1     -10.519  11.263  65.976  1.00  0.00    -0.257 C  
HETATM   11  N   UNL     1     -10.699  10.172  66.987  1.00  0.00    -0.227 NA 
HETATM   12  N   UNL     1      -8.647  10.077  64.735  1.00  0.00    -0.164 NA 
HETATM   13  C   UNL     1      -9.526   9.252  66.998  1.00  0.00    -0.159 C  
HETATM   14  C   UNL     1      -8.900   8.903  65.619  1.00  0.00    -0.191 C  
BRANCH  11  15
HETATM   15  C   UNL     1     -10.896  10.663  68.372  1.00  0.00    -0.237 C  
BRANCH  15  16
HETATM   16  C   UNL     1     -11.172   9.641  69.447  1.00  0.00    -0.112 A  
HETATM   17  C   UNL     1     -11.190   8.283  69.142  1.00  0.00     0.359 A  
HETATM   18  N   UNL     1     -11.572   7.304  69.999  1.00  0.00    -0.119 NA 
HETATM   19  C   UNL     1     -11.977   9.019  71.642  1.00  0.00    -0.426 A  
HETATM   20  C   UNL     1     -11.960   7.697  71.229  1.00  0.00    -0.306 A  
HETATM   21  C   UNL     1     -11.578  10.003  70.734  1.00  0.00    -0.444 A  
ENDBRANCH  15  16
ENDBRANCH  11  15
BRANCH  12  22
HETATM   22  C   UNL     1      -7.543  10.916  65.333  1.00  0.00     0.132 C  
BRANCH  22  23
HETATM   23  C   UNL     1      -6.161  10.274  65.656  1.00  0.00    -0.108 C  
HETATM   24  O   UNL     1      -5.147  10.979  64.920  1.00  0.00    -0.317 OA 
HETATM   25  H   UNL     1      -4.303  10.587  65.117  1.00  0.00     0.000 HD 
BRANCH  23  26
HETATM   26  C   UNL     1      -5.636  10.397  67.116  1.00  0.00    -0.041 C  
HETATM   27  C   UNL     1      -6.389  11.243  68.175  1.00  0.00    -0.052 C  
HETATM   28  C   UNL     1      -5.896  10.839  69.608  1.00  0.00    -0.052 C  
HETATM   29  C   UNL     1      -6.132  12.748  67.950  1.00  0.00    -0.116 C  
HETATM   30  O   UNL     1      -5.126  13.168  67.386  1.00  0.00    -0.308 OA 
HETATM   31  N   UNL     1      -7.107  13.611  68.417  1.00  0.00    -0.096 N  
HETATM   32  H   UNL     1      -7.824  13.258  69.051  1.00  0.00     0.000 HD 
BRANCH  28  33
HETATM   33  C   UNL     1      -6.177   9.407  70.063  1.00  0.00    -0.045 A  
HETATM   34  C   UNL     1      -7.475   8.880  70.048  1.00  0.00    -0.057 A  
HETATM   35  C   UNL     1      -5.142   8.593  70.552  1.00  0.00    -0.021 A  
HETATM   36  C   UNL     1      -5.395   7.281  70.996  1.00  0.00    -0.027 A  
HETATM   37  C   UNL     1      -7.728   7.569  70.492  1.00  0.00    -0.094 A  
HETATM   38  C   UNL     1      -6.687   6.770  70.963  1.00  0.00    -0.054 A  
ENDBRANCH  28  33
BRANCH  31  39
HETATM   39  C   UNL     1      -7.130  15.032  68.014  1.00  0.00    -0.132 C  
HETATM   40  C   UNL     1      -8.593  16.769  69.117  1.00  0.00    -0.086 C  
HETATM   41  C   UNL     1      -9.167  16.296  67.827  1.00  0.00    -0.203 A  
HETATM   42  H   UNL     1      -7.178  16.068  71.208  1.00  0.00     0.000 HD 
HETATM   43  C   UNL     1      -7.230  16.050  69.199  1.00  0.00    -0.208 C  
HETATM   44  O   UNL     1      -7.118  15.450  70.489  1.00  0.00     0.246 OA 
HETATM   45  C   UNL     1     -10.359  16.729  67.244  1.00  0.00    -0.304 A  
HETATM   46  C   UNL     1     -10.713  16.217  65.996  1.00  0.00    -0.245 A  
HETATM   47  C   UNL     1      -9.879  15.302  65.347  1.00  0.00    -0.318 A  
HETATM   48  C   UNL     1      -8.697  14.856  65.945  1.00  0.00     0.596 A  
HETATM   49  C   UNL     1      -8.354  15.357  67.204  1.00  0.00    -0.247 A  
ENDBRANCH  31  39
ENDBRANCH  23  26
ENDBRANCH  22  23
ENDBRANCH  12  22
ENDBRANCH   6   9
TORSDOF 8
ENDMDL
MODEL      129
REMARK 921   NORMALIZED FREE ENERGY PREDICTED BY IDOCK:   -2.81 KCAL/MOL
REMARK 922        TOTAL FREE ENERGY PREDICTED BY IDOCK:   -6.09 KCAL/MOL
REMARK 923 INTER-LIGAND FREE ENERGY PREDICTED BY IDOCK:   -6.79 KCAL/MOL
REMARK 924 INTRA-LIGAND FREE ENERGY PREDICTED BY IDOCK:    0.69 KCAL/MOL
REMARK 927      BINDING AFFINITY PREDICTED BY RF-SCORE:    0.00 PKD
ROOT
HETATM    1  C   UNL     1      -9.859  13.736  69.550  1.00  0.00     0.699 C  
HETATM    2  C   UNL     1     -11.302  13.503  69.089  1.00  0.00    -0.282 C  
HETATM    3  N   UNL     1     -11.538  12.189  68.412  1.00  0.00    -0.305 N  
HETATM    4  C   UNL     1     -11.611  14.615  68.045  1.00  0.00    -0.366 C  
HETATM    5  C   UNL     1     -12.265  13.735  70.264  1.00  0.00    -0.429 C  
HETATM    6  C   UNL     1     -11.505  10.850  68.696  1.00  0.00    -0.311 C  
HETATM    7  H   UNL     1     -11.805  12.337  67.439  1.00  0.00     0.000 HD 
HETATM    8  O   UNL     1     -12.084  10.130  67.869  1.00  0.00     0.502 OA 
ENDROOT
BRANCH   6   9
HETATM    9  C   UNL     1     -10.769  10.207  69.884  1.00  0.00    -0.295 C  
HETATM   10  C   UNL     1      -9.232   9.879  69.720  1.00  0.00    -0.227 C  
HETATM   11  N   UNL     1      -8.577   9.688  71.054  1.00  0.00    -0.131 NA 
HETATM   12  N   UNL     1     -11.508   9.066  70.498  1.00  0.00    -0.245 NA 
HETATM   13  C   UNL     1      -9.400   8.812  71.935  1.00  0.00    -0.273 C  
HETATM   14  C   UNL     1     -10.941   9.014  71.876  1.00  0.00    -0.353 C  
BRANCH  11  15
HETATM   15  C   UNL     1      -7.220   9.097  70.978  1.00  0.00    -0.100 C  
BRANCH  15  16
HETATM   16  C   UNL     1      -6.802   8.151  72.076  1.00  0.00    -0.080 A  
HETATM   17  C   UNL     1      -6.320   8.643  73.286  1.00  0.00    -0.055 A  
HETATM   18  N   UNL     1      -5.785   7.880  74.271  1.00  0.00    -0.072 NA 
HETATM   19  C   UNL     1      -6.176   5.955  72.876  1.00  0.00    -0.057 A  
HETATM   20  C   UNL     1      -5.723   6.553  74.040  1.00  0.00    -0.055 A  
HETATM   21  C   UNL     1      -6.721   6.770  71.880  1.00  0.00    -0.054 A  
ENDBRANCH  15  16
ENDBRANCH  11  15
BRANCH  12  22
HETATM   22  C   UNL     1     -11.385   7.703  69.861  1.00  0.00    -0.003 C  
BRANCH  22  23
HETATM   23  C   UNL     1     -10.074   7.300  69.122  1.00  0.00    -0.183 C  
HETATM   24  O   UNL     1      -9.461   6.215  69.837  1.00  0.00    -0.150 OA 
HETATM   25  H   UNL     1      -8.661   5.969  69.386  1.00  0.00     0.000 HD 
BRANCH  23  26
HETATM   26  C   UNL     1     -10.212   6.701  67.692  1.00  0.00    -0.220 C  
HETATM   27  C   UNL     1      -9.077   6.845  66.645  1.00  0.00    -0.172 C  
HETATM   28  C   UNL     1      -9.298   5.805  65.493  1.00  0.00     0.077 C  
HETATM   29  C   UNL     1      -9.064   8.270  66.053  1.00  0.00    -0.176 C  
HETATM   30  O   UNL     1     -10.064   8.981  66.022  1.00  0.00    -0.278 OA 
HETATM   31  N   UNL     1      -7.851   8.714  65.558  1.00  0.00    -0.095 N  
HETATM   32  H   UNL     1      -7.095   8.045  65.412  1.00  0.00     0.000 HD 
BRANCH  28  33
HETATM   33  C   UNL     1      -9.221   4.324  65.868  1.00  0.00    -0.145 A  
HETATM   34  C   UNL     1      -9.171   3.914  67.206  1.00  0.00    -0.200 A  
HETATM   35  C   UNL     1      -9.154   3.335  64.874  1.00  0.00    -0.141 A  
HETATM   36  C   UNL     1      -9.057   1.970  65.209  1.00  0.00    -0.107 A  
HETATM   37  C   UNL     1      -9.075   2.551  67.542  1.00  0.00    -0.212 A  
HETATM   38  C   UNL     1      -9.021   1.580  66.542  1.00  0.00    -0.101 A  
ENDBRANCH  28  33
BRANCH  31  39
HETATM   39  C   UNL     1      -7.630  10.140  65.237  1.00  0.00    -0.144 C  
HETATM   40  C   UNL     1      -8.390  12.034  66.723  1.00  0.00    -0.135 C  
HETATM   41  C   UNL     1      -9.314  11.822  65.575  1.00  0.00    -0.131 A  
HETATM   42  H   UNL     1      -6.768  10.848  68.405  1.00  0.00     0.000 HD 
HETATM   43  C   UNL     1      -7.242  11.036  66.461  1.00  0.00    -0.143 C  
HETATM   44  O   UNL     1      -7.003  10.305  67.662  1.00  0.00    -0.082 OA 
HETATM   45  C   UNL     1     -10.469  12.555  65.297  1.00  0.00    -0.313 A  
HETATM   46  C   UNL     1     -11.185  12.253  64.139  1.00  0.00    -0.430 A  
HETATM   47  C   UNL     1     -10.739  11.248  63.275  1.00  0.00    -0.278 A  
HETATM   48  C   UNL     1      -9.593  10.504  63.569  1.00  0.00    -0.374 A  
HETATM   49  C   UNL     1      -8.888  10.796  64.741  1.00  0.00    -0.162 A  
ENDBRANCH  31  39
ENDBRANCH  23  26
ENDBRANCH  22  23
ENDBRANCH  12  22
ENDBRANCH   6   9
TORSDOF 8
ENDMDL
MODEL      130
REMARK 921   NORMALIZED FREE ENERGY PREDICTED BY IDOCK:   -2.73 KCAL/MOL
REMARK 922        TOTAL FREE ENERGY PREDICTED BY IDOCK:   -5.98 KCAL/MOL
REMARK 923 INTER-LIGAND FREE ENERGY PREDICTED BY IDOCK:   -5.20 KCAL/MOL
REMARK 924 INTRA-LIGAND FREE ENERGY PREDICTED BY IDOCK:   -0.78 KCAL/MOL
REMARK 927      BINDING AFFINITY PREDICTED BY RF-SCORE:    0.00 PKD
ROOT
HETATM    1  C   UNL     1      -9.621   6.949  68.490  1.00  0.00    -0.131 C  
HETATM    2  C   UNL     1      -9.787   7.054  66.971  1.00  0.00    -0.183 C  
HETATM    3  N   UNL     1      -8.504   7.180  66.208  1.00  0.00    -0.131 N  
HETATM    4  C   UNL     1     -10.601   8.354  66.710  1.00  0.00    -0.227 C  
HETATM    5  C   UNL     1     -10.656   5.892  66.463  1.00  0.00    -0.266 C  
HETATM    6  C   UNL     1      -7.373   6.454  65.947  1.00  0.00    -0.080 C  
HETATM    7  H   UNL     1      -8.460   8.085  65.740  1.00  0.00     0.000 HD 
HETATM    8  O   UNL     1      -6.700   6.870  64.992  1.00  0.00    -0.048 OA 
ENDROOT
BRANCH   6   9
HETATM    9  C   UNL     1      -6.870   5.255  66.770  1.00  0.00    -0.063 C  
HETATM   10  C   UNL     1      -7.932   4.199  67.275  1.00  0.00    -0.096 C  
HETATM   11  N   UNL     1      -7.270   2.909  67.652  1.00  0.00    -0.053 NA 
HETATM   12  N   UNL     1      -5.917   5.633  67.853  1.00  0.00    -0.017 NA 
HETATM   13  C   UNL     1      -6.057   3.152  68.484  1.00  0.00    -0.028 C  
HETATM   14  C   UNL     1      -5.169   4.364  68.086  1.00  0.00    -0.007 C  
BRANCH  11  15
HETATM   15  C   UNL     1      -8.148   1.980  68.402  1.00  0.00    -0.056 C  
BRANCH  15  16
HETATM   16  C   UNL     1      -8.409   2.281  69.858  1.00  0.00    -0.076 A  
HETATM   17  C   UNL     1      -7.455   1.973  70.823  1.00  0.00    -0.033 A  
HETATM   18  N   UNL     1      -7.653   2.066  72.161  1.00  0.00    -0.043 NA 
HETATM   19  C   UNL     1      -9.891   2.824  71.691  1.00  0.00    -0.211 A  
HETATM   20  C   UNL     1      -8.869   2.487  72.563  1.00  0.00    -0.071 A  
HETATM   21  C   UNL     1      -9.655   2.715  70.318  1.00  0.00    -0.114 A  
ENDBRANCH  15  16
ENDBRANCH  11  15
BRANCH  12  22
HETATM   22  C   UNL     1      -6.478   6.123  69.166  1.00  0.00    -0.043 C  
BRANCH  22  23
HETATM   23  C   UNL     1      -5.867   7.378  69.858  1.00  0.00    -0.024 C  
HETATM   24  O   UNL     1      -5.486   8.320  68.843  1.00  0.00    -0.033 OA 
HETATM   25  H   UNL     1      -5.113   9.086  69.265  1.00  0.00     0.000 HD 
BRANCH  23  26
HETATM   26  C   UNL     1      -6.811   8.237  70.750  1.00  0.00    -0.039 C  
HETATM   27  C   UNL     1      -8.093   8.888  70.172  1.00  0.00    -0.122 C  
HETATM   28  C   UNL     1      -9.041   9.304  71.350  1.00  0.00    -0.050 C  
HETATM   29  C   UNL     1      -7.738  10.136  69.336  1.00  0.00    -0.138 C  
HETATM   30  O   UNL     1      -6.713  10.785  69.522  1.00  0.00    -0.079 OA 
HETATM   31  N   UNL     1      -8.642  10.487  68.349  1.00  0.00    -0.126 N  
HETATM   32  H   UNL     1      -9.569  10.062  68.346  1.00  0.00     0.000 HD 
BRANCH  28  33
HETATM   33  C   UNL     1      -9.601   8.180  72.222  1.00  0.00    -0.319 A  
HETATM   34  C   UNL     1     -10.711   7.427  71.815  1.00  0.00    -0.242 A  
HETATM   35  C   UNL     1      -9.043   7.900  73.480  1.00  0.00    -0.346 A  
HETATM   36  C   UNL     1      -9.567   6.884  74.301  1.00  0.00    -0.297 A  
HETATM   37  C   UNL     1     -11.235   6.411  72.636  1.00  0.00    -0.290 A  
HETATM   38  C   UNL     1     -10.660   6.139  73.876  1.00  0.00    -0.230 A  
ENDBRANCH  28  33
BRANCH  31  39
HETATM   39  C   UNL     1      -8.289  11.467  67.300  1.00  0.00    -0.154 C  
HETATM   40  C   UNL     1      -5.911  12.021  66.657  1.00  0.00     0.160 C  
HETATM   41  C   UNL     1      -6.500  13.052  67.556  1.00  0.00    -0.159 A  
HETATM   42  H   UNL     1      -5.889   9.468  66.065  1.00  0.00     0.000 HD 
HETATM   43  C   UNL     1      -7.083  11.051  66.393  1.00  0.00    -0.120 C  
HETATM   44  O   UNL     1      -6.621   9.721  66.616  1.00  0.00    -0.069 OA 
HETATM   45  C   UNL     1      -5.866  14.209  68.012  1.00  0.00    -0.138 A  
HETATM   46  C   UNL     1      -6.594  15.097  68.804  1.00  0.00    -0.094 A  
HETATM   47  C   UNL     1      -7.931  14.832  69.115  1.00  0.00    -0.133 A  
HETATM   48  C   UNL     1      -8.554  13.662  68.671  1.00  0.00    -0.031 A  
HETATM   49  C   UNL     1      -7.816  12.764  67.894  1.00  0.00    -0.156 A  
ENDBRANCH  31  39
ENDBRANCH  23  26
ENDBRANCH  22  23
ENDBRANCH  12  22
ENDBRANCH   6   9
TORSDOF 8
ENDMDL
MODEL      131
REMARK 921   NORMALIZED FREE ENERGY PREDICTED BY IDOCK:   -2.73 KCAL/MOL
REMARK 922        TOTAL FREE ENERGY PREDICTED BY IDOCK:   -5.97 KCAL/MOL
REMARK 923 INTER-LIGAND FREE ENERGY PREDICTED BY IDOCK:   -5.49 KCAL/MOL
REMARK 924 INTRA-LIGAND FREE ENERGY PREDICTED BY IDOCK:   -0.48 KCAL/MOL
REMARK 927      BINDING AFFINITY PREDICTED BY RF-SCORE:    0.00 PKD
ROOT
HETATM    1  C   UNL     1      -7.588   8.487  63.967  1.00  0.00    -0.124 C  
HETATM    2  C   UNL     1      -6.242   7.762  64.077  1.00  0.00    -0.057 C  
HETATM    3  N   UNL     1      -5.727   7.609  65.475  1.00  0.00    -0.037 N  
HETATM    4  C   UNL     1      -5.211   8.637  63.307  1.00  0.00    -0.063 C  
HETATM    5  C   UNL     1      -6.313   6.421  63.332  1.00  0.00    -0.030 C  
HETATM    6  C   UNL     1      -6.063   6.982  66.645  1.00  0.00    -0.038 C  
HETATM    7  H   UNL     1      -4.861   8.134  65.591  1.00  0.00     0.000 HD 
HETATM    8  O   UNL     1      -5.144   6.907  67.474  1.00  0.00    -0.007 OA 
ENDROOT
BRANCH   6   9
HETATM    9  C   UNL     1      -7.462   6.454  67.007  1.00  0.00    -0.084 C  
HETATM   10  C   UNL     1      -8.437   6.057  65.829  1.00  0.00    -0.146 C  
HETATM   11  N   UNL     1      -9.541   5.170  66.319  1.00  0.00    -0.154 NA 
HETATM   12  N   UNL     1      -8.158   7.270  68.042  1.00  0.00    -0.119 NA 
HETATM   13  C   UNL     1     -10.129   5.696  67.583  1.00  0.00    -0.172 C  
HETATM   14  C   UNL     1      -9.138   6.302  68.616  1.00  0.00    -0.126 C  
BRANCH  11  15
HETATM   15  C   UNL     1     -10.647   4.996  65.348  1.00  0.00     0.156 C  
BRANCH  15  16
HETATM   16  C   UNL     1     -10.428   4.048  64.195  1.00  0.00    -0.192 A  
HETATM   17  C   UNL     1     -11.197   2.894  64.075  1.00  0.00     0.626 A  
HETATM   18  N   UNL     1     -10.979   1.912  63.166  1.00  0.00    -0.226 NA 
HETATM   19  C   UNL     1      -9.107   3.195  62.357  1.00  0.00    -0.087 A  
HETATM   20  C   UNL     1      -9.935   2.085  62.330  1.00  0.00    -0.088 A  
HETATM   21  C   UNL     1      -9.358   4.188  63.307  1.00  0.00    -0.140 A  
ENDBRANCH  15  16
ENDBRANCH  11  15
BRANCH  12  22
HETATM   22  C   UNL     1      -8.893   8.514  67.603  1.00  0.00    -0.136 C  
BRANCH  22  23
HETATM   23  C   UNL     1      -8.183   9.900  67.651  1.00  0.00    -0.114 C  
HETATM   24  O   UNL     1      -7.201   9.947  66.603  1.00  0.00    -0.088 OA 
HETATM   25  H   UNL     1      -6.767  10.792  66.633  1.00  0.00     0.000 HD 
BRANCH  23  26
HETATM   26  C   UNL     1      -9.043  11.158  67.336  1.00  0.00    -0.143 C  
HETATM   27  C   UNL     1      -9.932  11.819  68.420  1.00  0.00    -0.202 C  
HETATM   28  C   UNL     1     -10.320  13.268  67.961  1.00  0.00    -0.243 C  
HETATM   29  C   UNL     1     -11.215  10.993  68.649  1.00  0.00    -0.263 C  
HETATM   30  O   UNL     1     -11.689  10.259  67.787  1.00  0.00    -0.247 OA 
HETATM   31  N   UNL     1     -11.808  11.117  69.892  1.00  0.00    -0.330 N  
HETATM   32  H   UNL     1     -11.517  11.874  70.512  1.00  0.00     0.000 HD 
BRANCH  28  33
HETATM   33  C   UNL     1      -9.182  14.276  67.801  1.00  0.00    -0.194 A  
HETATM   34  C   UNL     1      -8.144  14.356  68.738  1.00  0.00    -0.127 A  
HETATM   35  C   UNL     1      -9.172  15.183  66.729  1.00  0.00    -0.277 A  
HETATM   36  C   UNL     1      -8.142  16.132  66.586  1.00  0.00    -0.323 A  
HETATM   37  C   UNL     1      -7.113  15.304  68.595  1.00  0.00    -0.116 A  
HETATM   38  C   UNL     1      -7.112  16.188  67.518  1.00  0.00    -0.191 A  
ENDBRANCH  28  33
BRANCH  31  39
HETATM   39  C   UNL     1     -12.856  10.175  70.340  1.00  0.00    -0.093 C  
HETATM   40  C   UNL     1     -13.457   9.812  72.765  1.00  0.00     0.145 C  
HETATM   41  C   UNL     1     -12.575   8.732  72.242  1.00  0.00    -0.460 A  
HETATM   42  H   UNL     1     -14.035  12.362  72.599  1.00  0.00     0.000 HD 
HETATM   43  C   UNL     1     -13.738  10.689  71.526  1.00  0.00     0.231 C  
HETATM   44  O   UNL     1     -13.499  12.050  71.880  1.00  0.00    -0.392 OA 
HETATM   45  C   UNL     1     -12.113   7.624  72.954  1.00  0.00     0.091 A  
HETATM   46  C   UNL     1     -11.340   6.677  72.283  1.00  0.00    -0.311 A  
HETATM   47  C   UNL     1     -11.053   6.836  70.924  1.00  0.00    -0.322 A  
HETATM   48  C   UNL     1     -11.502   7.957  70.221  1.00  0.00    -0.097 A  
HETATM   49  C   UNL     1     -12.260   8.914  70.901  1.00  0.00    -0.177 A  
ENDBRANCH  31  39
ENDBRANCH  23  26
ENDBRANCH  22  23
ENDBRANCH  12  22
ENDBRANCH   6   9
TORSDOF 8
ENDMDL
MODEL      132
REMARK 921   NORMALIZED FREE ENERGY PREDICTED BY IDOCK:   -2.64 KCAL/MOL
REMARK 922        TOTAL FREE ENERGY PREDICTED BY IDOCK:   -5.83 KCAL/MOL
REMARK 923 INTER-LIGAND FREE ENERGY PREDICTED BY IDOCK:   -5.67 KCAL/MOL
REMARK 924 INTRA-LIGAND FREE ENERGY PREDICTED BY IDOCK:   -0.17 KCAL/MOL
REMARK 927      BINDING AFFINITY PREDICTED BY RF-SCORE:    0.00 PKD
ROOT
HETATM    1  C   UNL     1      -9.483  14.596  65.380  1.00  0.00     0.138 C  
HETATM    2  C   UNL     1     -10.910  14.488  64.834  1.00  0.00    -0.421 C  
HETATM    3  N   UNL     1     -11.841  13.673  65.678  1.00  0.00    -0.347 N  
HETATM    4  C   UNL     1     -10.798  13.770  63.458  1.00  0.00     1.177 C  
HETATM    5  C   UNL     1     -11.463  15.892  64.546  1.00  0.00    -0.287 C  
HETATM    6  C   UNL     1     -12.412  13.699  66.923  1.00  0.00    -0.141 C  
HETATM    7  H   UNL     1     -12.143  12.842  65.169  1.00  0.00     0.000 HD 
HETATM    8  O   UNL     1     -13.377  12.934  67.066  1.00  0.00     2.169 OA 
ENDROOT
BRANCH   6   9
HETATM    9  C   UNL     1     -11.909  14.526  68.119  1.00  0.00    -0.313 C  
HETATM   10  C   UNL     1     -10.534  15.292  67.971  1.00  0.00    -0.248 C  
HETATM   11  N   UNL     1     -10.406  16.372  69.002  1.00  0.00    -0.259 NA 
HETATM   12  N   UNL     1     -11.996  13.806  69.421  1.00  0.00    -0.332 NA 
HETATM   13  C   UNL     1     -10.803  15.876  70.350  1.00  0.00    -0.313 C  
HETATM   14  C   UNL     1     -12.029  14.922  70.410  1.00  0.00    -0.314 C  
BRANCH  11  15
HETATM   15  C   UNL     1      -9.040  16.934  69.116  1.00  0.00    -0.091 C  
BRANCH  15  16
HETATM   16  C   UNL     1      -8.670  18.074  68.199  1.00  0.00    -0.277 A  
HETATM   17  C   UNL     1      -8.711  17.908  66.816  1.00  0.00    -0.254 A  
HETATM   18  N   UNL     1      -8.259  18.816  65.917  1.00  0.00    -0.476 NA 
HETATM   19  C   UNL     1      -7.646  20.224  67.774  1.00  0.00    -0.310 A  
HETATM   20  C   UNL     1      -7.733  19.952  66.419  1.00  0.00    -0.304 A  
HETATM   21  C   UNL     1      -8.120  19.267  68.674  1.00  0.00    -0.405 A  
ENDBRANCH  15  16
ENDBRANCH  11  15
BRANCH  12  22
HETATM   22  C   UNL     1     -10.886  12.851  69.791  1.00  0.00     0.487 C  
BRANCH  22  23
HETATM   23  C   UNL     1     -11.124  11.313  69.730  1.00  0.00    -0.167 C  
HETATM   24  O   UNL     1     -12.208  11.054  68.822  1.00  0.00    -0.693 OA 
HETATM   25  H   UNL     1     -12.353  10.115  68.785  1.00  0.00     0.000 HD 
BRANCH  23  26
HETATM   26  C   UNL     1      -9.989  10.434  69.128  1.00  0.00    -0.237 C  
HETATM   27  C   UNL     1     -10.270   9.003  68.604  1.00  0.00    -0.226 C  
HETATM   28  C   UNL     1      -9.084   8.544  67.685  1.00  0.00    -0.144 C  
HETATM   29  C   UNL     1     -10.419   8.014  69.780  1.00  0.00    -0.227 C  
HETATM   30  O   UNL     1      -9.902   8.210  70.875  1.00  0.00    -0.174 OA 
HETATM   31  N   UNL     1     -11.180   6.885  69.535  1.00  0.00    -0.467 N  
HETATM   32  H   UNL     1     -11.428   6.647  68.575  1.00  0.00     0.000 HD 
BRANCH  28  33
HETATM   33  C   UNL     1      -8.857   9.333  66.396  1.00  0.00    -0.169 A  
HETATM   34  C   UNL     1      -7.692  10.086  66.199  1.00  0.00    -0.108 A  
HETATM   35  C   UNL     1      -9.835   9.359  65.389  1.00  0.00    -0.159 A  
HETATM   36  C   UNL     1      -9.646  10.103  64.208  1.00  0.00    -0.354 A  
HETATM   37  C   UNL     1      -7.503  10.829  65.019  1.00  0.00     0.180 A  
HETATM   38  C   UNL     1      -8.479  10.834  64.023  1.00  0.00     0.021 A  
ENDBRANCH  28  33
BRANCH  31  39
HETATM   39  C   UNL     1     -11.641   6.018  70.640  1.00  0.00    -0.062 C  
HETATM   40  C   UNL     1     -11.694   6.752  73.055  1.00  0.00     0.218 C  
HETATM   41  C   UNL     1     -10.508   5.903  72.758  1.00  0.00    -0.239 A  
HETATM   42  H   UNL     1     -13.344   8.534  72.071  1.00  0.00     0.000 HD 
HETATM   43  C   UNL     1     -12.493   6.745  71.734  1.00  0.00    -0.349 C  
HETATM   44  O   UNL     1     -12.827   8.093  71.408  1.00  0.00    -0.308 OA 
HETATM   45  C   UNL     1      -9.518   5.518  73.664  1.00  0.00    -0.138 A  
HETATM   46  C   UNL     1      -8.507   4.667  73.221  1.00  0.00    -0.103 A  
HETATM   47  C   UNL     1      -8.501   4.203  71.902  1.00  0.00    -0.111 A  
HETATM   48  C   UNL     1      -9.484   4.608  70.994  1.00  0.00    -0.227 A  
HETATM   49  C   UNL     1     -10.486   5.477  71.436  1.00  0.00    -0.305 A  
ENDBRANCH  31  39
ENDBRANCH  23  26
ENDBRANCH  22  23
ENDBRANCH  12  22
ENDBRANCH   6   9
TORSDOF 8
ENDMDL
MODEL      133
REMARK 921   NORMALIZED FREE ENERGY PREDICTED BY IDOCK:   -2.59 KCAL/MOL
REMARK 922        TOTAL FREE ENERGY PREDICTED BY IDOCK:   -5.77 KCAL/MOL
REMARK 923 INTER-LIGAND FREE ENERGY PREDICTED BY IDOCK:   -5.07 KCAL/MOL
REMARK 924 INTRA-LIGAND FREE ENERGY PREDICTED BY IDOCK:   -0.70 KCAL/MOL
REMARK 927      BINDING AFFINITY PREDICTED BY RF-SCORE:    0.00 PKD
ROOT
HETATM    1  C   UNL     1     -13.048  10.857  70.142  1.00  0.00     0.109 C  
HETATM    2  C   UNL     1     -11.799  11.273  69.358  1.00  0.00    -0.355 C  
HETATM    3  N   UNL     1     -10.502  10.922  70.018  1.00  0.00    -0.405 N  
HETATM    4  C   UNL     1     -11.850  12.824  69.249  1.00  0.00    -0.358 C  
HETATM    5  C   UNL     1     -11.887  10.736  67.921  1.00  0.00     0.139 C  
HETATM    6  C   UNL     1      -9.790   9.814  70.394  1.00  0.00    -0.209 C  
HETATM    7  H   UNL     1      -9.991  11.770  70.263  1.00  0.00     0.000 HD 
HETATM    8  O   UNL     1      -8.595  10.027  70.647  1.00  0.00    -0.020 OA 
ENDROOT
BRANCH   6   9
HETATM    9  C   UNL     1     -10.370   8.402  70.583  1.00  0.00    -0.197 C  
HETATM   10  C   UNL     1      -9.544   7.365  71.444  1.00  0.00    -0.159 C  
HETATM   11  N   UNL     1     -10.412   6.232  71.900  1.00  0.00    -0.205 NA 
HETATM   12  N   UNL     1     -10.870   7.788  69.319  1.00  0.00    -0.142 NA 
HETATM   13  C   UNL     1     -11.254   5.718  70.783  1.00  0.00    -0.128 C  
HETATM   14  C   UNL     1     -11.849   6.777  69.813  1.00  0.00    -0.069 C  
BRANCH  11  15
HETATM   15  C   UNL     1      -9.657   5.084  72.457  1.00  0.00    -0.146 C  
BRANCH  15  16
HETATM   16  C   UNL     1      -9.500   3.860  71.590  1.00  0.00    -0.220 A  
HETATM   17  C   UNL     1     -10.134   2.668  71.932  1.00  0.00    -0.084 A  
HETATM   18  N   UNL     1      -9.938   1.482  71.305  1.00  0.00    -0.111 NA 
HETATM   19  C   UNL     1      -8.376   2.605  69.854  1.00  0.00    -0.074 A  
HETATM   20  C   UNL     1      -9.060   1.479  70.282  1.00  0.00    -0.082 A  
HETATM   21  C   UNL     1      -8.601   3.811  70.522  1.00  0.00    -0.110 A  
ENDBRANCH  15  16
ENDBRANCH  11  15
BRANCH  12  22
HETATM   22  C   UNL     1      -9.876   7.108  68.408  1.00  0.00    -0.152 C  
BRANCH  22  23
HETATM   23  C   UNL     1      -8.927   7.959  67.513  1.00  0.00    -0.127 C  
HETATM   24  O   UNL     1      -9.401   9.316  67.503  1.00  0.00    -0.127 OA 
HETATM   25  H   UNL     1      -8.821   9.835  66.957  1.00  0.00     0.000 HD 
BRANCH  23  26
HETATM   26  C   UNL     1      -7.458   8.140  67.995  1.00  0.00    -0.097 C  
HETATM   27  C   UNL     1      -7.000   9.432  68.718  1.00  0.00    -0.064 C  
HETATM   28  C   UNL     1      -5.641   9.163  69.453  1.00  0.00    -0.035 C  
HETATM   29  C   UNL     1      -6.816  10.584  67.707  1.00  0.00    -0.073 C  
HETATM   30  O   UNL     1      -6.570  10.387  66.521  1.00  0.00    -0.081 OA 
HETATM   31  N   UNL     1      -6.952  11.865  68.210  1.00  0.00    -0.071 N  
HETATM   32  H   UNL     1      -6.956  12.009  69.220  1.00  0.00     0.000 HD 
BRANCH  28  33
HETATM   33  C   UNL     1      -5.653   8.133  70.583  1.00  0.00    -0.029 A  
HETATM   34  C   UNL     1      -5.236   8.470  71.878  1.00  0.00    -0.037 A  
HETATM   35  C   UNL     1      -6.042   6.806  70.342  1.00  0.00    -0.024 A  
HETATM   36  C   UNL     1      -6.033   5.845  71.371  1.00  0.00    -0.030 A  
HETATM   37  C   UNL     1      -5.227   7.510  72.906  1.00  0.00    -0.037 A  
HETATM   38  C   UNL     1      -5.629   6.199  72.652  1.00  0.00    -0.036 A  
ENDBRANCH  28  33
BRANCH  31  39
HETATM   39  C   UNL     1      -7.091  13.031  67.311  1.00  0.00    -0.044 C  
HETATM   40  C   UNL     1      -8.491  15.057  67.867  1.00  0.00    -0.149 C  
HETATM   41  C   UNL     1      -9.194  14.133  66.933  1.00  0.00    -0.270 A  
HETATM   42  H   UNL     1      -6.802  15.193  69.865  1.00  0.00     0.000 HD 
HETATM   43  C   UNL     1      -7.095  14.420  68.033  1.00  0.00    -0.138 C  
HETATM   44  O   UNL     1      -6.800  14.350  69.427  1.00  0.00    -0.123 OA 
HETATM   45  C   UNL     1     -10.466  14.316  66.390  1.00  0.00    -0.282 A  
HETATM   46  C   UNL     1     -10.944  13.372  65.481  1.00  0.00    -0.294 A  
HETATM   47  C   UNL     1     -10.152  12.279  65.118  1.00  0.00    -0.284 A  
HETATM   48  C   UNL     1      -8.886  12.090  65.680  1.00  0.00     0.266 A  
HETATM   49  C   UNL     1      -8.418  13.028  66.606  1.00  0.00     0.091 A  
ENDBRANCH  31  39
ENDBRANCH  23  26
ENDBRANCH  22  23
ENDBRANCH  12  22
ENDBRANCH   6   9
TORSDOF 8
ENDMDL
MODEL      134
REMARK 921   NORMALIZED FREE ENERGY PREDICTED BY IDOCK:   -2.47 KCAL/MOL
REMARK 922        TOTAL FREE ENERGY PREDICTED BY IDOCK:   -5.60 KCAL/MOL
REMARK 923 INTER-LIGAND FREE ENERGY PREDICTED BY IDOCK:   -6.64 KCAL/MOL
REMARK 924 INTRA-LIGAND FREE ENERGY PREDICTED BY IDOCK:    1.05 KCAL/MOL
REMARK 927      BINDING AFFINITY PREDICTED BY RF-SCORE:    0.00 PKD
ROOT
HETATM    1  C   UNL     1      -7.397   8.326  71.588  1.00  0.00    -0.098 C  
HETATM    2  C   UNL     1      -7.777   6.937  72.110  1.00  0.00    -0.093 C  
HETATM    3  N   UNL     1      -9.238   6.617  72.029  1.00  0.00    -0.143 N  
HETATM    4  C   UNL     1      -7.390   6.917  73.617  1.00  0.00    -0.083 C  
HETATM    5  C   UNL     1      -6.908   5.870  71.427  1.00  0.00    -0.063 C  
HETATM    6  C   UNL     1     -10.213   6.433  71.085  1.00  0.00    -0.191 C  
HETATM    7  H   UNL     1      -9.626   6.500  72.965  1.00  0.00     0.000 HD 
HETATM    8  O   UNL     1     -11.239   5.876  71.502  1.00  0.00    -0.272 OA 
ENDROOT
BRANCH   6   9
HETATM    9  C   UNL     1     -10.147   6.917  69.626  1.00  0.00    -0.184 C  
HETATM   10  C   UNL     1      -8.809   6.677  68.820  1.00  0.00    -0.126 C  
HETATM   11  N   UNL     1      -9.043   6.784  67.344  1.00  0.00    -0.118 NA 
HETATM   12  N   UNL     1     -10.659   8.304  69.434  1.00  0.00    -0.219 NA 
HETATM   13  C   UNL     1      -9.864   7.984  67.017  1.00  0.00    -0.227 C  
HETATM   14  C   UNL     1     -11.031   8.317  67.989  1.00  0.00     0.196 C  
BRANCH  11  15
HETATM   15  C   UNL     1      -7.798   6.862  66.543  1.00  0.00    -0.106 C  
BRANCH  15  16
HETATM   16  C   UNL     1      -7.864   7.560  65.208  1.00  0.00    -0.120 A  
HETATM   17  C   UNL     1      -8.318   6.882  64.079  1.00  0.00     0.184 A  
HETATM   18  N   UNL     1      -8.275   7.372  62.815  1.00  0.00    -0.071 NA 
HETATM   19  C   UNL     1      -7.273   9.370  63.715  1.00  0.00    -0.102 A  
HETATM   20  C   UNL     1      -7.750   8.605  62.664  1.00  0.00    -0.121 A  
HETATM   21  C   UNL     1      -7.331   8.836  65.005  1.00  0.00    -0.089 A  
ENDBRANCH  15  16
ENDBRANCH  11  15
BRANCH  12  22
HETATM   22  C   UNL     1      -9.729   9.460  69.715  1.00  0.00    -0.199 C  
BRANCH  22  23
HETATM   23  C   UNL     1      -9.673  10.674  68.741  1.00  0.00    -0.189 C  
HETATM   24  O   UNL     1     -10.395  11.768  69.330  1.00  0.00    -0.429 OA 
HETATM   25  H   UNL     1     -10.361  12.508  68.736  1.00  0.00     0.000 HD 
BRANCH  23  26
HETATM   26  C   UNL     1      -8.281  11.319  68.477  1.00  0.00    -0.150 C  
HETATM   27  C   UNL     1      -8.142  12.823  68.131  1.00  0.00    -0.158 C  
HETATM   28  C   UNL     1      -6.655  13.271  68.348  1.00  0.00    -0.093 C  
HETATM   29  C   UNL     1      -8.546  13.082  66.663  1.00  0.00     0.040 C  
HETATM   30  O   UNL     1      -8.482  12.212  65.799  1.00  0.00     0.315 OA 
HETATM   31  N   UNL     1      -8.994  14.357  66.369  1.00  0.00    -0.476 N  
HETATM   32  H   UNL     1      -8.850  15.106  67.045  1.00  0.00     0.000 HD 
BRANCH  28  33
HETATM   33  C   UNL     1      -6.109  13.205  69.775  1.00  0.00    -0.126 A  
HETATM   34  C   UNL     1      -5.696  11.992  70.340  1.00  0.00    -0.168 A  
HETATM   35  C   UNL     1      -6.050  14.358  70.574  1.00  0.00    -0.185 A  
HETATM   36  C   UNL     1      -5.572  14.303  71.898  1.00  0.00    -0.168 A  
HETATM   37  C   UNL     1      -5.218  11.937  71.662  1.00  0.00     0.076 A  
HETATM   38  C   UNL     1      -5.154  13.094  72.439  1.00  0.00    -0.018 A  
ENDBRANCH  28  33
BRANCH  31  39
HETATM   39  C   UNL     1      -9.679  14.652  65.093  1.00  0.00     0.038 C  
HETATM   40  C   UNL     1     -12.111  15.314  64.940  1.00  0.00    -0.039 C  
HETATM   41  C   UNL     1     -11.902  13.878  64.604  1.00  0.00    -0.428 A  
HETATM   42  H   UNL     1     -11.258  17.308  66.411  1.00  0.00     0.000 HD 
HETATM   43  C   UNL     1     -10.680  15.855  65.148  1.00  0.00    -0.429 C  
HETATM   44  O   UNL     1     -10.651  16.578  66.378  1.00  0.00    -0.295 OA 
HETATM   45  C   UNL     1     -12.890  12.964  64.234  1.00  0.00    -0.179 A  
HETATM   46  C   UNL     1     -12.502  11.668  63.896  1.00  0.00    -0.223 A  
HETATM   47  C   UNL     1     -11.152  11.307  63.916  1.00  0.00    -0.317 A  
HETATM   48  C   UNL     1     -10.169  12.222  64.307  1.00  0.00    -0.356 A  
HETATM   49  C   UNL     1     -10.563  13.514  64.665  1.00  0.00    -0.441 A  
ENDBRANCH  31  39
ENDBRANCH  23  26
ENDBRANCH  22  23
ENDBRANCH  12  22
ENDBRANCH   6   9
TORSDOF 8
ENDMDL
MODEL      135
REMARK 921   NORMALIZED FREE ENERGY PREDICTED BY IDOCK:   -2.45 KCAL/MOL
REMARK 922        TOTAL FREE ENERGY PREDICTED BY IDOCK:   -5.56 KCAL/MOL
REMARK 923 INTER-LIGAND FREE ENERGY PREDICTED BY IDOCK:   -5.54 KCAL/MOL
REMARK 924 INTRA-LIGAND FREE ENERGY PREDICTED BY IDOCK:   -0.02 KCAL/MOL
REMARK 927      BINDING AFFINITY PREDICTED BY RF-SCORE:    0.00 PKD
ROOT
HETATM    1  C   UNL     1     -11.946  13.381  72.766  1.00  0.00     2.032 C  
HETATM    2  C   UNL     1     -13.039  13.168  71.713  1.00  0.00    -0.383 C  
HETATM    3  N   UNL     1     -12.600  12.402  70.503  1.00  0.00    -0.154 N  
HETATM    4  C   UNL     1     -13.457  14.585  71.227  1.00  0.00    -0.428 C  
HETATM    5  C   UNL     1     -14.282  12.553  72.373  1.00  0.00     0.307 C  
HETATM    6  C   UNL     1     -12.154  11.152  70.167  1.00  0.00    -0.362 C  
HETATM    7  H   UNL     1     -12.648  12.995  69.674  1.00  0.00     0.000 HD 
HETATM    8  O   UNL     1     -12.202  10.893  68.955  1.00  0.00    -0.462 OA 
ENDROOT
BRANCH   6   9
HETATM    9  C   UNL     1     -11.559  10.123  71.144  1.00  0.00    -0.346 C  
HETATM   10  C   UNL     1     -10.011   9.817  71.054  1.00  0.00     0.084 C  
HETATM   11  N   UNL     1      -9.517   9.168  72.311  1.00  0.00    -0.082 NA 
HETATM   12  N   UNL     1     -12.359   8.869  71.251  1.00  0.00    -0.305 NA 
HETATM   13  C   UNL     1     -10.433   8.076  72.746  1.00  0.00    -0.345 C  
HETATM   14  C   UNL     1     -11.957   8.338  72.585  1.00  0.00    -0.295 C  
BRANCH  11  15
HETATM   15  C   UNL     1      -8.157   8.591  72.193  1.00  0.00    -0.101 C  
BRANCH  15  16
HETATM   16  C   UNL     1      -7.323   8.993  71.002  1.00  0.00    -0.125 A  
HETATM   17  C   UNL     1      -7.250   8.170  69.881  1.00  0.00    -0.060 A  
HETATM   18  N   UNL     1      -6.417   8.369  68.830  1.00  0.00    -0.052 NA 
HETATM   19  C   UNL     1      -5.602  10.335  69.959  1.00  0.00    -0.048 A  
HETATM   20  C   UNL     1      -5.610   9.447  68.896  1.00  0.00    -0.036 A  
HETATM   21  C   UNL     1      -6.471  10.100  71.027  1.00  0.00     0.115 A  
ENDBRANCH  15  16
ENDBRANCH  11  15
BRANCH  12  22
HETATM   22  C   UNL     1     -12.153   7.794  70.210  1.00  0.00     0.324 C  
BRANCH  22  23
HETATM   23  C   UNL     1     -10.768   7.632  69.516  1.00  0.00    -0.209 C  
HETATM   24  O   UNL     1     -10.064   6.551  70.149  1.00  0.00    -0.172 OA 
HETATM   25  H   UNL     1      -9.219   6.452  69.726  1.00  0.00     0.000 HD 
BRANCH  23  26
HETATM   26  C   UNL     1     -10.761   7.185  68.025  1.00  0.00    -0.232 C  
HETATM   27  C   UNL     1      -9.642   7.640  67.053  1.00  0.00    -0.228 C  
HETATM   28  C   UNL     1      -9.646   6.715  65.787  1.00  0.00     0.302 C  
HETATM   29  C   UNL     1      -9.864   9.104  66.618  1.00  0.00    -0.240 C  
HETATM   30  O   UNL     1     -10.972   9.631  66.619  1.00  0.00    -0.005 OA 
HETATM   31  N   UNL     1      -8.735   9.804  66.230  1.00  0.00    -0.137 N  
HETATM   32  H   UNL     1      -7.870   9.295  66.048  1.00  0.00     0.000 HD 
BRANCH  28  33
HETATM   33  C   UNL     1      -9.320   5.237  66.003  1.00  0.00    -0.167 A  
HETATM   34  C   UNL     1      -9.920   4.238  65.225  1.00  0.00    -0.229 A  
HETATM   35  C   UNL     1      -8.439   4.838  67.021  1.00  0.00    -0.105 A  
HETATM   36  C   UNL     1      -8.151   3.478  67.244  1.00  0.00    -0.082 A  
HETATM   37  C   UNL     1      -9.632   2.879  65.448  1.00  0.00     0.040 A  
HETATM   38  C   UNL     1      -8.745   2.501  66.455  1.00  0.00    -0.128 A  
ENDBRANCH  28  33
BRANCH  31  39
HETATM   39  C   UNL     1      -8.760  11.273  66.075  1.00  0.00    -0.164 C  
HETATM   40  C   UNL     1     -10.246  12.791  67.440  1.00  0.00    -0.222 C  
HETATM   41  C   UNL     1     -10.801  12.544  66.080  1.00  0.00    -0.309 A  
HETATM   42  H   UNL     1      -8.854  11.747  69.399  1.00  0.00     0.000 HD 
HETATM   43  C   UNL     1      -8.880  12.073  67.416  1.00  0.00    -0.178 C  
HETATM   44  O   UNL     1      -8.782  11.262  68.586  1.00  0.00    -0.154 OA 
HETATM   45  C   UNL     1     -11.987  13.067  65.563  1.00  0.00    -0.470 A  
HETATM   46  C   UNL     1     -12.322  12.775  64.242  1.00  0.00    -0.493 A  
HETATM   47  C   UNL     1     -11.476  11.987  63.457  1.00  0.00    -0.536 A  
HETATM   48  C   UNL     1     -10.299  11.449  63.986  1.00  0.00    -0.418 A  
HETATM   49  C   UNL     1      -9.975  11.728  65.317  1.00  0.00    -0.284 A  
ENDBRANCH  31  39
ENDBRANCH  23  26
ENDBRANCH  22  23
ENDBRANCH  12  22
ENDBRANCH   6   9
TORSDOF 8
ENDMDL
MODEL      136
REMARK 921   NORMALIZED FREE ENERGY PREDICTED BY IDOCK:   -2.37 KCAL/MOL
REMARK 922        TOTAL FREE ENERGY PREDICTED BY IDOCK:   -5.44 KCAL/MOL
REMARK 923 INTER-LIGAND FREE ENERGY PREDICTED BY IDOCK:   -4.67 KCAL/MOL
REMARK 924 INTRA-LIGAND FREE ENERGY PREDICTED BY IDOCK:   -0.78 KCAL/MOL
REMARK 927      BINDING AFFINITY PREDICTED BY RF-SCORE:    0.00 PKD
ROOT
HETATM    1  C   UNL     1     -12.247  11.453  69.291  1.00  0.00    -0.271 C  
HETATM    2  C   UNL     1     -11.743  12.883  69.070  1.00  0.00    -0.327 C  
HETATM    3  N   UNL     1     -10.305  13.101  69.426  1.00  0.00    -0.280 N  
HETATM    4  C   UNL     1     -12.587  13.792  70.010  1.00  0.00    -0.207 C  
HETATM    5  C   UNL     1     -12.064  13.329  67.635  1.00  0.00    -0.295 C  
HETATM    6  C   UNL     1      -9.060  12.694  69.026  1.00  0.00     0.513 C  
HETATM    7  H   UNL     1     -10.230  13.754  70.206  1.00  0.00     0.000 HD 
HETATM    8  O   UNL     1      -8.127  13.397  69.442  1.00  0.00     0.459 OA 
ENDROOT
BRANCH   6   9
HETATM    9  C   UNL     1      -8.756  11.437  68.192  1.00  0.00    -0.154 C  
HETATM   10  C   UNL     1      -9.438  11.300  66.773  1.00  0.00    -0.179 C  
HETATM   11  N   UNL     1      -8.721  10.293  65.927  1.00  0.00    -0.151 NA 
HETATM   12  N   UNL     1      -8.850  10.168  68.969  1.00  0.00    -0.155 NA 
HETATM   13  C   UNL     1      -8.432   9.052  66.699  1.00  0.00    -0.122 C  
HETATM   14  C   UNL     1      -7.993   9.238  68.179  1.00  0.00    -0.099 C  
BRANCH  11  15
HETATM   15  C   UNL     1      -9.463   9.897  64.706  1.00  0.00    -0.291 C  
BRANCH  15  16
HETATM   16  C   UNL     1     -10.527  10.837  64.195  1.00  0.00    -0.309 A  
HETATM   17  C   UNL     1     -10.245  11.726  63.161  1.00  0.00    -0.337 A  
HETATM   18  N   UNL     1     -11.082  12.705  62.736  1.00  0.00     0.697 NA 
HETATM   19  C   UNL     1     -12.651  11.975  64.412  1.00  0.00    -0.292 A  
HETATM   20  C   UNL     1     -12.264  12.807  63.375  1.00  0.00    -0.504 A  
HETATM   21  C   UNL     1     -11.765  10.978  64.828  1.00  0.00     0.757 A  
ENDBRANCH  15  16
ENDBRANCH  11  15
BRANCH  12  22
HETATM   22  C   UNL     1     -10.211   9.543  69.162  1.00  0.00    -0.201 C  
BRANCH  22  23
HETATM   23  C   UNL     1     -10.754   9.276  70.597  1.00  0.00    -0.269 C  
HETATM   24  O   UNL     1     -11.923   8.447  70.497  1.00  0.00    -0.488 OA 
HETATM   25  H   UNL     1     -12.255   8.284  71.373  1.00  0.00     0.000 HD 
BRANCH  23  26
HETATM   26  C   UNL     1      -9.857   8.444  71.560  1.00  0.00    -0.274 C  
HETATM   27  C   UNL     1      -8.891   7.357  71.025  1.00  0.00    -0.143 C  
HETATM   28  C   UNL     1      -7.836   7.009  72.133  1.00  0.00    -0.092 C  
HETATM   29  C   UNL     1      -9.669   6.082  70.640  1.00  0.00    -0.174 C  
HETATM   30  O   UNL     1     -10.751   5.792  71.142  1.00  0.00    -0.249 OA 
HETATM   31  N   UNL     1      -9.082   5.274  69.682  1.00  0.00    -0.113 N  
HETATM   32  H   UNL     1      -8.106   5.426  69.430  1.00  0.00     0.000 HD 
BRANCH  28  33
HETATM   33  C   UNL     1      -6.881   8.124  72.560  1.00  0.00    -0.096 A  
HETATM   34  C   UNL     1      -6.376   8.189  73.865  1.00  0.00    -0.126 A  
HETATM   35  C   UNL     1      -6.519   9.141  71.663  1.00  0.00    -0.018 A  
HETATM   36  C   UNL     1      -5.659  10.186  72.054  1.00  0.00     0.218 A  
HETATM   37  C   UNL     1      -5.517   9.232  74.256  1.00  0.00    -0.123 A  
HETATM   38  C   UNL     1      -5.157  10.228  73.349  1.00  0.00     0.128 A  
ENDBRANCH  28  33
BRANCH  31  39
HETATM   39  C   UNL     1      -9.844   4.196  69.018  1.00  0.00    -0.036 C  
HETATM   40  C   UNL     1      -8.756   2.230  67.865  1.00  0.00    -0.134 C  
HETATM   41  C   UNL     1      -9.198   3.270  66.895  1.00  0.00    -0.196 A  
HETATM   42  H   UNL     1      -7.830   1.823  70.282  1.00  0.00     0.000 HD 
HETATM   43  C   UNL     1      -9.262   2.757  69.225  1.00  0.00    -0.141 C  
HETATM   44  O   UNL     1      -8.183   2.696  70.156  1.00  0.00    -0.041 OA 
HETATM   45  C   UNL     1      -9.065   3.216  65.506  1.00  0.00    -0.151 A  
HETATM   46  C   UNL     1      -9.593   4.259  64.747  1.00  0.00    -0.169 A  
HETATM   47  C   UNL     1     -10.253   5.322  65.370  1.00  0.00     0.276 A  
HETATM   48  C   UNL     1     -10.367   5.380  66.761  1.00  0.00    -0.321 A  
HETATM   49  C   UNL     1      -9.819   4.343  67.522  1.00  0.00    -0.180 A  
ENDBRANCH  31  39
ENDBRANCH  23  26
ENDBRANCH  22  23
ENDBRANCH  12  22
ENDBRANCH   6   9
TORSDOF 8
ENDMDL
MODEL      137
REMARK 921   NORMALIZED FREE ENERGY PREDICTED BY IDOCK:   -2.21 KCAL/MOL
REMARK 922        TOTAL FREE ENERGY PREDICTED BY IDOCK:   -5.21 KCAL/MOL
REMARK 923 INTER-LIGAND FREE ENERGY PREDICTED BY IDOCK:   -6.93 KCAL/MOL
REMARK 924 INTRA-LIGAND FREE ENERGY PREDICTED BY IDOCK:    1.72 KCAL/MOL
REMARK 927      BINDING AFFINITY PREDICTED BY RF-SCORE:    0.00 PKD
ROOT
HETATM    1  C   UNL     1     -10.552  11.820  67.920  1.00  0.00    -0.231 C  
HETATM    2  C   UNL     1     -11.594  12.357  68.907  1.00  0.00    -0.316 C  
HETATM    3  N   UNL     1     -11.045  13.267  69.962  1.00  0.00    -0.366 N  
HETATM    4  C   UNL     1     -12.182  11.115  69.638  1.00  0.00    -0.360 C  
HETATM    5  C   UNL     1     -12.759  12.995  68.134  1.00  0.00     1.253 C  
HETATM    6  C   UNL     1     -10.440  14.491  70.070  1.00  0.00     0.250 C  
HETATM    7  H   UNL     1     -11.156  12.845  70.884  1.00  0.00     0.000 HD 
HETATM    8  O   UNL     1     -10.438  14.968  71.214  1.00  0.00     0.191 OA 
ENDROOT
BRANCH   6   9
HETATM    9  C   UNL     1      -9.733  15.242  68.928  1.00  0.00    -0.220 C  
HETATM   10  C   UNL     1     -10.006  14.770  67.444  1.00  0.00    -0.223 C  
HETATM   11  N   UNL     1      -9.627  15.837  66.462  1.00  0.00    -0.247 NA 
HETATM   12  N   UNL     1      -8.280  15.468  69.172  1.00  0.00    -0.229 NA 
HETATM   13  C   UNL     1      -8.294  16.419  66.791  1.00  0.00    -0.250 C  
HETATM   14  C   UNL     1      -7.981  16.638  68.298  1.00  0.00    -0.192 C  
BRANCH  11  15
HETATM   15  C   UNL     1      -9.577  15.369  65.057  1.00  0.00     0.417 C  
BRANCH  15  16
HETATM   16  C   UNL     1     -10.569  14.316  64.631  1.00  0.00    -0.364 A  
HETATM   17  C   UNL     1     -11.932  14.602  64.601  1.00  0.00    -0.462 A  
HETATM   18  N   UNL     1     -12.908  13.688  64.378  1.00  0.00    -0.586 NA 
HETATM   19  C   UNL     1     -11.181  12.020  64.180  1.00  0.00    -0.441 A  
HETATM   20  C   UNL     1     -12.508  12.416  64.176  1.00  0.00    -0.442 A  
HETATM   21  C   UNL     1     -10.200  12.986  64.414  1.00  0.00    -0.335 A  
ENDBRANCH  15  16
ENDBRANCH  11  15
BRANCH  12  22
HETATM   22  C   UNL     1      -7.315  14.352  68.850  1.00  0.00    -0.127 C  
BRANCH  22  23
HETATM   23  C   UNL     1      -7.840  13.007  68.265  1.00  0.00    -0.143 C  
HETATM   24  O   UNL     1      -8.216  13.221  66.894  1.00  0.00    -0.383 OA 
HETATM   25  H   UNL     1      -8.537  12.400  66.538  1.00  0.00     0.000 HD 
BRANCH  23  26
HETATM   26  C   UNL     1      -6.825  11.835  68.136  1.00  0.00    -0.066 C  
HETATM   27  C   UNL     1      -7.244  10.370  68.421  1.00  0.00    -0.080 C  
HETATM   28  C   UNL     1      -6.181   9.396  67.805  1.00  0.00    -0.054 C  
HETATM   29  C   UNL     1      -7.347  10.121  69.941  1.00  0.00    -0.165 C  
HETATM   30  O   UNL     1      -6.719  10.783  70.761  1.00  0.00    -0.281 OA 
HETATM   31  N   UNL     1      -8.198   9.105  70.337  1.00  0.00    -0.151 N  
HETATM   32  H   UNL     1      -8.549   8.446  69.642  1.00  0.00     0.000 HD 
BRANCH  28  33
HETATM   33  C   UNL     1      -6.024   9.409  66.284  1.00  0.00    -0.059 A  
HETATM   34  C   UNL     1      -6.289  10.562  65.535  1.00  0.00    -0.112 A  
HETATM   35  C   UNL     1      -5.650   8.246  65.591  1.00  0.00    -0.040 A  
HETATM   36  C   UNL     1      -5.527   8.241  64.188  1.00  0.00    -0.051 A  
HETATM   37  C   UNL     1      -6.166  10.558  64.133  1.00  0.00     0.009 A  
HETATM   38  C   UNL     1      -5.782   9.397  63.462  1.00  0.00    -0.087 A  
ENDBRANCH  28  33
BRANCH  31  39
HETATM   39  C   UNL     1      -8.609   8.957  71.749  1.00  0.00    -0.042 C  
HETATM   40  C   UNL     1      -8.458   6.781  73.021  1.00  0.00    -0.126 C  
HETATM   41  C   UNL     1      -9.844   7.054  72.548  1.00  0.00    -0.175 A  
HETATM   42  H   UNL     1      -5.915   7.084  72.468  1.00  0.00     0.000 HD 
HETATM   43  C   UNL     1      -7.674   8.046  72.613  1.00  0.00    -0.122 C  
HETATM   44  O   UNL     1      -6.483   7.637  71.943  1.00  0.00    -0.042 OA 
HETATM   45  C   UNL     1     -10.964   6.249  72.759  1.00  0.00    -0.291 A  
HETATM   46  C   UNL     1     -12.200   6.694  72.292  1.00  0.00    -0.185 A  
HETATM   47  C   UNL     1     -12.307   7.926  71.641  1.00  0.00    -0.344 A  
HETATM   48  C   UNL     1     -11.178   8.719  71.415  1.00  0.00    -0.362 A  
HETATM   49  C   UNL     1      -9.937   8.262  71.867  1.00  0.00    -0.299 A  
ENDBRANCH  31  39
ENDBRANCH  23  26
ENDBRANCH  22  23
ENDBRANCH  12  22
ENDBRANCH   6   9
TORSDOF 8
ENDMDL
MODEL      138
REMARK 921   NORMALIZED FREE ENERGY PREDICTED BY IDOCK:   -2.20 KCAL/MOL
REMARK 922        TOTAL FREE ENERGY PREDICTED BY IDOCK:   -5.20 KCAL/MOL
REMARK 923 INTER-LIGAND FREE ENERGY PREDICTED BY IDOCK:   -4.99 KCAL/MOL
REMARK 924 INTRA-LIGAND FREE ENERGY PREDICTED BY IDOCK:   -0.21 KCAL/MOL
REMARK 927      BINDING AFFINITY PREDICTED BY RF-SCORE:    0.00 PKD
ROOT
HETATM    1  C   UNL     1      -8.592   7.363  69.049  1.00  0.00    -0.133 C  
HETATM    2  C   UNL     1      -9.497   8.038  68.013  1.00  0.00    -0.146 C  
HETATM    3  N   UNL     1      -9.915   9.433  68.362  1.00  0.00    -0.164 N  
HETATM    4  C   UNL     1     -10.793   7.180  67.941  1.00  0.00    -0.219 C  
HETATM    5  C   UNL     1      -8.845   7.954  66.624  1.00  0.00    -0.166 C  
HETATM    6  C   UNL     1      -9.358  10.669  68.553  1.00  0.00    -0.170 C  
HETATM    7  H   UNL     1     -10.924   9.474  68.500  1.00  0.00     0.000 HD 
HETATM    8  O   UNL     1     -10.167  11.609  68.537  1.00  0.00    -0.200 OA 
ENDROOT
BRANCH   6   9
HETATM    9  C   UNL     1      -7.873  10.945  68.846  1.00  0.00    -0.142 C  
HETATM   10  C   UNL     1      -7.270  10.416  70.207  1.00  0.00     0.013 C  
HETATM   11  N   UNL     1      -5.774  10.362  70.148  1.00  0.00    -0.054 NA 
HETATM   12  N   UNL     1      -7.464  12.354  68.577  1.00  0.00    -0.111 NA 
HETATM   13  C   UNL     1      -5.215  11.613  69.562  1.00  0.00    -0.057 C  
HETATM   14  C   UNL     1      -5.993  12.231  68.365  1.00  0.00    -0.054 C  
BRANCH  11  15
HETATM   15  C   UNL     1      -5.128  10.159  71.467  1.00  0.00    -0.081 C  
BRANCH  15  16
HETATM   16  C   UNL     1      -5.480   8.910  72.236  1.00  0.00    -0.061 A  
HETATM   17  C   UNL     1      -5.606   8.948  73.623  1.00  0.00    -0.108 A  
HETATM   18  N   UNL     1      -5.771   7.859  74.413  1.00  0.00    -0.076 NA 
HETATM   19  C   UNL     1      -5.701   6.508  72.419  1.00  0.00    -0.038 A  
HETATM   20  C   UNL     1      -5.812   6.664  73.791  1.00  0.00    -0.058 A  
HETATM   21  C   UNL     1      -5.531   7.651  71.634  1.00  0.00    -0.035 A  
ENDBRANCH  15  16
ENDBRANCH  11  15
BRANCH  12  22
HETATM   22  C   UNL     1      -7.725  13.394  69.641  1.00  0.00     0.904 C  
BRANCH  22  23
HETATM   23  C   UNL     1      -8.098  14.850  69.237  1.00  0.00    -0.135 C  
HETATM   24  O   UNL     1      -7.458  15.757  70.150  1.00  0.00     0.173 OA 
HETATM   25  H   UNL     1      -7.686  16.646  69.904  1.00  0.00     0.000 HD 
BRANCH  23  26
HETATM   26  C   UNL     1      -7.582  15.369  67.863  1.00  0.00    -0.149 C  
HETATM   27  C   UNL     1      -8.550  15.977  66.816  1.00  0.00    -0.292 C  
HETATM   28  C   UNL     1      -7.725  16.788  65.756  1.00  0.00     0.565 C  
HETATM   29  C   UNL     1      -9.347  14.865  66.103  1.00  0.00    -0.272 C  
HETATM   30  O   UNL     1      -8.930  13.715  66.004  1.00  0.00     0.116 OA 
HETATM   31  N   UNL     1     -10.574  15.232  65.580  1.00  0.00    -0.337 N  
HETATM   32  H   UNL     1     -10.807  16.222  65.498  1.00  0.00     0.000 HD 
BRANCH  28  33
HETATM   33  C   UNL     1      -6.961  18.014  66.257  1.00  0.00    -0.299 A  
HETATM   34  C   UNL     1      -7.295  18.634  67.468  1.00  0.00    -0.227 A  
HETATM   35  C   UNL     1      -5.929  18.579  65.492  1.00  0.00    -0.272 A  
HETATM   36  C   UNL     1      -5.236  19.722  65.933  1.00  0.00    -0.168 A  
HETATM   37  C   UNL     1      -6.603  19.777  67.910  1.00  0.00    -0.276 A  
HETATM   38  C   UNL     1      -5.572  20.317  67.143  1.00  0.00    -0.189 A  
ENDBRANCH  28  33
BRANCH  31  39
HETATM   39  C   UNL     1     -11.554  14.217  65.139  1.00  0.00    -0.355 C  
HETATM   40  C   UNL     1     -12.154  12.179  66.503  1.00  0.00     0.010 C  
HETATM   41  C   UNL     1     -11.190  11.857  65.414  1.00  0.00    -0.351 A  
HETATM   42  H   UNL     1     -12.916  14.020  68.204  1.00  0.00     0.000 HD 
HETATM   43  C   UNL     1     -12.485  13.669  66.272  1.00  0.00    -0.366 C  
HETATM   44  O   UNL     1     -12.351  14.353  67.516  1.00  0.00    -0.273 OA 
HETATM   45  C   UNL     1     -10.655  10.600  65.128  1.00  0.00    -0.190 A  
HETATM   46  C   UNL     1      -9.808  10.473  64.028  1.00  0.00    -0.387 A  
HETATM   47  C   UNL     1      -9.518  11.582  63.229  1.00  0.00    -0.303 A  
HETATM   48  C   UNL     1     -10.040  12.843  63.532  1.00  0.00     0.519 A  
HETATM   49  C   UNL     1     -10.874  12.971  64.647  1.00  0.00    -0.373 A  
ENDBRANCH  31  39
ENDBRANCH  23  26
ENDBRANCH  22  23
ENDBRANCH  12  22
ENDBRANCH   6   9
TORSDOF 8
ENDMDL
MODEL      139
REMARK 921   NORMALIZED FREE ENERGY PREDICTED BY IDOCK:   -2.10 KCAL/MOL
REMARK 922        TOTAL FREE ENERGY PREDICTED BY IDOCK:   -5.05 KCAL/MOL
REMARK 923 INTER-LIGAND FREE ENERGY PREDICTED BY IDOCK:   -4.45 KCAL/MOL
REMARK 924 INTRA-LIGAND FREE ENERGY PREDICTED BY IDOCK:   -0.60 KCAL/MOL
REMARK 927      BINDING AFFINITY PREDICTED BY RF-SCORE:    0.00 PKD
ROOT
HETATM    1  C   UNL     1      -9.329   6.707  68.393  1.00  0.00    -0.123 C  
HETATM    2  C   UNL     1     -10.243   6.948  67.188  1.00  0.00    -0.240 C  
HETATM    3  N   UNL     1      -9.596   7.671  66.047  1.00  0.00    -0.432 N  
HETATM    4  C   UNL     1     -11.406   7.848  67.695  1.00  0.00     0.809 C  
HETATM    5  C   UNL     1     -10.884   5.622  66.750  1.00  0.00    -0.296 C  
HETATM    6  C   UNL     1      -8.589   7.490  65.137  1.00  0.00     0.042 C  
HETATM    7  H   UNL     1     -10.043   8.576  65.904  1.00  0.00     0.000 HD 
HETATM    8  O   UNL     1      -8.621   8.264  64.168  1.00  0.00    -0.028 OA 
ENDROOT
BRANCH   6   9
HETATM    9  C   UNL     1      -7.434   6.483  65.270  1.00  0.00    -0.082 C  
HETATM   10  C   UNL     1      -7.791   4.978  65.596  1.00  0.00    -0.091 C  
HETATM   11  N   UNL     1      -6.649   4.069  65.258  1.00  0.00    -0.046 NA 
HETATM   12  N   UNL     1      -6.308   6.974  66.116  1.00  0.00    -0.048 NA 
HETATM   13  C   UNL     1      -5.358   4.619  65.761  1.00  0.00    -0.009 C  
HETATM   14  C   UNL     1      -5.158   6.156  65.634  1.00  0.00    -0.013 C  
BRANCH  11  15
HETATM   15  C   UNL     1      -6.792   2.697  65.801  1.00  0.00    -0.044 C  
BRANCH  15  16
HETATM   16  C   UNL     1      -7.427   2.542  67.161  1.00  0.00    -0.061 A  
HETATM   17  C   UNL     1      -8.581   1.779  67.317  1.00  0.00    -0.096 A  
HETATM   18  N   UNL     1      -9.306   1.701  68.460  1.00  0.00    -0.167 NA 
HETATM   19  C   UNL     1      -7.722   3.213  69.466  1.00  0.00    -0.048 A  
HETATM   20  C   UNL     1      -8.859   2.424  69.507  1.00  0.00    -0.091 A  
HETATM   21  C   UNL     1      -6.999   3.273  68.272  1.00  0.00    -0.050 A  
ENDBRANCH  15  16
ENDBRANCH  11  15
BRANCH  12  22
HETATM   22  C   UNL     1      -6.421   6.833  67.615  1.00  0.00    -0.049 C  
BRANCH  22  23
HETATM   23  C   UNL     1      -5.551   7.722  68.552  1.00  0.00    -0.028 C  
HETATM   24  O   UNL     1      -5.267   8.958  67.875  1.00  0.00    -0.034 OA 
HETATM   25  H   UNL     1      -4.735   9.501  68.447  1.00  0.00     0.000 HD 
BRANCH  23  26
HETATM   26  C   UNL     1      -6.202   8.226  69.873  1.00  0.00    -0.032 C  
HETATM   27  C   UNL     1      -7.651   8.776  69.898  1.00  0.00    -0.065 C  
HETATM   28  C   UNL     1      -8.174   8.793  71.376  1.00  0.00    -0.203 C  
HETATM   29  C   UNL     1      -7.698  10.208  69.323  1.00  0.00    -0.126 C  
HETATM   30  O   UNL     1      -6.723  10.955  69.333  1.00  0.00    -0.080 OA 
HETATM   31  N   UNL     1      -8.906  10.610  68.782  1.00  0.00    -0.154 N  
HETATM   32  H   UNL     1      -9.743  10.056  68.963  1.00  0.00     0.000 HD 
BRANCH  28  33
HETATM   33  C   UNL     1      -8.317   7.442  72.079  1.00  0.00    -0.117 A  
HETATM   34  C   UNL     1      -9.576   6.930  72.422  1.00  0.00    -0.167 A  
HETATM   35  C   UNL     1      -7.184   6.696  72.439  1.00  0.00    -0.087 A  
HETATM   36  C   UNL     1      -7.304   5.463  73.108  1.00  0.00    -0.092 A  
HETATM   37  C   UNL     1      -9.697   5.698  73.091  1.00  0.00    -0.164 A  
HETATM   38  C   UNL     1      -8.561   4.964  73.430  1.00  0.00    -0.105 A  
ENDBRANCH  28  33
BRANCH  31  39
HETATM   39  C   UNL     1      -9.006  11.825  67.947  1.00  0.00    -0.180 C  
HETATM   40  C   UNL     1     -11.106  12.501  66.720  1.00  0.00    -0.323 C  
HETATM   41  C   UNL     1     -10.119  11.847  65.816  1.00  0.00    -0.272 A  
HETATM   42  H   UNL     1     -12.048  12.564  69.164  1.00  0.00     0.000 HD 
HETATM   43  C   UNL     1     -10.363  12.596  68.069  1.00  0.00    -0.228 C  
HETATM   44  O   UNL     1     -11.224  12.095  69.090  1.00  0.00    -0.239 OA 
HETATM   45  C   UNL     1     -10.276  11.617  64.449  1.00  0.00    -0.346 A  
HETATM   46  C   UNL     1      -9.218  11.042  63.746  1.00  0.00    -0.191 A  
HETATM   47  C   UNL     1      -8.027  10.720  64.402  1.00  0.00     0.195 A  
HETATM   48  C   UNL     1      -7.883  10.935  65.776  1.00  0.00    -0.057 A  
HETATM   49  C   UNL     1      -8.952  11.493  66.482  1.00  0.00    -0.190 A  
ENDBRANCH  31  39
ENDBRANCH  23  26
ENDBRANCH  22  23
ENDBRANCH  12  22
ENDBRANCH   6   9
TORSDOF 8
ENDMDL
MODEL      140
REMARK 921   NORMALIZED FREE ENERGY PREDICTED BY IDOCK:   -2.02 KCAL/MOL
REMARK 922        TOTAL FREE ENERGY PREDICTED BY IDOCK:   -4.93 KCAL/MOL
REMARK 923 INTER-LIGAND FREE ENERGY PREDICTED BY IDOCK:   -6.53 KCAL/MOL
REMARK 924 INTRA-LIGAND FREE ENERGY PREDICTED BY IDOCK:    1.59 KCAL/MOL
REMARK 927      BINDING AFFINITY PREDICTED BY RF-SCORE:    0.00 PKD
ROOT
HETATM    1  C   UNL     1      -9.331   5.534  66.946  1.00  0.00    -0.129 C  
HETATM    2  C   UNL     1      -7.971   5.432  67.644  1.00  0.00    -0.100 C  
HETATM    3  N   UNL     1      -6.862   6.174  66.963  1.00  0.00    -0.064 N  
HETATM    4  C   UNL     1      -7.585   3.925  67.630  1.00  0.00    -0.068 C  
HETATM    5  C   UNL     1      -8.116   5.827  69.121  1.00  0.00    -0.101 C  
HETATM    6  C   UNL     1      -6.507   7.459  66.650  1.00  0.00    -0.052 C  
HETATM    7  H   UNL     1      -6.153   5.521  66.631  1.00  0.00     0.000 HD 
HETATM    8  O   UNL     1      -5.317   7.606  66.334  1.00  0.00    -0.024 OA 
ENDROOT
BRANCH   6   9
HETATM    9  C   UNL     1      -7.464   8.663  66.598  1.00  0.00    -0.089 C  
HETATM   10  C   UNL     1      -8.184   8.985  65.228  1.00  0.00    -0.137 C  
HETATM   11  N   UNL     1      -9.379   9.864  65.442  1.00  0.00    -0.219 NA 
HETATM   12  N   UNL     1      -6.908   9.895  67.227  1.00  0.00    -0.082 NA 
HETATM   13  C   UNL     1      -9.056  10.993  66.359  1.00  0.00    -0.178 C  
HETATM   14  C   UNL     1      -8.136  10.669  67.569  1.00  0.00    -0.111 C  
BRANCH  11  15
HETATM   15  C   UNL     1      -9.928  10.443  64.193  1.00  0.00    -0.267 C  
BRANCH  15  16
HETATM   16  C   UNL     1     -10.735  11.713  64.304  1.00  0.00    -0.398 A  
HETATM   17  C   UNL     1     -12.062  11.744  63.882  1.00  0.00    -0.309 A  
HETATM   18  N   UNL     1     -12.821  12.865  63.802  1.00  0.00    -0.659 NA 
HETATM   19  C   UNL     1     -10.915  14.107  64.598  1.00  0.00    -0.393 A  
HETATM   20  C   UNL     1     -12.226  14.022  64.160  1.00  0.00    -0.396 A  
HETATM   21  C   UNL     1     -10.161  12.934  64.667  1.00  0.00    -0.254 A  
ENDBRANCH  15  16
ENDBRANCH  11  15
BRANCH  12  22
HETATM   22  C   UNL     1      -5.987  10.767  66.408  1.00  0.00    -0.110 C  
BRANCH  22  23
HETATM   23  C   UNL     1      -5.426  12.091  67.006  1.00  0.00    -0.099 C  
HETATM   24  O   UNL     1      -6.423  13.116  66.865  1.00  0.00    -0.423 OA 
HETATM   25  H   UNL     1      -6.081  13.924  67.230  1.00  0.00     0.000 HD 
BRANCH  23  26
HETATM   26  C   UNL     1      -5.149  12.126  68.537  1.00  0.00    -0.050 C  
HETATM   27  C   UNL     1      -6.276  12.448  69.552  1.00  0.00    -0.126 C  
HETATM   28  C   UNL     1      -5.829  11.993  70.985  1.00  0.00     0.214 C  
HETATM   29  C   UNL     1      -6.578  13.961  69.566  1.00  0.00    -0.097 C  
HETATM   30  O   UNL     1      -5.747  14.803  69.237  1.00  0.00    -0.095 OA 
HETATM   31  N   UNL     1      -7.851  14.326  69.967  1.00  0.00     0.014 N  
HETATM   32  H   UNL     1      -8.449  13.636  70.422  1.00  0.00     0.000 HD 
BRANCH  28  33
HETATM   33  C   UNL     1      -5.601  10.496  71.201  1.00  0.00    -0.040 A  
HETATM   34  C   UNL     1      -5.497   9.613  70.119  1.00  0.00    -0.040 A  
HETATM   35  C   UNL     1      -5.535   9.960  72.497  1.00  0.00     0.171 A  
HETATM   36  C   UNL     1      -5.350   8.580  72.706  1.00  0.00    -0.049 A  
HETATM   37  C   UNL     1      -5.312   8.233  70.328  1.00  0.00    -0.022 A  
HETATM   38  C   UNL     1      -5.236   7.719  71.622  1.00  0.00    -0.034 A  
ENDBRANCH  28  33
BRANCH  31  39
HETATM   39  C   UNL     1      -8.360  15.696  69.749  1.00  0.00     0.069 C  
HETATM   40  C   UNL     1     -10.337  16.228  68.271  1.00  0.00    -0.272 C  
HETATM   41  C   UNL     1      -9.041  16.498  67.587  1.00  0.00    -0.199 A  
HETATM   42  H   UNL     1     -11.553  14.687  70.007  1.00  0.00     0.000 HD 
HETATM   43  C   UNL     1      -9.920  15.817  69.700  1.00  0.00    -0.284 C  
HETATM   44  O   UNL     1     -10.606  14.613  70.037  1.00  0.00    -0.089 OA 
HETATM   45  C   UNL     1      -8.878  16.994  66.293  1.00  0.00    -0.289 A  
HETATM   46  C   UNL     1      -7.584  17.243  65.836  1.00  0.00    -0.063 A  
HETATM   47  C   UNL     1      -6.485  17.012  66.667  1.00  0.00    -0.262 A  
HETATM   48  C   UNL     1      -6.654  16.496  67.956  1.00  0.00    -0.147 A  
HETATM   49  C   UNL     1      -7.950  16.229  68.404  1.00  0.00    -0.173 A  
ENDBRANCH  31  39
ENDBRANCH  23  26
ENDBRANCH  22  23
ENDBRANCH  12  22
ENDBRANCH   6   9
TORSDOF 8
ENDMDL
MODEL      141
REMARK 921   NORMALIZED FREE ENERGY PREDICTED BY IDOCK:   -1.98 KCAL/MOL
REMARK 922        TOTAL FREE ENERGY PREDICTED BY IDOCK:   -4.87 KCAL/MOL
REMARK 923 INTER-LIGAND FREE ENERGY PREDICTED BY IDOCK:   -6.46 KCAL/MOL
REMARK 924 INTRA-LIGAND FREE ENERGY PREDICTED BY IDOCK:    1.60 KCAL/MOL
REMARK 927      BINDING AFFINITY PREDICTED BY RF-SCORE:    0.00 PKD
ROOT
HETATM    1  C   UNL     1      -5.664  10.471  70.586  1.00  0.00    -0.101 C  
HETATM    2  C   UNL     1      -6.531   9.320  71.107  1.00  0.00    -0.083 C  
HETATM    3  N   UNL     1      -8.005   9.523  70.939  1.00  0.00    -0.062 N  
HETATM    4  C   UNL     1      -6.257   9.226  72.636  1.00  0.00     0.227 C  
HETATM    5  C   UNL     1      -6.052   7.993  70.499  1.00  0.00    -0.033 C  
HETATM    6  C   UNL     1      -8.931   9.652  69.939  1.00  0.00    -0.221 C  
HETATM    7  H   UNL     1      -8.459   9.584  71.850  1.00  0.00     0.000 HD 
HETATM    8  O   UNL     1     -10.108   9.501  70.299  1.00  0.00    -0.227 OA 
ENDROOT
BRANCH   6   9
HETATM    9  C   UNL     1      -8.623  10.027  68.479  1.00  0.00    -0.119 C  
HETATM   10  C   UNL     1      -9.829  10.120  67.462  1.00  0.00    -0.177 C  
HETATM   11  N   UNL     1      -9.447  10.906  66.244  1.00  0.00    -0.188 NA 
HETATM   12  N   UNL     1      -7.475   9.273  67.898  1.00  0.00    -0.084 NA 
HETATM   13  C   UNL     1      -8.115  10.482  65.730  1.00  0.00    -0.158 C  
HETATM   14  C   UNL     1      -7.024  10.166  66.792  1.00  0.00    -0.091 C  
BRANCH  11  15
HETATM   15  C   UNL     1     -10.415  10.791  65.128  1.00  0.00    -0.229 C  
BRANCH  15  16
HETATM   16  C   UNL     1     -11.351  11.950  64.886  1.00  0.00    -0.337 A  
HETATM   17  C   UNL     1     -11.611  12.388  63.590  1.00  0.00    -0.499 A  
HETATM   18  N   UNL     1     -12.313  13.505  63.280  1.00  0.00    -0.734 NA 
HETATM   19  C   UNL     1     -12.587  13.886  65.643  1.00  0.00    -0.553 A  
HETATM   20  C   UNL     1     -12.782  14.230  64.316  1.00  0.00     0.076 A  
HETATM   21  C   UNL     1     -11.858  12.729  65.929  1.00  0.00    -0.490 A  
ENDBRANCH  15  16
ENDBRANCH  11  15
BRANCH  12  22
HETATM   22  C   UNL     1      -7.729   7.891  67.345  1.00  0.00    -0.109 C  
BRANCH  22  23
HETATM   23  C   UNL     1      -6.608   7.141  66.567  1.00  0.00    -0.052 C  
HETATM   24  O   UNL     1      -5.340   7.482  67.151  1.00  0.00    -0.027 OA 
HETATM   25  H   UNL     1      -4.655   7.024  66.677  1.00  0.00     0.000 HD 
BRANCH  23  26
HETATM   26  C   UNL     1      -6.589   5.587  66.655  1.00  0.00    -0.056 C  
HETATM   27  C   UNL     1      -7.904   4.767  66.701  1.00  0.00    -0.099 C  
HETATM   28  C   UNL     1      -7.594   3.269  66.352  1.00  0.00    -0.077 C  
HETATM   29  C   UNL     1      -8.543   4.843  68.104  1.00  0.00    -0.102 C  
HETATM   30  O   UNL     1      -7.886   5.066  69.116  1.00  0.00    -0.078 OA 
HETATM   31  N   UNL     1      -9.912   4.653  68.162  1.00  0.00    -0.103 N  
HETATM   32  H   UNL     1     -10.400   4.276  67.350  1.00  0.00     0.000 HD 
BRANCH  28  33
HETATM   33  C   UNL     1      -7.066   2.977  64.947  1.00  0.00    -0.057 A  
HETATM   34  C   UNL     1      -5.882   2.255  64.750  1.00  0.00    -0.014 A  
HETATM   35  C   UNL     1      -7.736   3.464  63.813  1.00  0.00    -0.079 A  
HETATM   36  C   UNL     1      -7.245   3.221  62.516  1.00  0.00    -0.040 A  
HETATM   37  C   UNL     1      -5.391   2.012  63.454  1.00  0.00    -0.007 A  
HETATM   38  C   UNL     1      -6.075   2.493  62.338  1.00  0.00    -0.009 A  
ENDBRANCH  28  33
BRANCH  31  39
HETATM   39  C   UNL     1     -10.680   4.987  69.380  1.00  0.00     0.305 C  
HETATM   40  C   UNL     1     -10.374   7.134  70.673  1.00  0.00    -0.217 C  
HETATM   41  C   UNL     1      -9.670   5.991  71.317  1.00  0.00    -0.200 A  
HETATM   42  H   UNL     1     -11.121   8.164  68.382  1.00  0.00     0.000 HD 
HETATM   43  C   UNL     1     -11.121   6.486  69.488  1.00  0.00    -0.365 C  
HETATM   44  O   UNL     1     -10.853   7.255  68.317  1.00  0.00    -0.157 OA 
HETATM   45  C   UNL     1      -8.925   6.037  72.496  1.00  0.00    -0.132 A  
HETATM   46  C   UNL     1      -8.381   4.850  72.986  1.00  0.00    -0.101 A  
HETATM   47  C   UNL     1      -8.597   3.644  72.312  1.00  0.00    -0.095 A  
HETATM   48  C   UNL     1      -9.327   3.607  71.121  1.00  0.00    -0.218 A  
HETATM   49  C   UNL     1      -9.854   4.802  70.622  1.00  0.00    -0.292 A  
ENDBRANCH  31  39
ENDBRANCH  23  26
ENDBRANCH  22  23
ENDBRANCH  12  22
ENDBRANCH   6   9
TORSDOF 8
ENDMDL
MODEL      142
REMARK 921   NORMALIZED FREE ENERGY PREDICTED BY IDOCK:   -1.92 KCAL/MOL
REMARK 922        TOTAL FREE ENERGY PREDICTED BY IDOCK:   -4.79 KCAL/MOL
REMARK 923 INTER-LIGAND FREE ENERGY PREDICTED BY IDOCK:   -5.08 KCAL/MOL
REMARK 924 INTRA-LIGAND FREE ENERGY PREDICTED BY IDOCK:    0.29 KCAL/MOL
REMARK 927      BINDING AFFINITY PREDICTED BY RF-SCORE:    0.00 PKD
ROOT
HETATM    1  C   UNL     1      -7.627   7.898  68.125  1.00  0.00    -0.116 C  
HETATM    2  C   UNL     1      -6.338   8.668  68.428  1.00  0.00    -0.055 C  
HETATM    3  N   UNL     1      -6.425   9.596  69.600  1.00  0.00    -0.044 N  
HETATM    4  C   UNL     1      -6.048   9.544  67.175  1.00  0.00    -0.063 C  
HETATM    5  C   UNL     1      -5.163   7.685  68.549  1.00  0.00    -0.026 C  
HETATM    6  C   UNL     1      -6.611   9.547  70.956  1.00  0.00    -0.059 C  
HETATM    7  H   UNL     1      -6.311  10.562  69.294  1.00  0.00     0.000 HD 
HETATM    8  O   UNL     1      -6.301  10.584  71.560  1.00  0.00    -0.129 OA 
ENDROOT
BRANCH   6   9
HETATM    9  C   UNL     1      -7.221   8.366  71.732  1.00  0.00    -0.094 C  
HETATM   10  C   UNL     1      -6.921   6.902  71.218  1.00  0.00    -0.062 C  
HETATM   11  N   UNL     1      -7.190   5.890  72.290  1.00  0.00    -0.088 NA 
HETATM   12  N   UNL     1      -8.665   8.547  72.056  1.00  0.00    -0.222 NA 
HETATM   13  C   UNL     1      -8.493   6.155  72.963  1.00  0.00    -0.118 C  
HETATM   14  C   UNL     1      -8.852   7.645  73.228  1.00  0.00    -0.199 C  
BRANCH  11  15
HETATM   15  C   UNL     1      -7.215   4.491  71.802  1.00  0.00    -0.060 C  
BRANCH  15  16
HETATM   16  C   UNL     1      -7.984   4.201  70.538  1.00  0.00    -0.055 A  
HETATM   17  C   UNL     1      -7.490   3.294  69.604  1.00  0.00    -0.044 A  
HETATM   18  N   UNL     1      -8.028   3.078  68.378  1.00  0.00    -0.057 NA 
HETATM   19  C   UNL     1      -9.696   4.732  68.913  1.00  0.00    -0.244 A  
HETATM   20  C   UNL     1      -9.118   3.806  68.061  1.00  0.00    -0.144 A  
HETATM   21  C   UNL     1      -9.116   4.931  70.169  1.00  0.00    -0.157 A  
ENDBRANCH  15  16
ENDBRANCH  11  15
BRANCH  12  22
HETATM   22  C   UNL     1      -9.688   8.203  71.000  1.00  0.00    -0.162 C  
BRANCH  22  23
HETATM   23  C   UNL     1      -9.808   9.073  69.714  1.00  0.00    -0.180 C  
HETATM   24  O   UNL     1     -11.019   8.711  69.028  1.00  0.00    -0.431 OA 
HETATM   25  H   UNL     1     -11.093   9.241  68.243  1.00  0.00     0.000 HD 
BRANCH  23  26
HETATM   26  C   UNL     1      -9.996  10.606  69.899  1.00  0.00     0.120 C  
HETATM   27  C   UNL     1     -10.583  11.489  68.769  1.00  0.00    -0.241 C  
HETATM   28  C   UNL     1     -11.053  12.860  69.370  1.00  0.00    -0.131 C  
HETATM   29  C   UNL     1      -9.525  11.746  67.675  1.00  0.00    -0.180 C  
HETATM   30  O   UNL     1      -8.319  11.706  67.903  1.00  0.00    -0.130 OA 
HETATM   31  N   UNL     1     -10.009  12.020  66.409  1.00  0.00    -0.214 N  
HETATM   32  H   UNL     1     -10.997  12.243  66.288  1.00  0.00     0.000 HD 
BRANCH  28  33
HETATM   33  C   UNL     1     -12.192  12.819  70.389  1.00  0.00    -0.371 A  
HETATM   34  C   UNL     1     -12.926  13.969  70.706  1.00  0.00    -0.298 A  
HETATM   35  C   UNL     1     -12.506  11.631  71.068  1.00  0.00    -0.436 A  
HETATM   36  C   UNL     1     -13.537  11.589  72.026  1.00  0.00    -0.138 A  
HETATM   37  C   UNL     1     -13.958  13.928  71.662  1.00  0.00    -0.335 A  
HETATM   38  C   UNL     1     -14.264  12.737  72.319  1.00  0.00     0.055 A  
ENDBRANCH  28  33
BRANCH  31  39
HETATM   39  C   UNL     1      -9.122  11.993  65.227  1.00  0.00     0.278 C  
HETATM   40  C   UNL     1      -9.961  11.705  62.863  1.00  0.00    -0.189 C  
HETATM   41  C   UNL     1      -9.415  10.436  63.419  1.00  0.00    -0.356 A  
HETATM   42  H   UNL     1     -11.220  13.926  63.453  1.00  0.00     0.000 HD 
HETATM   43  C   UNL     1      -9.680  12.743  63.970  1.00  0.00     0.286 C  
HETATM   44  O   UNL     1     -10.881  13.471  64.215  1.00  0.00    -0.391 OA 
HETATM   45  C   UNL     1      -9.340   9.208  62.759  1.00  0.00     0.526 A  
HETATM   46  C   UNL     1      -8.740   8.135  63.417  1.00  0.00     0.384 A  
HETATM   47  C   UNL     1      -8.215   8.299  64.702  1.00  0.00    -0.145 A  
HETATM   48  C   UNL     1      -8.311   9.526  65.366  1.00  0.00    -0.144 A  
HETATM   49  C   UNL     1      -8.931  10.594  64.711  1.00  0.00    -0.218 A  
ENDBRANCH  31  39
ENDBRANCH  23  26
ENDBRANCH  22  23
ENDBRANCH  12  22
ENDBRANCH   6   9
TORSDOF 8
ENDMDL
MODEL      143
REMARK 921   NORMALIZED FREE ENERGY PREDICTED BY IDOCK:   -1.91 KCAL/MOL
REMARK 922        TOTAL FREE ENERGY PREDICTED BY IDOCK:   -4.77 KCAL/MOL
REMARK 923 INTER-LIGAND FREE ENERGY PREDICTED BY IDOCK:   -9.01 KCAL/MOL
REMARK 924 INTRA-LIGAND FREE ENERGY PREDICTED BY IDOCK:    4.24 KCAL/MOL
REMARK 927      BINDING AFFINITY PREDICTED BY RF-SCORE:    0.00 PKD
ROOT
HETATM    1  C   UNL     1      -9.820   9.396  65.083  1.00  0.00     0.021 C  
HETATM    2  C   UNL     1      -9.707  10.571  64.105  1.00  0.00    -0.327 C  
HETATM    3  N   UNL     1     -10.969  11.355  63.923  1.00  0.00    -0.422 N  
HETATM    4  C   UNL     1      -9.351   9.954  62.722  1.00  0.00    -0.237 C  
HETATM    5  C   UNL     1      -8.519  11.461  64.500  1.00  0.00     0.600 C  
HETATM    6  C   UNL     1     -11.814  12.153  64.648  1.00  0.00    -0.328 C  
HETATM    7  H   UNL     1     -11.303  11.268  62.963  1.00  0.00     0.000 HD 
HETATM    8  O   UNL     1     -12.591  12.838  63.968  1.00  0.00    -0.620 OA 
ENDROOT
BRANCH   6   9
HETATM    9  C   UNL     1     -11.903  12.196  66.184  1.00  0.00    -0.254 C  
HETATM   10  C   UNL     1     -11.467  13.525  66.919  1.00  0.00    -0.344 C  
HETATM   11  N   UNL     1     -12.017  13.574  68.312  1.00  0.00    -0.362 NA 
HETATM   12  N   UNL     1     -11.333  10.990  66.849  1.00  0.00    -0.358 NA 
HETATM   13  C   UNL     1     -11.818  12.275  69.014  1.00  0.00    -0.305 C  
HETATM   14  C   UNL     1     -12.027  10.986  68.169  1.00  0.00     0.017 C  
BRANCH  11  15
HETATM   15  C   UNL     1     -11.419  14.635  69.157  1.00  0.00    -0.294 C  
BRANCH  15  16
HETATM   16  C   UNL     1     -12.083  14.942  70.476  1.00  0.00    -0.378 A  
HETATM   17  C   UNL     1     -13.459  14.783  70.626  1.00  0.00    -0.085 A  
HETATM   18  N   UNL     1     -14.166  15.170  71.716  1.00  0.00    -0.527 NA 
HETATM   19  C   UNL     1     -12.098  15.956  72.672  1.00  0.00    -0.615 A  
HETATM   20  C   UNL     1     -13.467  15.751  72.713  1.00  0.00    -0.574 A  
HETATM   21  C   UNL     1     -11.400  15.547  71.534  1.00  0.00    -0.466 A  
ENDBRANCH  15  16
ENDBRANCH  11  15
BRANCH  12  22
HETATM   22  C   UNL     1      -9.841  10.932  67.075  1.00  0.00    -0.183 C  
BRANCH  22  23
HETATM   23  C   UNL     1      -9.147  11.983  67.991  1.00  0.00    -0.188 C  
HETATM   24  O   UNL     1      -9.573  11.762  69.346  1.00  0.00    -0.238 OA 
HETATM   25  H   UNL     1      -9.150  12.404  69.904  1.00  0.00     0.000 HD 
BRANCH  23  26
HETATM   26  C   UNL     1      -7.598  11.904  68.129  1.00  0.00    -0.121 C  
HETATM   27  C   UNL     1      -6.798  13.007  68.867  1.00  0.00    -0.099 C  
HETATM   28  C   UNL     1      -5.371  12.462  69.224  1.00  0.00    -0.069 C  
HETATM   29  C   UNL     1      -6.659  14.262  67.981  1.00  0.00    -0.150 C  
HETATM   30  O   UNL     1      -6.710  14.213  66.755  1.00  0.00     0.449 OA 
HETATM   31  N   UNL     1      -6.480  15.463  68.645  1.00  0.00    -0.093 N  
HETATM   32  H   UNL     1      -6.242  15.454  69.637  1.00  0.00     0.000 HD 
BRANCH  28  33
HETATM   33  C   UNL     1      -5.298  11.287  70.200  1.00  0.00    -0.083 A  
HETATM   34  C   UNL     1      -5.285   9.963  69.744  1.00  0.00    -0.037 A  
HETATM   35  C   UNL     1      -5.286  11.505  71.587  1.00  0.00     0.179 A  
HETATM   36  C   UNL     1      -5.245  10.429  72.494  1.00  0.00     0.196 A  
HETATM   37  C   UNL     1      -5.243   8.887  70.650  1.00  0.00    -0.020 A  
HETATM   38  C   UNL     1      -5.220   9.122  72.024  1.00  0.00    -0.058 A  
ENDBRANCH  28  33
BRANCH  31  39
HETATM   39  C   UNL     1      -6.626  16.756  67.944  1.00  0.00    -0.141 C  
HETATM   40  C   UNL     1      -7.418  18.869  69.076  1.00  0.00    -0.303 C  
HETATM   41  C   UNL     1      -8.504  18.215  68.295  1.00  0.00    -0.294 A  
HETATM   42  H   UNL     1      -5.267  18.443  70.511  1.00  0.00     0.000 HD 
HETATM   43  C   UNL     1      -6.175  18.006  68.772  1.00  0.00    -0.210 C  
HETATM   44  O   UNL     1      -5.542  17.684  70.009  1.00  0.00    -0.224 OA 
HETATM   45  C   UNL     1      -9.816  18.673  68.159  1.00  0.00    -0.391 A  
HETATM   46  C   UNL     1     -10.687  17.960  67.336  1.00  0.00    -0.306 A  
HETATM   47  C   UNL     1     -10.242  16.823  66.654  1.00  0.00    -0.310 A  
HETATM   48  C   UNL     1      -8.933  16.359  66.810  1.00  0.00    -0.264 A  
HETATM   49  C   UNL     1      -8.068  17.064  67.651  1.00  0.00    -0.190 A  
ENDBRANCH  31  39
ENDBRANCH  23  26
ENDBRANCH  22  23
ENDBRANCH  12  22
ENDBRANCH   6   9
TORSDOF 8
ENDMDL
MODEL      144
REMARK 921   NORMALIZED FREE ENERGY PREDICTED BY IDOCK:   -1.77 KCAL/MOL
REMARK 922        TOTAL FREE ENERGY PREDICTED BY IDOCK:   -4.57 KCAL/MOL
REMARK 923 INTER-LIGAND FREE ENERGY PREDICTED BY IDOCK:   -3.96 KCAL/MOL
REMARK 924 INTRA-LIGAND FREE ENERGY PREDICTED BY IDOCK:   -0.61 KCAL/MOL
REMARK 927      BINDING AFFINITY PREDICTED BY RF-SCORE:    0.00 PKD
ROOT
HETATM    1  C   UNL     1      -9.473   6.885  68.367  1.00  0.00    -0.128 C  
HETATM    2  C   UNL     1     -10.456   7.006  67.198  1.00  0.00    -0.312 C  
HETATM    3  N   UNL     1     -10.101   8.055  66.190  1.00  0.00    -0.442 N  
HETATM    4  C   UNL     1     -11.823   7.415  67.818  1.00  0.00     1.964 C  
HETATM    5  C   UNL     1     -10.669   5.627  66.555  1.00  0.00    -0.296 C  
HETATM    6  C   UNL     1      -9.118   8.334  65.279  1.00  0.00     0.142 C  
HETATM    7  H   UNL     1     -10.811   8.788  66.179  1.00  0.00     0.000 HD 
HETATM    8  O   UNL     1      -9.419   9.194  64.438  1.00  0.00     0.117 OA 
ENDROOT
BRANCH   6   9
HETATM    9  C   UNL     1      -7.704   7.726  65.276  1.00  0.00    -0.102 C  
HETATM   10  C   UNL     1      -7.559   6.174  65.534  1.00  0.00    -0.086 C  
HETATM   11  N   UNL     1      -6.225   5.674  65.068  1.00  0.00    -0.029 NA 
HETATM   12  N   UNL     1      -6.717   8.508  66.075  1.00  0.00    -0.057 NA 
HETATM   13  C   UNL     1      -5.127   6.575  65.518  1.00  0.00    -0.017 C  
HETATM   14  C   UNL     1      -5.415   8.103  65.471  1.00  0.00    -0.032 C  
BRANCH  11  15
HETATM   15  C   UNL     1      -5.900   4.305  65.536  1.00  0.00    -0.022 C  
BRANCH  15  16
HETATM   16  C   UNL     1      -6.483   3.856  66.854  1.00  0.00    -0.041 A  
HETATM   17  C   UNL     1      -7.578   2.997  66.884  1.00  0.00    -0.075 A  
HETATM   18  N   UNL     1      -8.261   2.657  68.005  1.00  0.00    -0.065 NA 
HETATM   19  C   UNL     1      -6.753   4.066  69.248  1.00  0.00    -0.045 A  
HETATM   20  C   UNL     1      -7.833   3.204  69.161  1.00  0.00    -0.049 A  
HETATM   21  C   UNL     1      -6.072   4.397  68.074  1.00  0.00    -0.031 A  
ENDBRANCH  15  16
ENDBRANCH  11  15
BRANCH  12  22
HETATM   22  C   UNL     1      -6.661   8.285  67.567  1.00  0.00    -0.058 C  
BRANCH  22  23
HETATM   23  C   UNL     1      -6.224   9.440  68.515  1.00  0.00    -0.048 C  
HETATM   24  O   UNL     1      -6.439  10.691  67.841  1.00  0.00    -0.058 OA 
HETATM   25  H   UNL     1      -6.172  11.396  68.420  1.00  0.00     0.000 HD 
BRANCH  23  26
HETATM   26  C   UNL     1      -7.040   9.642  69.825  1.00  0.00    -0.084 C  
HETATM   27  C   UNL     1      -8.580   9.470  69.850  1.00  0.00    -0.217 C  
HETATM   28  C   UNL     1      -9.060   9.302  71.333  1.00  0.00    -0.050 C  
HETATM   29  C   UNL     1      -9.273  10.698  69.223  1.00  0.00    -0.104 C  
HETATM   30  O   UNL     1      -8.748  11.808  69.193  1.00  0.00     0.167 OA 
HETATM   31  N   UNL     1     -10.529  10.483  68.684  1.00  0.00    -0.180 N  
HETATM   32  H   UNL     1     -11.022   9.615  68.897  1.00  0.00     0.000 HD 
BRANCH  28  33
HETATM   33  C   UNL     1      -8.574   8.063  72.086  1.00  0.00    -0.206 A  
HETATM   34  C   UNL     1      -7.625   7.198  71.528  1.00  0.00    -0.088 A  
HETATM   35  C   UNL     1      -9.102   7.736  73.346  1.00  0.00    -0.336 A  
HETATM   36  C   UNL     1      -8.679   6.584  74.036  1.00  0.00    -0.151 A  
HETATM   37  C   UNL     1      -7.202   6.047  72.217  1.00  0.00    -0.089 A  
HETATM   38  C   UNL     1      -7.727   5.743  73.473  1.00  0.00    -0.101 A  
ENDBRANCH  28  33
BRANCH  31  39
HETATM   39  C   UNL     1     -11.168  11.485  67.806  1.00  0.00    -0.279 C  
HETATM   40  C   UNL     1      -9.929  13.435  66.788  1.00  0.00    -0.264 C  
HETATM   41  C   UNL     1     -10.719  13.840  67.984  1.00  0.00    -0.260 A  
HETATM   42  H   UNL     1      -8.554  11.490  65.697  1.00  0.00     0.000 HD 
HETATM   43  C   UNL     1     -10.294  11.948  66.593  1.00  0.00    -0.211 C  
HETATM   44  O   UNL     1      -9.084  11.209  66.434  1.00  0.00    -0.175 OA 
HETATM   45  C   UNL     1     -10.810  15.127  68.518  1.00  0.00    -0.247 A  
HETATM   46  C   UNL     1     -11.648  15.334  69.613  1.00  0.00    -0.340 A  
HETATM   47  C   UNL     1     -12.387  14.274  70.147  1.00  0.00    -0.413 A  
HETATM   48  C   UNL     1     -12.277  12.984  69.620  1.00  0.00    -0.219 A  
HETATM   49  C   UNL     1     -11.421  12.775  68.535  1.00  0.00    -0.344 A  
ENDBRANCH  31  39
ENDBRANCH  23  26
ENDBRANCH  22  23
ENDBRANCH  12  22
ENDBRANCH   6   9
TORSDOF 8
ENDMDL
MODEL      145
REMARK 921   NORMALIZED FREE ENERGY PREDICTED BY IDOCK:   -1.72 KCAL/MOL
REMARK 922        TOTAL FREE ENERGY PREDICTED BY IDOCK:   -4.49 KCAL/MOL
REMARK 923 INTER-LIGAND FREE ENERGY PREDICTED BY IDOCK:   -4.41 KCAL/MOL
REMARK 924 INTRA-LIGAND FREE ENERGY PREDICTED BY IDOCK:   -0.08 KCAL/MOL
REMARK 927      BINDING AFFINITY PREDICTED BY RF-SCORE:    0.00 PKD
ROOT
HETATM    1  C   UNL     1      -9.306   6.516  72.524  1.00  0.00    -0.145 C  
HETATM    2  C   UNL     1     -10.750   6.206  72.930  1.00  0.00    -0.247 C  
HETATM    3  N   UNL     1     -11.755   7.227  72.494  1.00  0.00    -0.464 N  
HETATM    4  C   UNL     1     -10.771   6.184  74.486  1.00  0.00     0.371 C  
HETATM    5  C   UNL     1     -11.124   4.787  72.473  1.00  0.00    -0.124 C  
HETATM    6  C   UNL     1     -12.282   7.742  71.340  1.00  0.00    -0.319 C  
HETATM    7  H   UNL     1     -12.177   7.677  73.306  1.00  0.00     0.000 HD 
HETATM    8  O   UNL     1     -13.334   8.381  71.490  1.00  0.00    -0.327 OA 
ENDROOT
BRANCH   6   9
HETATM    9  C   UNL     1     -11.643   7.644  69.943  1.00  0.00     0.178 C  
HETATM   10  C   UNL     1     -10.384   6.707  69.764  1.00  0.00    -0.193 C  
HETATM   11  N   UNL     1     -10.163   6.373  68.320  1.00  0.00    -0.156 NA 
HETATM   12  N   UNL     1     -11.438   8.967  69.287  1.00  0.00     0.324 NA 
HETATM   13  C   UNL     1     -10.270   7.590  67.466  1.00  0.00    -0.223 C  
HETATM   14  C   UNL     1     -11.384   8.608  67.840  1.00  0.00     0.950 C  
BRANCH  11  15
HETATM   15  C   UNL     1      -8.848   5.747  68.043  1.00  0.00    -0.109 C  
BRANCH  15  16
HETATM   16  C   UNL     1      -8.496   4.488  68.796  1.00  0.00    -0.093 A  
HETATM   17  C   UNL     1      -9.484   3.562  69.121  1.00  0.00    -0.154 A  
HETATM   18  N   UNL     1      -9.296   2.481  69.918  1.00  0.00    -0.129 NA 
HETATM   19  C   UNL     1      -7.000   3.168  70.163  1.00  0.00    -0.034 A  
HETATM   20  C   UNL     1      -8.057   2.313  70.423  1.00  0.00    -0.041 A  
HETATM   21  C   UNL     1      -7.227   4.273  69.339  1.00  0.00    -0.051 A  
ENDBRANCH  15  16
ENDBRANCH  11  15
BRANCH  12  22
HETATM   22  C   UNL     1     -10.206   9.764  69.644  1.00  0.00    -0.233 C  
BRANCH  22  23
HETATM   23  C   UNL     1      -9.453  10.575  68.548  1.00  0.00    -0.164 C  
HETATM   24  O   UNL     1      -9.650  11.976  68.800  1.00  0.00    -0.373 OA 
HETATM   25  H   UNL     1      -9.190  12.471  68.131  1.00  0.00     0.000 HD 
BRANCH  23  26
HETATM   26  C   UNL     1      -7.900  10.473  68.519  1.00  0.00    -0.111 C  
HETATM   27  C   UNL     1      -7.008  11.594  69.110  1.00  0.00    -0.105 C  
HETATM   28  C   UNL     1      -5.557  11.039  69.334  1.00  0.00    -0.042 C  
HETATM   29  C   UNL     1      -6.951  12.804  68.154  1.00  0.00    -0.096 C  
HETATM   30  O   UNL     1      -7.139  12.698  66.945  1.00  0.00     0.005 OA 
HETATM   31  N   UNL     1      -6.683  14.030  68.736  1.00  0.00    -0.093 N  
HETATM   32  H   UNL     1      -6.337  14.063  69.695  1.00  0.00     0.000 HD 
BRANCH  28  33
HETATM   33  C   UNL     1      -5.393   9.910  70.351  1.00  0.00    -0.045 A  
HETATM   34  C   UNL     1      -5.261   8.576  69.942  1.00  0.00    -0.029 A  
HETATM   35  C   UNL     1      -5.414  10.177  71.729  1.00  0.00     0.055 A  
HETATM   36  C   UNL     1      -5.288   9.140  72.674  1.00  0.00    -0.077 A  
HETATM   37  C   UNL     1      -5.135   7.540  70.886  1.00  0.00    -0.023 A  
HETATM   38  C   UNL     1      -5.146   7.824  72.251  1.00  0.00    -0.036 A  
ENDBRANCH  28  33
BRANCH  31  39
HETATM   39  C   UNL     1      -6.888  15.292  67.994  1.00  0.00    -0.140 C  
HETATM   40  C   UNL     1      -7.971  17.338  69.002  1.00  0.00    -0.121 C  
HETATM   41  C   UNL     1      -8.919  16.570  68.147  1.00  0.00    -0.207 A  
HETATM   42  H   UNL     1      -5.924  17.143  70.626  1.00  0.00     0.000 HD 
HETATM   43  C   UNL     1      -6.631  16.592  68.826  1.00  0.00    -0.169 C  
HETATM   44  O   UNL     1      -6.081  16.353  70.121  1.00  0.00    -0.190 OA 
HETATM   45  C   UNL     1     -10.251  16.897  67.888  1.00  0.00    -0.308 A  
HETATM   46  C   UNL     1     -10.975  16.091  67.011  1.00  0.00    -0.154 A  
HETATM   47  C   UNL     1     -10.368  14.992  66.398  1.00  0.00    -0.293 A  
HETATM   48  C   UNL     1      -9.039  14.657  66.676  1.00  0.00    -0.285 A  
HETATM   49  C   UNL     1      -8.322  15.456  67.571  1.00  0.00    -0.190 A  
ENDBRANCH  31  39
ENDBRANCH  23  26
ENDBRANCH  22  23
ENDBRANCH  12  22
ENDBRANCH   6   9
TORSDOF 8
ENDMDL
MODEL      146
REMARK 921   NORMALIZED FREE ENERGY PREDICTED BY IDOCK:   -1.68 KCAL/MOL
REMARK 922        TOTAL FREE ENERGY PREDICTED BY IDOCK:   -4.43 KCAL/MOL
REMARK 923 INTER-LIGAND FREE ENERGY PREDICTED BY IDOCK:   -5.30 KCAL/MOL
REMARK 924 INTRA-LIGAND FREE ENERGY PREDICTED BY IDOCK:    0.87 KCAL/MOL
REMARK 927      BINDING AFFINITY PREDICTED BY RF-SCORE:    0.00 PKD
ROOT
HETATM    1  C   UNL     1      -7.143   8.514  71.916  1.00  0.00    -0.106 C  
HETATM    2  C   UNL     1      -7.601   7.242  72.637  1.00  0.00    -0.083 C  
HETATM    3  N   UNL     1      -9.075   6.982  72.569  1.00  0.00    -0.128 N  
HETATM    4  C   UNL     1      -7.243   7.439  74.138  1.00  0.00    -0.117 C  
HETATM    5  C   UNL     1      -6.774   6.043  72.149  1.00  0.00    -0.068 C  
HETATM    6  C   UNL     1     -10.040   6.699  71.640  1.00  0.00    -0.184 C  
HETATM    7  H   UNL     1      -9.485   7.030  73.501  1.00  0.00     0.000 HD 
HETATM    8  O   UNL     1     -11.100   6.261  72.112  1.00  0.00    -0.242 OA 
ENDROOT
BRANCH   6   9
HETATM    9  C   UNL     1      -9.924   6.946  70.126  1.00  0.00    -0.178 C  
HETATM   10  C   UNL     1      -8.571   6.557  69.409  1.00  0.00    -0.134 C  
HETATM   11  N   UNL     1      -8.763   6.435  67.927  1.00  0.00    -0.116 NA 
HETATM   12  N   UNL     1     -10.399   8.295  69.704  1.00  0.00    -0.214 NA 
HETATM   13  C   UNL     1      -9.547   7.584  67.392  1.00  0.00    -0.149 C  
HETATM   14  C   UNL     1     -10.732   8.087  68.265  1.00  0.00    -0.023 C  
BRANCH  11  15
HETATM   15  C   UNL     1      -7.496   6.363  67.162  1.00  0.00    -0.084 C  
BRANCH  15  16
HETATM   16  C   UNL     1      -7.021   5.002  66.716  1.00  0.00    -0.064 A  
HETATM   17  C   UNL     1      -5.778   4.854  66.107  1.00  0.00    -0.018 A  
HETATM   18  N   UNL     1      -5.328   3.707  65.541  1.00  0.00    -0.009 NA 
HETATM   19  C   UNL     1      -7.417   2.681  66.163  1.00  0.00    -0.068 A  
HETATM   20  C   UNL     1      -6.161   2.648  65.580  1.00  0.00    -0.023 A  
HETATM   21  C   UNL     1      -7.851   3.878  66.736  1.00  0.00    -0.089 A  
ENDBRANCH  15  16
ENDBRANCH  11  15
BRANCH  12  22
HETATM   22  C   UNL     1      -9.450   9.463  69.828  1.00  0.00    -0.202 C  
BRANCH  22  23
HETATM   23  C   UNL     1      -9.455  10.593  68.756  1.00  0.00    -0.183 C  
HETATM   24  O   UNL     1     -10.331  11.642  69.201  1.00  0.00    -0.383 OA 
HETATM   25  H   UNL     1     -10.334  12.332  68.547  1.00  0.00     0.000 HD 
BRANCH  23  26
HETATM   26  C   UNL     1      -8.125  11.367  68.523  1.00  0.00    -0.149 C  
HETATM   27  C   UNL     1      -8.123  12.875  68.163  1.00  0.00    -0.158 C  
HETATM   28  C   UNL     1      -6.692  13.466  68.415  1.00  0.00    -0.096 C  
HETATM   29  C   UNL     1      -8.508  13.080  66.683  1.00  0.00     0.106 C  
HETATM   30  O   UNL     1      -8.337  12.214  65.831  1.00  0.00     0.301 OA 
HETATM   31  N   UNL     1      -9.070  14.304  66.362  1.00  0.00    -0.473 N  
HETATM   32  H   UNL     1      -9.017  15.069  67.034  1.00  0.00     0.000 HD 
BRANCH  28  33
HETATM   33  C   UNL     1      -6.183  13.466  69.857  1.00  0.00    -0.102 A  
HETATM   34  C   UNL     1      -5.575  12.333  70.413  1.00  0.00    -0.162 A  
HETATM   35  C   UNL     1      -6.352  14.592  70.678  1.00  0.00    -0.081 A  
HETATM   36  C   UNL     1      -5.909  14.592  72.015  1.00  0.00     0.209 A  
HETATM   37  C   UNL     1      -5.131  12.333  71.749  1.00  0.00     0.000 A  
HETATM   38  C   UNL     1      -5.296  13.464  72.547  1.00  0.00     0.026 A  
ENDBRANCH  28  33
BRANCH  31  39
HETATM   39  C   UNL     1      -9.744  14.521  65.065  1.00  0.00     0.167 C  
HETATM   40  C   UNL     1     -12.169  15.191  64.853  1.00  0.00    -0.053 C  
HETATM   41  C   UNL     1     -11.971  13.735  64.613  1.00  0.00    -0.445 A  
HETATM   42  H   UNL     1     -11.308  17.270  66.196  1.00  0.00     0.000 HD 
HETATM   43  C   UNL     1     -10.735  15.732  65.035  1.00  0.00    -0.421 C  
HETATM   44  O   UNL     1     -10.707  16.534  66.215  1.00  0.00    -0.259 OA 
HETATM   45  C   UNL     1     -12.964  12.806  64.297  1.00  0.00    -0.129 A  
HETATM   46  C   UNL     1     -12.585  11.488  64.047  1.00  0.00     0.094 A  
HETATM   47  C   UNL     1     -11.238  11.118  64.100  1.00  0.00    -0.056 A  
HETATM   48  C   UNL     1     -10.251  12.048  64.437  1.00  0.00    -0.332 A  
HETATM   49  C   UNL     1     -10.635  13.364  64.706  1.00  0.00    -0.420 A  
ENDBRANCH  31  39
ENDBRANCH  23  26
ENDBRANCH  22  23
ENDBRANCH  12  22
ENDBRANCH   6   9
TORSDOF 8
ENDMDL
MODEL      147
REMARK 921   NORMALIZED FREE ENERGY PREDICTED BY IDOCK:   -1.65 KCAL/MOL
REMARK 922        TOTAL FREE ENERGY PREDICTED BY IDOCK:   -4.39 KCAL/MOL
REMARK 923 INTER-LIGAND FREE ENERGY PREDICTED BY IDOCK:   -8.54 KCAL/MOL
REMARK 924 INTRA-LIGAND FREE ENERGY PREDICTED BY IDOCK:    4.15 KCAL/MOL
REMARK 927      BINDING AFFINITY PREDICTED BY RF-SCORE:    0.00 PKD
ROOT
HETATM    1  C   UNL     1      -7.508  10.114  65.041  1.00  0.00    -0.140 C  
HETATM    2  C   UNL     1      -8.770   9.413  64.526  1.00  0.00    -0.203 C  
HETATM    3  N   UNL     1      -8.547   8.024  64.012  1.00  0.00    -0.377 N  
HETATM    4  C   UNL     1      -9.285  10.263  63.330  1.00  0.00    -0.321 C  
HETATM    5  C   UNL     1      -9.867   9.468  65.600  1.00  0.00    -0.343 C  
HETATM    6  C   UNL     1      -8.155   6.795  64.470  1.00  0.00    -0.070 C  
HETATM    7  H   UNL     1      -8.749   7.981  63.013  1.00  0.00     0.000 HD 
HETATM    8  O   UNL     1      -8.416   5.851  63.709  1.00  0.00    -0.041 OA 
ENDROOT
BRANCH   6   9
HETATM    9  C   UNL     1      -7.382   6.531  65.774  1.00  0.00    -0.079 C  
HETATM   10  C   UNL     1      -7.735   5.231  66.600  1.00  0.00    -0.096 C  
HETATM   11  N   UNL     1      -6.636   4.888  67.559  1.00  0.00    -0.045 NA 
HETATM   12  N   UNL     1      -7.276   7.728  66.657  1.00  0.00    -0.085 NA 
HETATM   13  C   UNL     1      -6.173   6.096  68.298  1.00  0.00    -0.032 C  
HETATM   14  C   UNL     1      -6.075   7.417  67.485  1.00  0.00    -0.046 C  
BRANCH  11  15
HETATM   15  C   UNL     1      -7.014   3.865  68.564  1.00  0.00    -0.047 C  
BRANCH  15  16
HETATM   16  C   UNL     1      -7.807   4.319  69.764  1.00  0.00    -0.053 A  
HETATM   17  C   UNL     1      -7.160   4.657  70.951  1.00  0.00    -0.037 A  
HETATM   18  N   UNL     1      -7.787   4.931  72.121  1.00  0.00    -0.106 NA 
HETATM   19  C   UNL     1      -9.880   4.542  70.991  1.00  0.00    -0.266 A  
HETATM   20  C   UNL     1      -9.134   4.863  72.113  1.00  0.00    -0.131 A  
HETATM   21  C   UNL     1      -9.202   4.264  69.801  1.00  0.00    -0.207 A  
ENDBRANCH  15  16
ENDBRANCH  11  15
BRANCH  12  22
HETATM   22  C   UNL     1      -8.434   8.053  67.570  1.00  0.00    -0.127 C  
BRANCH  22  23
HETATM   23  C   UNL     1      -8.239   8.044  69.115  1.00  0.00    -0.130 C  
HETATM   24  O   UNL     1      -6.925   8.544  69.413  1.00  0.00    -0.048 OA 
HETATM   25  H   UNL     1      -6.806   8.539  70.356  1.00  0.00     0.000 HD 
BRANCH  23  26
HETATM   26  C   UNL     1      -9.139   8.994  69.958  1.00  0.00    -0.187 C  
HETATM   27  C   UNL     1     -10.183   9.921  69.286  1.00  0.00    -0.222 C  
HETATM   28  C   UNL     1     -11.209  10.416  70.365  1.00  0.00    -0.399 C  
HETATM   29  C   UNL     1      -9.491  11.141  68.641  1.00  0.00    -0.193 C  
HETATM   30  O   UNL     1      -8.406  11.565  69.030  1.00  0.00    -0.052 OA 
HETATM   31  N   UNL     1     -10.159  11.735  67.585  1.00  0.00    -0.191 N  
HETATM   32  H   UNL     1     -11.135  11.495  67.413  1.00  0.00     0.000 HD 
BRANCH  28  33
HETATM   33  C   UNL     1     -12.085   9.355  71.031  1.00  0.00    -0.373 A  
HETATM   34  C   UNL     1     -12.969   9.686  72.066  1.00  0.00    -0.518 A  
HETATM   35  C   UNL     1     -11.993   8.007  70.650  1.00  0.00    -0.044 A  
HETATM   36  C   UNL     1     -12.778   7.018  71.275  1.00  0.00    -0.400 A  
HETATM   37  C   UNL     1     -13.753   8.698  72.690  1.00  0.00    -0.293 A  
HETATM   38  C   UNL     1     -13.658   7.366  72.291  1.00  0.00     0.071 A  
ENDBRANCH  28  33
BRANCH  31  39
HETATM   39  C   UNL     1      -9.484  12.709  66.702  1.00  0.00    -0.244 C  
HETATM   40  C   UNL     1      -9.666  15.210  66.993  1.00  0.00    -0.237 C  
HETATM   41  C   UNL     1     -10.560  14.708  65.913  1.00  0.00    -0.319 A  
HETATM   42  H   UNL     1      -8.576  14.629  69.304  1.00  0.00     0.000 HD 
HETATM   43  C   UNL     1      -8.884  13.955  67.436  1.00  0.00    -0.207 C  
HETATM   44  O   UNL     1      -8.941  13.872  68.859  1.00  0.00    -0.055 OA 
HETATM   45  C   UNL     1     -11.410  15.479  65.119  1.00  0.00    -0.241 A  
HETATM   46  C   UNL     1     -12.135  14.845  64.111  1.00  0.00    -0.289 A  
HETATM   47  C   UNL     1     -11.995  13.470  63.899  1.00  0.00    -0.491 A  
HETATM   48  C   UNL     1     -11.158  12.700  64.711  1.00  0.00    -0.335 A  
HETATM   49  C   UNL     1     -10.447  13.336  65.733  1.00  0.00    -0.289 A  
ENDBRANCH  31  39
ENDBRANCH  23  26
ENDBRANCH  22  23
ENDBRANCH  12  22
ENDBRANCH   6   9
TORSDOF 8
ENDMDL
MODEL      148
REMARK 921   NORMALIZED FREE ENERGY PREDICTED BY IDOCK:   -1.63 KCAL/MOL
REMARK 922        TOTAL FREE ENERGY PREDICTED BY IDOCK:   -4.36 KCAL/MOL
REMARK 923 INTER-LIGAND FREE ENERGY PREDICTED BY IDOCK:   -6.80 KCAL/MOL
REMARK 924 INTRA-LIGAND FREE ENERGY PREDICTED BY IDOCK:    2.44 KCAL/MOL
REMARK 927      BINDING AFFINITY PREDICTED BY RF-SCORE:    0.00 PKD
ROOT
HETATM    1  C   UNL     1      -5.143  10.091  69.301  1.00  0.00    -0.035 C  
HETATM    2  C   UNL     1      -6.418  10.484  70.054  1.00  0.00    -0.135 C  
HETATM    3  N   UNL     1      -7.081  11.730  69.553  1.00  0.00    -0.337 N  
HETATM    4  C   UNL     1      -5.989  10.757  71.525  1.00  0.00     0.523 C  
HETATM    5  C   UNL     1      -7.382   9.288  70.100  1.00  0.00    -0.096 C  
HETATM    6  C   UNL     1      -7.706  12.196  68.427  1.00  0.00    -0.134 C  
HETATM    7  H   UNL     1      -7.060  12.454  70.271  1.00  0.00     0.000 HD 
HETATM    8  O   UNL     1      -8.373  13.228  68.595  1.00  0.00    -0.109 OA 
ENDROOT
BRANCH   6   9
HETATM    9  C   UNL     1      -7.579  11.589  67.019  1.00  0.00    -0.154 C  
HETATM   10  C   UNL     1      -8.874  11.526  66.115  1.00  0.00    -0.167 C  
HETATM   11  N   UNL     1      -8.515  11.341  64.672  1.00  0.00     0.295 NA 
HETATM   12  N   UNL     1      -6.828  10.302  66.988  1.00  0.00    -0.082 NA 
HETATM   13  C   UNL     1      -7.482  10.280  64.509  1.00  0.00    -0.088 C  
HETATM   14  C   UNL     1      -6.352  10.235  65.577  1.00  0.00    -0.117 C  
BRANCH  11  15
HETATM   15  C   UNL     1      -9.665  10.983  63.808  1.00  0.00    -0.309 C  
BRANCH  15  16
HETATM   16  C   UNL     1     -10.962  11.722  64.023  1.00  0.00    -0.451 A  
HETATM   17  C   UNL     1     -11.589  12.370  62.962  1.00  0.00     0.010 A  
HETATM   18  N   UNL     1     -12.670  13.179  63.082  1.00  0.00    -0.515 NA 
HETATM   19  C   UNL     1     -12.615  12.757  65.453  1.00  0.00    -0.387 A  
HETATM   20  C   UNL     1     -13.156  13.356  64.327  1.00  0.00     0.604 A  
HETATM   21  C   UNL     1     -11.501  11.931  65.295  1.00  0.00    -0.313 A  
ENDBRANCH  15  16
ENDBRANCH  11  15
BRANCH  12  22
HETATM   22  C   UNL     1      -7.569   9.029  67.320  1.00  0.00    -0.088 C  
BRANCH  22  23
HETATM   23  C   UNL     1      -7.596   7.851  66.302  1.00  0.00    -0.083 C  
HETATM   24  O   UNL     1      -6.254   7.606  65.851  1.00  0.00    -0.040 OA 
HETATM   25  H   UNL     1      -6.270   6.887  65.229  1.00  0.00     0.000 HD 
BRANCH  23  26
HETATM   26  C   UNL     1      -8.012   6.449  66.836  1.00  0.00    -0.109 C  
HETATM   27  C   UNL     1      -9.383   6.223  67.523  1.00  0.00    -0.113 C  
HETATM   28  C   UNL     1      -9.700   4.687  67.556  1.00  0.00    -0.213 C  
HETATM   29  C   UNL     1      -9.365   6.773  68.965  1.00  0.00    -0.134 C  
HETATM   30  O   UNL     1      -8.329   6.887  69.614  1.00  0.00    -0.129 OA 
HETATM   31  N   UNL     1     -10.589   7.141  69.494  1.00  0.00    -0.229 N  
HETATM   32  H   UNL     1     -11.445   6.854  69.020  1.00  0.00     0.000 HD 
BRANCH  28  33
HETATM   33  C   UNL     1      -9.881   3.985  66.210  1.00  0.00    -0.177 A  
HETATM   34  C   UNL     1     -10.682   4.538  65.202  1.00  0.00    -0.116 A  
HETATM   35  C   UNL     1      -9.282   2.740  65.964  1.00  0.00    -0.082 A  
HETATM   36  C   UNL     1      -9.462   2.073  64.736  1.00  0.00    -0.061 A  
HETATM   37  C   UNL     1     -10.863   3.873  63.976  1.00  0.00    -0.171 A  
HETATM   38  C   UNL     1     -10.250   2.642  63.743  1.00  0.00    -0.152 A  
ENDBRANCH  28  33
BRANCH  31  39
HETATM   39  C   UNL     1     -10.678   7.944  70.732  1.00  0.00    -0.223 C  
HETATM   40  C   UNL     1     -12.847   8.394  71.944  1.00  0.00    -0.384 C  
HETATM   41  C   UNL     1     -12.424   9.553  71.111  1.00  0.00    -0.399 A  
HETATM   42  H   UNL     1     -12.835   5.780  72.127  1.00  0.00     0.000 HD 
HETATM   43  C   UNL     1     -11.681   7.393  71.800  1.00  0.00    -0.286 C  
HETATM   44  O   UNL     1     -12.227   6.115  71.478  1.00  0.00    -0.150 OA 
HETATM   45  C   UNL     1     -13.097  10.770  70.984  1.00  0.00    -0.338 A  
HETATM   46  C   UNL     1     -12.520  11.769  70.201  1.00  0.00    -0.182 A  
HETATM   47  C   UNL     1     -11.289  11.554  69.576  1.00  0.00    -0.342 A  
HETATM   48  C   UNL     1     -10.629  10.327  69.691  1.00  0.00    -0.288 A  
HETATM   49  C   UNL     1     -11.219   9.320  70.459  1.00  0.00    -0.315 A  
ENDBRANCH  31  39
ENDBRANCH  23  26
ENDBRANCH  22  23
ENDBRANCH  12  22
ENDBRANCH   6   9
TORSDOF 8
ENDMDL
MODEL      149
REMARK 921   NORMALIZED FREE ENERGY PREDICTED BY IDOCK:   -1.62 KCAL/MOL
REMARK 922        TOTAL FREE ENERGY PREDICTED BY IDOCK:   -4.34 KCAL/MOL
REMARK 923 INTER-LIGAND FREE ENERGY PREDICTED BY IDOCK:   -5.48 KCAL/MOL
REMARK 924 INTRA-LIGAND FREE ENERGY PREDICTED BY IDOCK:    1.14 KCAL/MOL
REMARK 927      BINDING AFFINITY PREDICTED BY RF-SCORE:    0.00 PKD
ROOT
HETATM    1  C   UNL     1     -11.801  13.350  72.460  1.00  0.00     2.167 C  
HETATM    2  C   UNL     1     -12.893  13.174  71.400  1.00  0.00    -0.311 C  
HETATM    3  N   UNL     1     -12.521  12.271  70.264  1.00  0.00    -0.147 N  
HETATM    4  C   UNL     1     -13.146  14.585  70.795  1.00  0.00    -0.363 C  
HETATM    5  C   UNL     1     -14.207  12.751  72.075  1.00  0.00     0.352 C  
HETATM    6  C   UNL     1     -12.210  10.957  70.037  1.00  0.00    -0.347 C  
HETATM    7  H   UNL     1     -12.491  12.798  69.391  1.00  0.00     0.000 HD 
HETATM    8  O   UNL     1     -12.266  10.610  68.847  1.00  0.00    -0.370 OA 
ENDROOT
BRANCH   6   9
HETATM    9  C   UNL     1     -11.747   9.951  71.104  1.00  0.00    -0.396 C  
HETATM   10  C   UNL     1     -10.197   9.682  71.254  1.00  0.00    -0.017 C  
HETATM   11  N   UNL     1      -9.885   9.055  72.578  1.00  0.00     0.019 NA 
HETATM   12  N   UNL     1     -12.525   8.679  71.103  1.00  0.00    -0.237 NA 
HETATM   13  C   UNL     1     -10.832   7.945  72.882  1.00  0.00    -0.386 C  
HETATM   14  C   UNL     1     -12.319   8.169  72.489  1.00  0.00    -0.242 C  
BRANCH  11  15
HETATM   15  C   UNL     1      -8.510   8.510  72.675  1.00  0.00    -0.099 C  
BRANCH  15  16
HETATM   16  C   UNL     1      -8.357   7.026  72.898  1.00  0.00    -0.121 A  
HETATM   17  C   UNL     1      -8.674   6.461  74.131  1.00  0.00    -0.130 A  
HETATM   18  N   UNL     1      -8.432   5.173  74.475  1.00  0.00    -0.109 NA 
HETATM   19  C   UNL     1      -7.484   4.855  72.283  1.00  0.00    -0.089 A  
HETATM   20  C   UNL     1      -7.839   4.401  73.542  1.00  0.00    -0.090 A  
HETATM   21  C   UNL     1      -7.746   6.189  71.961  1.00  0.00    -0.097 A  
ENDBRANCH  15  16
ENDBRANCH  11  15
BRANCH  12  22
HETATM   22  C   UNL     1     -12.140   7.601  70.118  1.00  0.00     0.402 C  
BRANCH  22  23
HETATM   23  C   UNL     1     -10.734   7.620  69.448  1.00  0.00    -0.184 C  
HETATM   24  O   UNL     1      -9.905   6.641  70.096  1.00  0.00    -0.167 OA 
HETATM   25  H   UNL     1      -9.047   6.652  69.687  1.00  0.00     0.000 HD 
BRANCH  23  26
HETATM   26  C   UNL     1     -10.643   7.178  67.958  1.00  0.00    -0.251 C  
HETATM   27  C   UNL     1      -9.533   7.721  67.023  1.00  0.00    -0.210 C  
HETATM   28  C   UNL     1      -9.423   6.801  65.758  1.00  0.00     0.231 C  
HETATM   29  C   UNL     1      -9.855   9.164  66.580  1.00  0.00    -0.264 C  
HETATM   30  O   UNL     1     -11.001   9.602  66.543  1.00  0.00     0.055 OA 
HETATM   31  N   UNL     1      -8.773   9.951  66.227  1.00  0.00    -0.137 N  
HETATM   32  H   UNL     1      -7.865   9.513  66.074  1.00  0.00     0.000 HD 
BRANCH  28  33
HETATM   33  C   UNL     1      -8.988   5.353  65.986  1.00  0.00    -0.147 A  
HETATM   34  C   UNL     1      -9.895   4.292  65.862  1.00  0.00    -0.230 A  
HETATM   35  C   UNL     1      -7.672   5.051  66.370  1.00  0.00    -0.092 A  
HETATM   36  C   UNL     1      -7.268   3.723  66.607  1.00  0.00    -0.068 A  
HETATM   37  C   UNL     1      -9.492   2.965  66.098  1.00  0.00     0.028 A  
HETATM   38  C   UNL     1      -8.178   2.682  66.467  1.00  0.00    -0.086 A  
ENDBRANCH  28  33
BRANCH  31  39
HETATM   39  C   UNL     1      -8.909  11.414  66.070  1.00  0.00    -0.174 C  
HETATM   40  C   UNL     1     -10.497  12.820  67.441  1.00  0.00    -0.234 C  
HETATM   41  C   UNL     1     -11.039  12.529  66.085  1.00  0.00    -0.336 A  
HETATM   42  H   UNL     1      -9.019  11.887  69.394  1.00  0.00     0.000 HD 
HETATM   43  C   UNL     1      -9.081  12.205  67.411  1.00  0.00    -0.181 C  
HETATM   44  O   UNL     1      -8.915  11.407  68.581  1.00  0.00    -0.172 OA 
HETATM   45  C   UNL     1     -12.264  12.961  65.575  1.00  0.00    -0.527 A  
HETATM   46  C   UNL     1     -12.585  12.641  64.256  1.00  0.00    -0.453 A  
HETATM   47  C   UNL     1     -11.686  11.917  63.467  1.00  0.00    -0.550 A  
HETATM   48  C   UNL     1     -10.469  11.470  63.990  1.00  0.00    -0.424 A  
HETATM   49  C   UNL     1     -10.160  11.775  65.319  1.00  0.00    -0.300 A  
ENDBRANCH  31  39
ENDBRANCH  23  26
ENDBRANCH  22  23
ENDBRANCH  12  22
ENDBRANCH   6   9
TORSDOF 8
ENDMDL
MODEL      150
REMARK 921   NORMALIZED FREE ENERGY PREDICTED BY IDOCK:   -1.59 KCAL/MOL
REMARK 922        TOTAL FREE ENERGY PREDICTED BY IDOCK:   -4.30 KCAL/MOL
REMARK 923 INTER-LIGAND FREE ENERGY PREDICTED BY IDOCK:   -5.10 KCAL/MOL
REMARK 924 INTRA-LIGAND FREE ENERGY PREDICTED BY IDOCK:    0.80 KCAL/MOL
REMARK 927      BINDING AFFINITY PREDICTED BY RF-SCORE:    0.00 PKD
ROOT
HETATM    1  C   UNL     1     -10.101  14.166  69.412  1.00  0.00     0.176 C  
HETATM    2  C   UNL     1     -11.094  13.522  68.439  1.00  0.00    -0.271 C  
HETATM    3  N   UNL     1     -10.503  12.478  67.542  1.00  0.00    -0.218 N  
HETATM    4  C   UNL     1     -11.611  14.669  67.522  1.00  0.00    -0.396 C  
HETATM    5  C   UNL     1     -12.316  13.004  69.212  1.00  0.00     0.017 C  
HETATM    6  C   UNL     1      -9.919  11.243  67.627  1.00  0.00    -0.178 C  
HETATM    7  H   UNL     1     -10.550  12.781  66.570  1.00  0.00     0.000 HD 
HETATM    8  O   UNL     1      -9.859  10.623  66.554  1.00  0.00    -0.191 OA 
ENDROOT
BRANCH   6   9
HETATM    9  C   UNL     1      -9.298  10.633  68.896  1.00  0.00    -0.184 C  
HETATM   10  C   UNL     1      -7.722  10.571  68.998  1.00  0.00    -0.125 C  
HETATM   11  N   UNL     1      -7.282  10.382  70.418  1.00  0.00    -0.249 NA 
HETATM   12  N   UNL     1      -9.924   9.343  69.306  1.00  0.00    -0.173 NA 
HETATM   13  C   UNL     1      -8.081   9.317  71.089  1.00  0.00     0.010 C  
HETATM   14  C   UNL     1      -9.600   9.272  70.761  1.00  0.00    -0.275 C  
BRANCH  11  15
HETATM   15  C   UNL     1      -5.851  10.024  70.561  1.00  0.00    -0.084 C  
BRANCH  15  16
HETATM   16  C   UNL     1      -5.519   8.643  71.069  1.00  0.00    -0.033 A  
HETATM   17  C   UNL     1      -5.528   7.552  70.204  1.00  0.00    -0.023 A  
HETATM   18  N   UNL     1      -5.391   6.260  70.590  1.00  0.00    -0.014 NA 
HETATM   19  C   UNL     1      -5.208   7.047  72.860  1.00  0.00    -0.037 A  
HETATM   20  C   UNL     1      -5.237   6.038  71.912  1.00  0.00    -0.021 A  
HETATM   21  C   UNL     1      -5.354   8.368  72.429  1.00  0.00    -0.041 A  
ENDBRANCH  15  16
ENDBRANCH  11  15
BRANCH  12  22
HETATM   22  C   UNL     1      -9.460   8.073  68.635  1.00  0.00    -0.147 C  
BRANCH  22  23
HETATM   23  C   UNL     1     -10.463   6.909  68.384  1.00  0.00    -0.204 C  
HETATM   24  O   UNL     1     -11.091   7.113  67.107  1.00  0.00    -0.551 OA 
HETATM   25  H   UNL     1     -11.703   6.403  66.954  1.00  0.00     0.000 HD 
BRANCH  23  26
HETATM   26  C   UNL     1      -9.876   5.476  68.222  1.00  0.00    -0.185 C  
HETATM   27  C   UNL     1      -8.346   5.232  68.192  1.00  0.00    -0.097 C  
HETATM   28  C   UNL     1      -8.057   3.713  68.458  1.00  0.00    -0.076 C  
HETATM   29  C   UNL     1      -7.758   5.633  66.823  1.00  0.00    -0.100 C  
HETATM   30  O   UNL     1      -8.430   5.644  65.795  1.00  0.00    -0.128 OA 
HETATM   31  N   UNL     1      -6.422   5.990  66.812  1.00  0.00    -0.048 N  
HETATM   32  H   UNL     1      -5.842   5.783  67.625  1.00  0.00     0.000 HD 
BRANCH  28  33
HETATM   33  C   UNL     1      -8.458   3.157  69.824  1.00  0.00    -0.096 A  
HETATM   34  C   UNL     1      -9.370   2.100  69.941  1.00  0.00    -0.168 A  
HETATM   35  C   UNL     1      -7.953   3.723  71.005  1.00  0.00    -0.062 A  
HETATM   36  C   UNL     1      -8.335   3.234  72.270  1.00  0.00    -0.080 A  
HETATM   37  C   UNL     1      -9.752   1.610  71.203  1.00  0.00    -0.190 A  
HETATM   38  C   UNL     1      -9.231   2.176  72.367  1.00  0.00    -0.123 A  
ENDBRANCH  28  33
BRANCH  31  39
HETATM   39  C   UNL     1      -5.819   6.666  65.644  1.00  0.00    -0.030 C  
HETATM   40  C   UNL     1      -6.423   9.012  64.930  1.00  0.00    -0.066 C  
HETATM   41  C   UNL     1      -7.108   7.983  64.099  1.00  0.00    -0.079 A  
HETATM   42  H   UNL     1      -5.506   9.559  67.323  1.00  0.00     0.000 HD 
HETATM   43  C   UNL     1      -5.504   8.185  65.856  1.00  0.00    -0.028 C  
HETATM   44  O   UNL     1      -5.698   8.637  67.195  1.00  0.00    -0.041 OA 
HETATM   45  C   UNL     1      -7.980   8.225  63.037  1.00  0.00    -0.156 A  
HETATM   46  C   UNL     1      -8.485   7.134  62.330  1.00  0.00     0.075 A  
HETATM   47  C   UNL     1      -8.109   5.833  62.676  1.00  0.00    -0.108 A  
HETATM   48  C   UNL     1      -7.250   5.596  63.754  1.00  0.00    -0.054 A  
HETATM   49  C   UNL     1      -6.761   6.691  64.473  1.00  0.00    -0.042 A  
ENDBRANCH  31  39
ENDBRANCH  23  26
ENDBRANCH  22  23
ENDBRANCH  12  22
ENDBRANCH   6   9
TORSDOF 8
ENDMDL
MODEL      151
REMARK 921   NORMALIZED FREE ENERGY PREDICTED BY IDOCK:   -1.47 KCAL/MOL
REMARK 922        TOTAL FREE ENERGY PREDICTED BY IDOCK:   -4.12 KCAL/MOL
REMARK 923 INTER-LIGAND FREE ENERGY PREDICTED BY IDOCK:   -5.24 KCAL/MOL
REMARK 924 INTRA-LIGAND FREE ENERGY PREDICTED BY IDOCK:    1.13 KCAL/MOL
REMARK 927      BINDING AFFINITY PREDICTED BY RF-SCORE:    0.00 PKD
ROOT
HETATM    1  C   UNL     1     -12.304  13.039  66.342  1.00  0.00    -0.227 C  
HETATM    2  C   UNL     1     -11.221  13.325  65.296  1.00  0.00    -0.295 C  
HETATM    3  N   UNL     1      -9.971  13.942  65.844  1.00  0.00    -0.341 N  
HETATM    4  C   UNL     1     -11.835  14.351  64.301  1.00  0.00    -0.385 C  
HETATM    5  C   UNL     1     -10.935  12.053  64.484  1.00  0.00    -0.369 C  
HETATM    6  C   UNL     1      -8.944  13.634  66.696  1.00  0.00    -0.120 C  
HETATM    7  H   UNL     1      -9.846  14.881  65.466  1.00  0.00     0.000 HD 
HETATM    8  O   UNL     1      -7.953  14.373  66.603  1.00  0.00     0.160 OA 
ENDROOT
BRANCH   6   9
HETATM    9  C   UNL     1      -8.970  12.525  67.762  1.00  0.00    -0.184 C  
HETATM   10  C   UNL     1      -7.591  12.007  68.334  1.00  0.00    -0.128 C  
HETATM   11  N   UNL     1      -7.784  11.286  69.633  1.00  0.00     0.194 NA 
HETATM   12  N   UNL     1      -9.882  11.394  67.425  1.00  0.00    -0.181 NA 
HETATM   13  C   UNL     1      -8.924  10.329  69.552  1.00  0.00    -0.157 C  
HETATM   14  C   UNL     1     -10.177  10.803  68.762  1.00  0.00    -0.193 C  
BRANCH  11  15
HETATM   15  C   UNL     1      -6.592  10.525  70.080  1.00  0.00    -0.149 C  
BRANCH  15  16
HETATM   16  C   UNL     1      -6.821   9.274  70.891  1.00  0.00    -0.103 A  
HETATM   17  C   UNL     1      -7.511   9.332  72.099  1.00  0.00     0.679 A  
HETATM   18  N   UNL     1      -7.638   8.298  72.966  1.00  0.00    -0.225 NA 
HETATM   19  C   UNL     1      -6.337   6.967  71.437  1.00  0.00    -0.041 A  
HETATM   20  C   UNL     1      -7.044   7.140  72.615  1.00  0.00    -0.068 A  
HETATM   21  C   UNL     1      -6.224   8.053  70.565  1.00  0.00    -0.036 A  
ENDBRANCH  15  16
ENDBRANCH  11  15
BRANCH  12  22
HETATM   22  C   UNL     1      -9.372  10.309  66.507  1.00  0.00    -0.166 C  
BRANCH  22  23
HETATM   23  C   UNL     1     -10.307   9.136  66.086  1.00  0.00     0.011 C  
HETATM   24  O   UNL     1      -9.761   8.516  64.910  1.00  0.00     0.167 OA 
HETATM   25  H   UNL     1     -10.332   7.801  64.653  1.00  0.00     0.000 HD 
BRANCH  23  26
HETATM   26  C   UNL     1     -10.423   7.926  67.058  1.00  0.00    -0.419 C  
HETATM   27  C   UNL     1      -9.249   7.523  67.986  1.00  0.00    -0.137 C  
HETATM   28  C   UNL     1      -9.785   6.586  69.124  1.00  0.00    -0.143 C  
HETATM   29  C   UNL     1      -8.155   6.783  67.187  1.00  0.00    -0.117 C  
HETATM   30  O   UNL     1      -8.394   6.175  66.149  1.00  0.00    -0.117 OA 
HETATM   31  N   UNL     1      -6.873   6.848  67.703  1.00  0.00    -0.074 N  
HETATM   32  H   UNL     1      -6.734   7.182  68.657  1.00  0.00     0.000 HD 
BRANCH  28  33
HETATM   33  C   UNL     1     -10.793   7.187  70.103  1.00  0.00    -0.279 A  
HETATM   34  C   UNL     1     -10.469   8.300  70.890  1.00  0.00    -0.230 A  
HETATM   35  C   UNL     1     -12.062   6.610  70.272  1.00  0.00    -0.188 A  
HETATM   36  C   UNL     1     -12.989   7.141  71.189  1.00  0.00    -0.316 A  
HETATM   37  C   UNL     1     -11.395   8.831  71.807  1.00  0.00    -0.409 A  
HETATM   38  C   UNL     1     -12.655   8.253  71.953  1.00  0.00    -0.379 A  
ENDBRANCH  28  33
BRANCH  31  39
HETATM   39  C   UNL     1      -5.701   6.442  66.899  1.00  0.00    -0.013 C  
HETATM   40  C   UNL     1      -5.433   7.002  64.451  1.00  0.00    -0.032 C  
HETATM   41  C   UNL     1      -5.898   5.602  64.654  1.00  0.00    -0.021 A  
HETATM   42  H   UNL     1      -5.533   9.443  65.400  1.00  0.00     0.000 HD 
HETATM   43  C   UNL     1      -5.195   7.522  65.885  1.00  0.00    -0.025 C  
HETATM   44  O   UNL     1      -5.841   8.787  66.014  1.00  0.00    -0.046 OA 
HETATM   45  C   UNL     1      -6.160   4.665  63.654  1.00  0.00    -0.018 A  
HETATM   46  C   UNL     1      -6.532   3.375  64.032  1.00  0.00    -0.031 A  
HETATM   47  C   UNL     1      -6.624   3.035  65.385  1.00  0.00    -0.036 A  
HETATM   48  C   UNL     1      -6.379   3.984  66.382  1.00  0.00    -0.036 A  
HETATM   49  C   UNL     1      -6.025   5.281  66.000  1.00  0.00    -0.022 A  
ENDBRANCH  31  39
ENDBRANCH  23  26
ENDBRANCH  22  23
ENDBRANCH  12  22
ENDBRANCH   6   9
TORSDOF 8
ENDMDL
MODEL      152
REMARK 921   NORMALIZED FREE ENERGY PREDICTED BY IDOCK:   -1.45 KCAL/MOL
REMARK 922        TOTAL FREE ENERGY PREDICTED BY IDOCK:   -4.09 KCAL/MOL
REMARK 923 INTER-LIGAND FREE ENERGY PREDICTED BY IDOCK:   -4.28 KCAL/MOL
REMARK 924 INTRA-LIGAND FREE ENERGY PREDICTED BY IDOCK:    0.19 KCAL/MOL
REMARK 927      BINDING AFFINITY PREDICTED BY RF-SCORE:    0.00 PKD
ROOT
HETATM    1  C   UNL     1     -11.463  13.864  72.422  1.00  0.00     2.189 C  
HETATM    2  C   UNL     1     -12.671  13.835  71.480  1.00  0.00    -0.346 C  
HETATM    3  N   UNL     1     -12.352  13.462  70.065  1.00  0.00    -0.269 N  
HETATM    4  C   UNL     1     -13.235  15.285  71.451  1.00  0.00    -0.555 C  
HETATM    5  C   UNL     1     -13.776  12.953  72.081  1.00  0.00    -0.505 C  
HETATM    6  C   UNL     1     -11.880  12.393  69.352  1.00  0.00    -0.304 C  
HETATM    7  H   UNL     1     -12.545  14.245  69.442  1.00  0.00     0.000 HD 
HETATM    8  O   UNL     1     -12.073  12.461  68.128  1.00  0.00    -0.362 OA 
ENDROOT
BRANCH   6   9
HETATM    9  C   UNL     1     -11.099  11.203  69.936  1.00  0.00    -0.162 C  
HETATM   10  C   UNL     1      -9.538  11.147  69.699  1.00  0.00     0.571 C  
HETATM   11  N   UNL     1      -8.879  10.216  70.671  1.00  0.00     0.335 NA 
HETATM   12  N   UNL     1     -11.740   9.882  69.674  1.00  0.00    -0.047 NA 
HETATM   13  C   UNL     1      -9.629   8.932  70.776  1.00  0.00    -0.229 C  
HETATM   14  C   UNL     1     -11.181   9.027  70.761  1.00  0.00    -0.275 C  
BRANCH  11  15
HETATM   15  C   UNL     1      -7.475   9.887  70.329  1.00  0.00    -0.162 C  
BRANCH  15  16
HETATM   16  C   UNL     1      -6.858   8.675  70.982  1.00  0.00    -0.066 A  
HETATM   17  C   UNL     1      -6.902   7.434  70.350  1.00  0.00    -0.052 A  
HETATM   18  N   UNL     1      -6.512   6.266  70.916  1.00  0.00    -0.047 NA 
HETATM   19  C   UNL     1      -5.962   7.511  72.904  1.00  0.00    -0.047 A  
HETATM   20  C   UNL     1      -6.054   6.332  72.182  1.00  0.00    -0.042 A  
HETATM   21  C   UNL     1      -6.374   8.697  72.292  1.00  0.00    -0.074 A  
ENDBRANCH  15  16
ENDBRANCH  11  15
BRANCH  12  22
HETATM   22  C   UNL     1     -11.492   9.214  68.343  1.00  0.00     0.770 C  
BRANCH  22  23
HETATM   23  C   UNL     1     -10.125   9.394  67.619  1.00  0.00    -0.211 C  
HETATM   24  O   UNL     1      -9.349   8.198  67.802  1.00  0.00    -0.133 OA 
HETATM   25  H   UNL     1      -8.515   8.308  67.361  1.00  0.00     0.000 HD 
BRANCH  23  26
HETATM   26  C   UNL     1     -10.145   9.525  66.068  1.00  0.00    -0.319 C  
HETATM   27  C   UNL     1      -9.757  10.851  65.366  1.00  0.00    -0.287 C  
HETATM   28  C   UNL     1      -9.451  10.568  63.854  1.00  0.00    -0.338 C  
HETATM   29  C   UNL     1     -10.904  11.878  65.473  1.00  0.00    -0.295 C  
HETATM   30  O   UNL     1     -12.076  11.543  65.618  1.00  0.00    -0.066 OA 
HETATM   31  N   UNL     1     -10.540  13.210  65.403  1.00  0.00    -0.292 N  
HETATM   32  H   UNL     1      -9.602  13.456  65.085  1.00  0.00     0.000 HD 
BRANCH  28  33
HETATM   33  C   UNL     1      -8.258   9.663  63.543  1.00  0.00    -0.158 A  
HETATM   34  C   UNL     1      -7.007  10.198  63.208  1.00  0.00    -0.125 A  
HETATM   35  C   UNL     1      -8.397   8.266  63.542  1.00  0.00    -0.020 A  
HETATM   36  C   UNL     1      -7.311   7.425  63.232  1.00  0.00    -0.086 A  
HETATM   37  C   UNL     1      -5.921   9.358  62.899  1.00  0.00    -0.093 A  
HETATM   38  C   UNL     1      -6.074   7.972  62.915  1.00  0.00    -0.077 A  
ENDBRANCH  28  33
BRANCH  31  39
HETATM   39  C   UNL     1     -11.483  14.284  65.780  1.00  0.00    -0.335 C  
HETATM   40  C   UNL     1     -12.020  16.251  64.291  1.00  0.00     0.395 C  
HETATM   41  C   UNL     1     -11.041  16.608  65.354  1.00  0.00     0.014 A  
HETATM   42  H   UNL     1     -12.851  14.331  62.713  1.00  0.00     0.000 HD 
HETATM   43  C   UNL     1     -12.400  14.790  64.617  1.00  0.00    -0.333 C  
HETATM   44  O   UNL     1     -12.294  14.024  63.418  1.00  0.00    -0.748 OA 
HETATM   45  C   UNL     1     -10.464  17.862  65.559  1.00  0.00    -0.000 A  
HETATM   46  C   UNL     1      -9.607  18.030  66.647  1.00  0.00    -0.315 A  
HETATM   47  C   UNL     1      -9.351  16.965  67.515  1.00  0.00    -0.232 A  
HETATM   48  C   UNL     1      -9.917  15.706  67.293  1.00  0.00    -0.236 A  
HETATM   49  C   UNL     1     -10.759  15.535  66.191  1.00  0.00    -0.315 A  
ENDBRANCH  31  39
ENDBRANCH  23  26
ENDBRANCH  22  23
ENDBRANCH  12  22
ENDBRANCH   6   9
TORSDOF 8
ENDMDL
MODEL      153
REMARK 921   NORMALIZED FREE ENERGY PREDICTED BY IDOCK:   -1.32 KCAL/MOL
REMARK 922        TOTAL FREE ENERGY PREDICTED BY IDOCK:   -3.91 KCAL/MOL
REMARK 923 INTER-LIGAND FREE ENERGY PREDICTED BY IDOCK:   -4.51 KCAL/MOL
REMARK 924 INTRA-LIGAND FREE ENERGY PREDICTED BY IDOCK:    0.61 KCAL/MOL
REMARK 927      BINDING AFFINITY PREDICTED BY RF-SCORE:    0.00 PKD
ROOT
HETATM    1  C   UNL     1      -9.665  12.465  67.717  1.00  0.00    -0.201 C  
HETATM    2  C   UNL     1      -8.202  12.013  67.678  1.00  0.00    -0.155 C  
HETATM    3  N   UNL     1      -7.698  11.415  68.956  1.00  0.00    -0.278 N  
HETATM    4  C   UNL     1      -7.357  13.292  67.410  1.00  0.00    -0.125 C  
HETATM    5  C   UNL     1      -7.977  11.087  66.473  1.00  0.00    -0.158 C  
HETATM    6  C   UNL     1      -7.922  10.327  69.756  1.00  0.00    -0.126 C  
HETATM    7  H   UNL     1      -6.961  11.999  69.351  1.00  0.00     0.000 HD 
HETATM    8  O   UNL     1      -7.026  10.098  70.582  1.00  0.00    -0.298 OA 
ENDROOT
BRANCH   6   9
HETATM    9  C   UNL     1      -9.190   9.455  69.744  1.00  0.00    -0.196 C  
HETATM   10  C   UNL     1      -9.201   8.144  70.626  1.00  0.00    -0.154 C  
HETATM   11  N   UNL     1     -10.602   7.665  70.859  1.00  0.00    -0.212 NA 
HETATM   12  N   UNL     1      -9.725   9.199  68.376  1.00  0.00    -0.149 NA 
HETATM   13  C   UNL     1     -11.391   7.678  69.595  1.00  0.00     0.131 C  
HETATM   14  C   UNL     1     -11.159   8.883  68.641  1.00  0.00     0.244 C  
BRANCH  11  15
HETATM   15  C   UNL     1     -10.682   6.296  71.422  1.00  0.00    -0.248 C  
BRANCH  15  16
HETATM   16  C   UNL     1      -9.669   5.906  72.470  1.00  0.00    -0.172 A  
HETATM   17  C   UNL     1      -9.309   4.572  72.641  1.00  0.00    -0.129 A  
HETATM   18  N   UNL     1      -8.526   4.107  73.646  1.00  0.00    -0.092 NA 
HETATM   19  C   UNL     1      -8.369   6.370  74.456  1.00  0.00    -0.139 A  
HETATM   20  C   UNL     1      -8.078   5.018  74.532  1.00  0.00    -0.098 A  
HETATM   21  C   UNL     1      -9.179   6.817  73.410  1.00  0.00    -0.159 A  
ENDBRANCH  15  16
ENDBRANCH  11  15
BRANCH  12  22
HETATM   22  C   UNL     1      -9.116   8.082  67.563  1.00  0.00    -0.137 C  
BRANCH  22  23
HETATM   23  C   UNL     1      -9.635   6.623  67.724  1.00  0.00    -0.123 C  
HETATM   24  O   UNL     1     -10.090   6.155  66.443  1.00  0.00    -0.325 OA 
HETATM   25  H   UNL     1     -10.407   5.264  66.542  1.00  0.00     0.000 HD 
BRANCH  23  26
HETATM   26  C   UNL     1      -8.597   5.530  68.110  1.00  0.00    -0.100 C  
HETATM   27  C   UNL     1      -7.201   5.471  67.439  1.00  0.00    -0.075 C  
HETATM   28  C   UNL     1      -6.245   4.580  68.306  1.00  0.00    -0.035 C  
HETATM   29  C   UNL     1      -7.307   4.876  66.019  1.00  0.00    -0.078 C  
HETATM   30  O   UNL     1      -8.215   4.120  65.687  1.00  0.00    -0.107 OA 
HETATM   31  N   UNL     1      -6.318   5.248  65.126  1.00  0.00    -0.034 N  
HETATM   32  H   UNL     1      -5.476   5.707  65.474  1.00  0.00     0.000 HD 
BRANCH  28  33
HETATM   33  C   UNL     1      -5.917   5.077  69.714  1.00  0.00    -0.021 A  
HETATM   34  C   UNL     1      -5.687   4.182  70.767  1.00  0.00    -0.013 A  
HETATM   35  C   UNL     1      -5.881   6.451  70.000  1.00  0.00    -0.018 A  
HETATM   36  C   UNL     1      -5.604   6.919  71.299  1.00  0.00    -0.028 A  
HETATM   37  C   UNL     1      -5.411   4.648  72.065  1.00  0.00    -0.004 A  
HETATM   38  C   UNL     1      -5.367   6.017  72.329  1.00  0.00    -0.023 A  
ENDBRANCH  28  33
BRANCH  31  39
HETATM   39  C   UNL     1      -6.458   4.992  63.677  1.00  0.00    -0.026 C  
HETATM   40  C   UNL     1      -8.533   5.566  62.357  1.00  0.00    -0.100 C  
HETATM   41  C   UNL     1      -8.476   4.118  62.703  1.00  0.00    -0.087 A  
HETATM   42  H   UNL     1      -7.906   7.979  63.163  1.00  0.00     0.000 HD 
HETATM   43  C   UNL     1      -7.191   6.122  62.879  1.00  0.00    -0.054 C  
HETATM   44  O   UNL     1      -7.462   7.293  63.647  1.00  0.00    -0.082 OA 
HETATM   45  C   UNL     1      -9.418   3.148  62.360  1.00  0.00    -0.089 A  
HETATM   46  C   UNL     1      -9.170   1.824  62.719  1.00  0.00    -0.090 A  
HETATM   47  C   UNL     1      -7.995   1.484  63.395  1.00  0.00    -0.060 A  
HETATM   48  C   UNL     1      -7.064   2.463  63.754  1.00  0.00    -0.041 A  
HETATM   49  C   UNL     1      -7.325   3.793  63.410  1.00  0.00    -0.051 A  
ENDBRANCH  31  39
ENDBRANCH  23  26
ENDBRANCH  22  23
ENDBRANCH  12  22
ENDBRANCH   6   9
TORSDOF 8
ENDMDL
MODEL      154
REMARK 921   NORMALIZED FREE ENERGY PREDICTED BY IDOCK:   -1.26 KCAL/MOL
REMARK 922        TOTAL FREE ENERGY PREDICTED BY IDOCK:   -3.82 KCAL/MOL
REMARK 923 INTER-LIGAND FREE ENERGY PREDICTED BY IDOCK:   -5.91 KCAL/MOL
REMARK 924 INTRA-LIGAND FREE ENERGY PREDICTED BY IDOCK:    2.09 KCAL/MOL
REMARK 927      BINDING AFFINITY PREDICTED BY RF-SCORE:    0.00 PKD
ROOT
HETATM    1  C   UNL     1      -8.066   7.937  71.957  1.00  0.00    -0.141 C  
HETATM    2  C   UNL     1      -8.804   6.661  72.376  1.00  0.00    -0.132 C  
HETATM    3  N   UNL     1     -10.239   6.601  71.953  1.00  0.00    -0.186 N  
HETATM    4  C   UNL     1      -8.788   6.640  73.932  1.00  0.00    -0.164 C  
HETATM    5  C   UNL     1      -8.008   5.429  71.920  1.00  0.00    -0.113 C  
HETATM    6  C   UNL     1     -10.984   6.550  70.805  1.00  0.00    -0.276 C  
HETATM    7  H   UNL     1     -10.848   6.596  72.770  1.00  0.00     0.000 HD 
HETATM    8  O   UNL     1     -12.163   6.201  70.968  1.00  0.00    -0.001 OA 
ENDROOT
BRANCH   6   9
HETATM    9  C   UNL     1     -10.494   6.950  69.403  1.00  0.00    -0.217 C  
HETATM   10  C   UNL     1      -9.049   6.489  68.958  1.00  0.00    -0.132 C  
HETATM   11  N   UNL     1      -8.898   6.557  67.469  1.00  0.00    -0.113 NA 
HETATM   12  N   UNL     1     -10.738   8.383  69.071  1.00  0.00    -0.141 NA 
HETATM   13  C   UNL     1      -9.431   7.841  66.933  1.00  0.00    -0.187 C  
HETATM   14  C   UNL     1     -10.739   8.378  67.580  1.00  0.00    -0.137 C  
BRANCH  11  15
HETATM   15  C   UNL     1      -7.497   6.424  67.001  1.00  0.00    -0.084 C  
BRANCH  15  16
HETATM   16  C   UNL     1      -6.698   7.689  66.809  1.00  0.00    -0.066 A  
HETATM   17  C   UNL     1      -6.310   8.452  67.907  1.00  0.00    -0.056 A  
HETATM   18  N   UNL     1      -5.723   9.672  67.830  1.00  0.00    -0.040 NA 
HETATM   19  C   UNL     1      -5.852   9.488  65.431  1.00  0.00    -0.063 A  
HETATM   20  C   UNL     1      -5.511  10.162  66.592  1.00  0.00    -0.045 A  
HETATM   21  C   UNL     1      -6.457   8.234  65.545  1.00  0.00    -0.049 A  
ENDBRANCH  15  16
ENDBRANCH  11  15
BRANCH  12  22
HETATM   22  C   UNL     1      -9.747   9.412  69.560  1.00  0.00    -0.183 C  
BRANCH  22  23
HETATM   23  C   UNL     1      -9.782  10.863  68.996  1.00  0.00    -0.166 C  
HETATM   24  O   UNL     1      -8.436  11.274  68.704  1.00  0.00    -0.151 OA 
HETATM   25  H   UNL     1      -8.458  12.159  68.360  1.00  0.00     0.000 HD 
BRANCH  23  26
HETATM   26  C   UNL     1     -10.485  11.083  67.624  1.00  0.00    -0.239 C  
HETATM   27  C   UNL     1     -10.454  12.461  66.915  1.00  0.00    -0.243 C  
HETATM   28  C   UNL     1     -10.844  12.277  65.407  1.00  0.00    -0.324 C  
HETATM   29  C   UNL     1     -11.444  13.438  67.584  1.00  0.00    -0.319 C  
HETATM   30  O   UNL     1     -12.430  13.054  68.206  1.00  0.00     0.082 OA 
HETATM   31  N   UNL     1     -11.156  14.785  67.452  1.00  0.00    -0.314 N  
HETATM   32  H   UNL     1     -10.456  15.082  66.772  1.00  0.00     0.000 HD 
BRANCH  28  33
HETATM   33  C   UNL     1      -9.905  11.435  64.542  1.00  0.00    -0.302 A  
HETATM   34  C   UNL     1      -9.886  10.038  64.637  1.00  0.00    -0.288 A  
HETATM   35  C   UNL     1      -9.002  12.047  63.659  1.00  0.00     0.692 A  
HETATM   36  C   UNL     1      -8.115  11.282  62.876  1.00  0.00     0.252 A  
HETATM   37  C   UNL     1      -9.001   9.272  63.855  1.00  0.00    -0.092 A  
HETATM   38  C   UNL     1      -8.118   9.896  62.974  1.00  0.00    -0.147 A  
ENDBRANCH  28  33
BRANCH  31  39
HETATM   39  C   UNL     1     -11.844  15.800  68.277  1.00  0.00    -0.105 C  
HETATM   40  C   UNL     1     -10.630  17.427  69.779  1.00  0.00     0.329 C  
HETATM   41  C   UNL     1     -11.200  16.282  70.543  1.00  0.00    -0.327 A  
HETATM   42  H   UNL     1      -9.581  18.154  67.490  1.00  0.00     0.000 HD 
HETATM   43  C   UNL     1     -11.129  17.191  68.337  1.00  0.00    -0.107 C  
HETATM   44  O   UNL     1     -10.014  17.309  67.454  1.00  0.00    -0.263 OA 
HETATM   45  C   UNL     1     -11.115  16.084  71.922  1.00  0.00     0.188 A  
HETATM   46  C   UNL     1     -11.762  14.981  72.476  1.00  0.00    -0.398 A  
HETATM   47  C   UNL     1     -12.490  14.107  71.663  1.00  0.00    -0.395 A  
HETATM   48  C   UNL     1     -12.555  14.300  70.280  1.00  0.00    -0.378 A  
HETATM   49  C   UNL     1     -11.889  15.396  69.724  1.00  0.00    -0.367 A  
ENDBRANCH  31  39
ENDBRANCH  23  26
ENDBRANCH  22  23
ENDBRANCH  12  22
ENDBRANCH   6   9
TORSDOF 8
ENDMDL
MODEL      155
REMARK 921   NORMALIZED FREE ENERGY PREDICTED BY IDOCK:   -1.24 KCAL/MOL
REMARK 922        TOTAL FREE ENERGY PREDICTED BY IDOCK:   -3.78 KCAL/MOL
REMARK 923 INTER-LIGAND FREE ENERGY PREDICTED BY IDOCK:   -4.49 KCAL/MOL
REMARK 924 INTRA-LIGAND FREE ENERGY PREDICTED BY IDOCK:    0.71 KCAL/MOL
REMARK 927      BINDING AFFINITY PREDICTED BY RF-SCORE:    0.00 PKD
ROOT
HETATM    1  C   UNL     1      -5.126  10.648  68.981  1.00  0.00    -0.041 C  
HETATM    2  C   UNL     1      -6.424  10.380  69.750  1.00  0.00    -0.089 C  
HETATM    3  N   UNL     1      -7.566  11.276  69.382  1.00  0.00    -0.349 N  
HETATM    4  C   UNL     1      -6.105  10.644  71.250  1.00  0.00     0.340 C  
HETATM    5  C   UNL     1      -6.792   8.892  69.642  1.00  0.00    -0.050 C  
HETATM    6  C   UNL     1      -8.364  11.556  68.305  1.00  0.00    -0.154 C  
HETATM    7  H   UNL     1      -7.829  11.857  70.178  1.00  0.00     0.000 HD 
HETATM    8  O   UNL     1      -9.399  12.184  68.576  1.00  0.00    -0.183 OA 
ENDROOT
BRANCH   6   9
HETATM    9  C   UNL     1      -8.038  11.220  66.839  1.00  0.00    -0.155 C  
HETATM   10  C   UNL     1      -9.163  11.451  65.753  1.00  0.00    -0.208 C  
HETATM   11  N   UNL     1      -8.576  11.512  64.376  1.00  0.00     0.521 NA 
HETATM   12  N   UNL     1      -7.372   9.898  66.664  1.00  0.00    -0.097 NA 
HETATM   13  C   UNL     1      -7.597  10.409  64.161  1.00  0.00    -0.017 C  
HETATM   14  C   UNL     1      -6.669  10.057  65.358  1.00  0.00    -0.115 C  
BRANCH  11  15
HETATM   15  C   UNL     1      -9.583  11.433  63.291  1.00  0.00    -0.357 C  
BRANCH  15  16
HETATM   16  C   UNL     1     -10.921  12.090  63.525  1.00  0.00    -0.514 A  
HETATM   17  C   UNL     1     -10.993  13.422  63.923  1.00  0.00    -0.097 A  
HETATM   18  N   UNL     1     -12.131  14.055  64.299  1.00  0.00    -0.512 NA 
HETATM   19  C   UNL     1     -13.309  11.992  63.899  1.00  0.00     0.252 A  
HETATM   20  C   UNL     1     -13.262  13.322  64.281  1.00  0.00     0.836 A  
HETATM   21  C   UNL     1     -12.118  11.369  63.518  1.00  0.00     0.065 A  
ENDBRANCH  15  16
ENDBRANCH  11  15
BRANCH  12  22
HETATM   22  C   UNL     1      -8.235   8.660  66.612  1.00  0.00    -0.107 C  
BRANCH  22  23
HETATM   23  C   UNL     1      -7.739   7.391  65.857  1.00  0.00    -0.093 C  
HETATM   24  O   UNL     1      -6.309   7.315  65.981  1.00  0.00    -0.039 OA 
HETATM   25  H   UNL     1      -6.006   6.541  65.521  1.00  0.00     0.000 HD 
BRANCH  23  26
HETATM   26  C   UNL     1      -8.179   6.006  66.415  1.00  0.00    -0.112 C  
HETATM   27  C   UNL     1      -9.641   5.742  66.855  1.00  0.00    -0.153 C  
HETATM   28  C   UNL     1      -9.884   4.195  66.950  1.00  0.00    -0.197 C  
HETATM   29  C   UNL     1      -9.920   6.389  68.228  1.00  0.00    -0.140 C  
HETATM   30  O   UNL     1      -9.031   6.612  69.045  1.00  0.00    -0.131 OA 
HETATM   31  N   UNL     1     -11.238   6.716  68.493  1.00  0.00    -0.554 N  
HETATM   32  H   UNL     1     -11.976   6.344  67.895  1.00  0.00     0.000 HD 
BRANCH  28  33
HETATM   33  C   UNL     1      -9.776   3.393  65.653  1.00  0.00    -0.019 A  
HETATM   34  C   UNL     1      -9.047   2.198  65.595  1.00  0.00    -0.080 A  
HETATM   35  C   UNL     1     -10.370   3.858  64.469  1.00  0.00    -0.231 A  
HETATM   36  C   UNL     1     -10.255   3.139  63.264  1.00  0.00    -0.175 A  
HETATM   37  C   UNL     1      -8.932   1.479  64.391  1.00  0.00    -0.104 A  
HETATM   38  C   UNL     1      -9.539   1.949  63.227  1.00  0.00    -0.098 A  
ENDBRANCH  28  33
BRANCH  31  39
HETATM   39  C   UNL     1     -11.597   7.593  69.627  1.00  0.00     0.368 C  
HETATM   40  C   UNL     1     -10.266   9.638  70.279  1.00  0.00    -0.333 C  
HETATM   41  C   UNL     1      -9.962   8.473  71.154  1.00  0.00    -0.265 A  
HETATM   42  H   UNL     1     -10.934  10.367  67.852  1.00  0.00     0.000 HD 
HETATM   43  C   UNL     1     -11.396   9.123  69.361  1.00  0.00     0.202 C  
HETATM   44  O   UNL     1     -11.055   9.438  68.013  1.00  0.00    -0.123 OA 
HETATM   45  C   UNL     1      -9.068   8.455  72.226  1.00  0.00    -0.313 A  
HETATM   46  C   UNL     1      -8.952   7.286  72.976  1.00  0.00    -0.174 A  
HETATM   47  C   UNL     1      -9.730   6.167  72.664  1.00  0.00    -0.164 A  
HETATM   48  C   UNL     1     -10.609   6.184  71.577  1.00  0.00    -0.288 A  
HETATM   49  C   UNL     1     -10.708   7.351  70.815  1.00  0.00    -0.245 A  
ENDBRANCH  31  39
ENDBRANCH  23  26
ENDBRANCH  22  23
ENDBRANCH  12  22
ENDBRANCH   6   9
TORSDOF 8
ENDMDL
MODEL      156
REMARK 921   NORMALIZED FREE ENERGY PREDICTED BY IDOCK:   -0.94 KCAL/MOL
REMARK 922        TOTAL FREE ENERGY PREDICTED BY IDOCK:   -3.35 KCAL/MOL
REMARK 923 INTER-LIGAND FREE ENERGY PREDICTED BY IDOCK:   -7.41 KCAL/MOL
REMARK 924 INTRA-LIGAND FREE ENERGY PREDICTED BY IDOCK:    4.05 KCAL/MOL
REMARK 927      BINDING AFFINITY PREDICTED BY RF-SCORE:    0.00 PKD
ROOT
HETATM    1  C   UNL     1      -9.613   9.450  66.019  1.00  0.00    -0.328 C  
HETATM    2  C   UNL     1      -8.515   9.894  65.047  1.00  0.00    -0.154 C  
HETATM    3  N   UNL     1      -9.008  10.649  63.851  1.00  0.00    -0.192 N  
HETATM    4  C   UNL     1      -7.849   8.591  64.518  1.00  0.00    -0.138 C  
HETATM    5  C   UNL     1      -7.423  10.658  65.811  1.00  0.00    -0.114 C  
HETATM    6  C   UNL     1      -9.631  11.831  63.551  1.00  0.00    -0.219 C  
HETATM    7  H   UNL     1      -8.822  10.121  62.999  1.00  0.00     0.000 HD 
HETATM    8  O   UNL     1      -9.563  12.164  62.358  1.00  0.00     0.485 OA 
ENDROOT
BRANCH   6   9
HETATM    9  C   UNL     1     -10.434  12.695  64.539  1.00  0.00    -0.355 C  
HETATM   10  C   UNL     1      -9.649  13.429  65.697  1.00  0.00     0.013 C  
HETATM   11  N   UNL     1     -10.463  14.546  66.276  1.00  0.00    -0.293 NA 
HETATM   12  N   UNL     1     -11.665  12.027  65.051  1.00  0.00    -0.298 NA 
HETATM   13  C   UNL     1     -11.865  14.110  66.532  1.00  0.00    -0.419 C  
HETATM   14  C   UNL     1     -12.513  13.181  65.467  1.00  0.00    -0.458 C  
BRANCH  11  15
HETATM   15  C   UNL     1      -9.923  15.087  67.545  1.00  0.00    -0.226 C  
BRANCH  15  16
HETATM   16  C   UNL     1      -9.978  16.581  67.752  1.00  0.00    -0.253 A  
HETATM   17  C   UNL     1     -10.595  17.401  66.811  1.00  0.00    -0.194 A  
HETATM   18  N   UNL     1     -10.567  18.756  66.831  1.00  0.00    -0.418 NA 
HETATM   19  C   UNL     1      -9.239  18.613  68.837  1.00  0.00    -0.249 A  
HETATM   20  C   UNL     1      -9.885  19.330  67.844  1.00  0.00    -0.350 A  
HETATM   21  C   UNL     1      -9.286  17.217  68.786  1.00  0.00    -0.239 A  
ENDBRANCH  15  16
ENDBRANCH  11  15
BRANCH  12  22
HETATM   22  C   UNL     1     -11.534  11.067  66.210  1.00  0.00     0.405 C  
BRANCH  22  23
HETATM   23  C   UNL     1     -10.590  11.404  67.402  1.00  0.00    -0.218 C  
HETATM   24  O   UNL     1     -11.297  12.256  68.318  1.00  0.00    -0.243 OA 
HETATM   25  H   UNL     1     -10.720  12.462  69.046  1.00  0.00     0.000 HD 
BRANCH  23  26
HETATM   26  C   UNL     1     -10.157  10.231  68.328  1.00  0.00    -0.176 C  
HETATM   27  C   UNL     1      -9.393  10.489  69.652  1.00  0.00    -0.010 C  
HETATM   28  C   UNL     1      -9.477   9.212  70.558  1.00  0.00    -0.291 C  
HETATM   29  C   UNL     1      -7.912  10.819  69.369  1.00  0.00    -0.067 C  
HETATM   30  O   UNL     1      -7.334  10.439  68.354  1.00  0.00    -0.081 OA 
HETATM   31  N   UNL     1      -7.262  11.579  70.324  1.00  0.00     0.337 N  
HETATM   32  H   UNL     1      -7.695  11.710  71.238  1.00  0.00     0.000 HD 
BRANCH  28  33
HETATM   33  C   UNL     1     -10.865   8.797  71.049  1.00  0.00    -0.321 A  
HETATM   34  C   UNL     1     -11.304   7.470  70.952  1.00  0.00    -0.297 A  
HETATM   35  C   UNL     1     -11.756   9.748  71.571  1.00  0.00    -0.450 A  
HETATM   36  C   UNL     1     -13.045   9.380  72.002  1.00  0.00    -0.516 A  
HETATM   37  C   UNL     1     -12.592   7.102  71.383  1.00  0.00    -0.432 A  
HETATM   38  C   UNL     1     -13.459   8.057  71.911  1.00  0.00    -0.342 A  
ENDBRANCH  28  33
BRANCH  31  39
HETATM   39  C   UNL     1      -5.952  12.205  70.045  1.00  0.00    -0.156 C  
HETATM   40  C   UNL     1      -5.138  14.300  71.195  1.00  0.00    -0.130 C  
HETATM   41  C   UNL     1      -5.670  14.583  69.833  1.00  0.00    -0.114 A  
HETATM   42  H   UNL     1      -5.385  12.769  73.307  1.00  0.00     0.000 HD 
HETATM   43  C   UNL     1      -5.209  12.762  71.305  1.00  0.00    -0.163 C  
HETATM   44  O   UNL     1      -5.837  12.432  72.542  1.00  0.00     0.609 OA 
HETATM   45  C   UNL     1      -5.728  15.831  69.211  1.00  0.00    -0.111 A  
HETATM   46  C   UNL     1      -6.206  15.901  67.903  1.00  0.00    -0.153 A  
HETATM   47  C   UNL     1      -6.602  14.739  67.234  1.00  0.00     0.159 A  
HETATM   48  C   UNL     1      -6.559  13.494  67.869  1.00  0.00    -0.154 A  
HETATM   49  C   UNL     1      -6.099  13.431  69.187  1.00  0.00    -0.093 A  
ENDBRANCH  31  39
ENDBRANCH  23  26
ENDBRANCH  22  23
ENDBRANCH  12  22
ENDBRANCH   6   9
TORSDOF 8
ENDMDL
MODEL      157
REMARK 921   NORMALIZED FREE ENERGY PREDICTED BY IDOCK:   -0.90 KCAL/MOL
REMARK 922        TOTAL FREE ENERGY PREDICTED BY IDOCK:   -3.29 KCAL/MOL
REMARK 923 INTER-LIGAND FREE ENERGY PREDICTED BY IDOCK:   -4.29 KCAL/MOL
REMARK 924 INTRA-LIGAND FREE ENERGY PREDICTED BY IDOCK:    1.01 KCAL/MOL
REMARK 927      BINDING AFFINITY PREDICTED BY RF-SCORE:    0.00 PKD
ROOT
HETATM    1  C   UNL     1     -11.775   9.197  70.775  1.00  0.00    -0.308 C  
HETATM    2  C   UNL     1     -12.124   8.103  71.790  1.00  0.00    -0.315 C  
HETATM    3  N   UNL     1     -11.813   6.709  71.339  1.00  0.00    -0.323 N  
HETATM    4  C   UNL     1     -13.663   8.180  72.002  1.00  0.00    -0.347 C  
HETATM    5  C   UNL     1     -11.484   8.433  73.148  1.00  0.00     0.500 C  
HETATM    6  C   UNL     1     -10.730   5.938  71.011  1.00  0.00    -0.267 C  
HETATM    7  H   UNL     1     -12.673   6.169  71.248  1.00  0.00     0.000 HD 
HETATM    8  O   UNL     1     -10.952   4.718  70.983  1.00  0.00     0.189 OA 
ENDROOT
BRANCH   6   9
HETATM    9  C   UNL     1      -9.339   6.469  70.623  1.00  0.00    -0.162 C  
HETATM   10  C   UNL     1      -8.901   7.884  71.173  1.00  0.00    -0.138 C  
HETATM   11  N   UNL     1      -7.415   8.056  71.092  1.00  0.00    -0.066 NA 
HETATM   12  N   UNL     1      -9.030   6.327  69.171  1.00  0.00    -0.128 NA 
HETATM   13  C   UNL     1      -6.896   7.617  69.766  1.00  0.00    -0.047 C  
HETATM   14  C   UNL     1      -7.539   6.341  69.153  1.00  0.00    -0.099 C  
BRANCH  11  15
HETATM   15  C   UNL     1      -6.959   9.450  71.312  1.00  0.00     0.048 C  
BRANCH  15  16
HETATM   16  C   UNL     1      -6.941  10.379  70.123  1.00  0.00    -0.146 A  
HETATM   17  C   UNL     1      -5.786  11.083  69.796  1.00  0.00    -0.062 A  
HETATM   18  N   UNL     1      -5.712  12.047  68.845  1.00  0.00    -0.050 NA 
HETATM   19  C   UNL     1      -8.058  11.689  68.423  1.00  0.00    -0.153 A  
HETATM   20  C   UNL     1      -6.853  12.329  68.183  1.00  0.00    -0.078 A  
HETATM   21  C   UNL     1      -8.099  10.701  69.411  1.00  0.00    -0.102 A  
ENDBRANCH  15  16
ENDBRANCH  11  15
BRANCH  12  22
HETATM   22  C   UNL     1      -9.546   7.379  68.219  1.00  0.00    -0.150 C  
BRANCH  22  23
HETATM   23  C   UNL     1      -9.388   7.189  66.682  1.00  0.00    -0.166 C  
HETATM   24  O   UNL     1     -10.017   8.297  66.017  1.00  0.00    -0.467 OA 
HETATM   25  H   UNL     1      -9.921   8.181  65.079  1.00  0.00     0.000 HD 
BRANCH  23  26
HETATM   26  C   UNL     1      -7.947   7.244  66.096  1.00  0.00    -0.112 C  
HETATM   27  C   UNL     1      -7.525   6.341  64.909  1.00  0.00    -0.084 C  
HETATM   28  C   UNL     1      -6.210   6.906  64.268  1.00  0.00    -0.036 C  
HETATM   29  C   UNL     1      -7.281   4.894  65.387  1.00  0.00    -0.068 C  
HETATM   30  O   UNL     1      -6.970   4.626  66.544  1.00  0.00    -0.063 OA 
HETATM   31  N   UNL     1      -7.439   3.901  64.436  1.00  0.00    -0.070 N  
HETATM   32  H   UNL     1      -7.499   4.158  63.451  1.00  0.00     0.000 HD 
BRANCH  28  33
HETATM   33  C   UNL     1      -6.288   8.290  63.624  1.00  0.00    -0.072 A  
HETATM   34  C   UNL     1      -5.247   9.217  63.762  1.00  0.00    -0.061 A  
HETATM   35  C   UNL     1      -7.430   8.686  62.910  1.00  0.00    -0.104 A  
HETATM   36  C   UNL     1      -7.522   9.968  62.334  1.00  0.00    -0.134 A  
HETATM   37  C   UNL     1      -5.338  10.498  63.186  1.00  0.00    -0.164 A  
HETATM   38  C   UNL     1      -6.475  10.870  62.470  1.00  0.00    -0.005 A  
ENDBRANCH  28  33
BRANCH  31  39
HETATM   39  C   UNL     1      -7.524   2.477  64.822  1.00  0.00    -0.071 C  
HETATM   40  C   UNL     1      -9.185   1.588  66.503  1.00  0.00     0.016 C  
HETATM   41  C   UNL     1      -7.831   1.766  67.098  1.00  0.00    -0.065 A  
HETATM   42  H   UNL     1     -10.881   2.525  64.740  1.00  0.00     0.000 HD 
HETATM   43  C   UNL     1      -8.980   1.934  65.013  1.00  0.00    -0.123 C  
HETATM   44  O   UNL     1      -9.998   2.855  64.625  1.00  0.00    -0.091 OA 
HETATM   45  C   UNL     1      -7.463   1.484  68.415  1.00  0.00    -0.046 A  
HETATM   46  C   UNL     1      -6.130   1.657  68.784  1.00  0.00    -0.024 A  
HETATM   47  C   UNL     1      -5.188   2.090  67.845  1.00  0.00    -0.012 A  
HETATM   48  C   UNL     1      -5.567   2.389  66.533  1.00  0.00    -0.021 A  
HETATM   49  C   UNL     1      -6.908   2.234  66.172  1.00  0.00    -0.043 A  
ENDBRANCH  31  39
ENDBRANCH  23  26
ENDBRANCH  22  23
ENDBRANCH  12  22
ENDBRANCH   6   9
TORSDOF 8
ENDMDL
MODEL      158
REMARK 921   NORMALIZED FREE ENERGY PREDICTED BY IDOCK:   -0.68 KCAL/MOL
REMARK 922        TOTAL FREE ENERGY PREDICTED BY IDOCK:   -2.97 KCAL/MOL
REMARK 923 INTER-LIGAND FREE ENERGY PREDICTED BY IDOCK:   -3.08 KCAL/MOL
REMARK 924 INTRA-LIGAND FREE ENERGY PREDICTED BY IDOCK:    0.11 KCAL/MOL
REMARK 927      BINDING AFFINITY PREDICTED BY RF-SCORE:    0.00 PKD
ROOT
HETATM    1  C   UNL     1     -12.809  10.700  70.264  1.00  0.00    -0.211 C  
HETATM    2  C   UNL     1     -12.440   9.960  71.554  1.00  0.00    -0.411 C  
HETATM    3  N   UNL     1     -12.728   8.491  71.536  1.00  0.00    -0.322 N  
HETATM    4  C   UNL     1     -13.317  10.582  72.679  1.00  0.00     0.588 C  
HETATM    5  C   UNL     1     -10.981  10.264  71.926  1.00  0.00     1.865 C  
HETATM    6  C   UNL     1     -12.329   7.359  70.877  1.00  0.00    -0.201 C  
HETATM    7  H   UNL     1     -13.441   8.263  72.229  1.00  0.00     0.000 HD 
HETATM    8  O   UNL     1     -12.648   6.297  71.431  1.00  0.00    -0.027 OA 
ENDROOT
BRANCH   6   9
HETATM    9  C   UNL     1     -11.607   7.324  69.519  1.00  0.00     0.235 C  
HETATM   10  C   UNL     1     -10.847   5.999  69.112  1.00  0.00    -0.352 C  
HETATM   11  N   UNL     1     -10.593   5.957  67.636  1.00  0.00    -0.246 NA 
HETATM   12  N   UNL     1     -10.776   8.534  69.253  1.00  0.00    -0.182 NA 
HETATM   13  C   UNL     1     -10.061   7.260  67.146  1.00  0.00    -0.236 C  
HETATM   14  C   UNL     1     -10.682   8.544  67.764  1.00  0.00    -0.101 C  
BRANCH  11  15
HETATM   15  C   UNL     1      -9.639   4.900  67.221  1.00  0.00    -0.155 C  
BRANCH  15  16
HETATM   16  C   UNL     1      -9.707   4.413  65.795  1.00  0.00    -0.213 A  
HETATM   17  C   UNL     1      -8.633   3.726  65.233  1.00  0.00    -0.114 A  
HETATM   18  N   UNL     1      -8.538   3.381  63.925  1.00  0.00    -0.090 NA 
HETATM   19  C   UNL     1     -10.684   4.421  63.582  1.00  0.00     0.275 A  
HETATM   20  C   UNL     1      -9.566   3.740  63.130  1.00  0.00    -0.132 A  
HETATM   21  C   UNL     1     -10.751   4.763  64.935  1.00  0.00     0.220 A  
ENDBRANCH  15  16
ENDBRANCH  11  15
BRANCH  12  22
HETATM   22  C   UNL     1      -9.385   8.593  69.836  1.00  0.00    -0.159 C  
BRANCH  22  23
HETATM   23  C   UNL     1      -8.563   9.915  69.767  1.00  0.00    -0.203 C  
HETATM   24  O   UNL     1      -7.259   9.672  70.321  1.00  0.00    -0.101 OA 
HETATM   25  H   UNL     1      -6.758  10.478  70.280  1.00  0.00     0.000 HD 
BRANCH  23  26
HETATM   26  C   UNL     1      -8.209  10.467  68.356  1.00  0.00    -0.121 C  
HETATM   27  C   UNL     1      -8.085   9.527  67.130  1.00  0.00    -0.106 C  
HETATM   28  C   UNL     1      -8.157  10.377  65.814  1.00  0.00    -0.155 C  
HETATM   29  C   UNL     1      -6.747   8.758  67.169  1.00  0.00    -0.066 C  
HETATM   30  O   UNL     1      -5.758   9.185  67.758  1.00  0.00    -0.038 OA 
HETATM   31  N   UNL     1      -6.721   7.544  66.506  1.00  0.00    -0.056 N  
HETATM   32  H   UNL     1      -7.478   7.308  65.865  1.00  0.00     0.000 HD 
BRANCH  28  33
HETATM   33  C   UNL     1      -9.465  11.118  65.535  1.00  0.00    -0.251 A  
HETATM   34  C   UNL     1     -10.205  10.876  64.370  1.00  0.00    -0.423 A  
HETATM   35  C   UNL     1      -9.939  12.097  66.422  1.00  0.00    -0.243 A  
HETATM   36  C   UNL     1     -11.129  12.803  66.162  1.00  0.00    -0.322 A  
HETATM   37  C   UNL     1     -11.395  11.580  64.110  1.00  0.00    -0.349 A  
HETATM   38  C   UNL     1     -11.857  12.541  65.008  1.00  0.00    -0.445 A  
ENDBRANCH  28  33
BRANCH  31  39
HETATM   39  C   UNL     1      -5.616   6.584  66.709  1.00  0.00    -0.013 C  
HETATM   40  C   UNL     1      -5.662   4.209  65.853  1.00  0.00    -0.022 C  
HETATM   41  C   UNL     1      -5.988   4.285  67.304  1.00  0.00    -0.024 A  
HETATM   42  H   UNL     1      -5.853   5.453  63.555  1.00  0.00     0.000 HD 
HETATM   43  C   UNL     1      -5.311   5.665  65.478  1.00  0.00    -0.010 C  
HETATM   44  O   UNL     1      -6.038   6.011  64.301  1.00  0.00    -0.025 OA 
HETATM   45  C   UNL     1      -6.282   3.208  68.143  1.00  0.00    -0.032 A  
HETATM   46  C   UNL     1      -6.507   3.462  69.495  1.00  0.00    -0.033 A  
HETATM   47  C   UNL     1      -6.422   4.765  69.993  1.00  0.00    -0.035 A  
HETATM   48  C   UNL     1      -6.147   5.842  69.144  1.00  0.00    -0.024 A  
HETATM   49  C   UNL     1      -5.942   5.587  67.785  1.00  0.00    -0.018 A  
ENDBRANCH  31  39
ENDBRANCH  23  26
ENDBRANCH  22  23
ENDBRANCH  12  22
ENDBRANCH   6   9
TORSDOF 8
ENDMDL
MODEL      159
REMARK 921   NORMALIZED FREE ENERGY PREDICTED BY IDOCK:   -0.56 KCAL/MOL
REMARK 922        TOTAL FREE ENERGY PREDICTED BY IDOCK:   -2.78 KCAL/MOL
REMARK 923 INTER-LIGAND FREE ENERGY PREDICTED BY IDOCK:   -5.25 KCAL/MOL
REMARK 924 INTRA-LIGAND FREE ENERGY PREDICTED BY IDOCK:    2.47 KCAL/MOL
REMARK 927      BINDING AFFINITY PREDICTED BY RF-SCORE:    0.00 PKD
ROOT
HETATM    1  C   UNL     1     -10.962   8.849  70.898  1.00  0.00    -0.325 C  
HETATM    2  C   UNL     1     -10.881   7.320  70.958  1.00  0.00    -0.239 C  
HETATM    3  N   UNL     1     -10.550   6.660  69.655  1.00  0.00    -0.218 N  
HETATM    4  C   UNL     1     -12.297   6.825  71.371  1.00  0.00    -0.403 C  
HETATM    5  C   UNL     1      -9.929   6.895  72.086  1.00  0.00    -0.176 C  
HETATM    6  C   UNL     1      -9.521   6.592  68.754  1.00  0.00    -0.128 C  
HETATM    7  H   UNL     1     -11.332   6.084  69.342  1.00  0.00     0.000 HD 
HETATM    8  O   UNL     1      -9.598   5.652  67.949  1.00  0.00    -0.114 OA 
ENDROOT
BRANCH   6   9
HETATM    9  C   UNL     1      -8.367   7.603  68.637  1.00  0.00    -0.129 C  
HETATM   10  C   UNL     1      -7.643   8.065  69.964  1.00  0.00    -0.082 C  
HETATM   11  N   UNL     1      -6.305   8.669  69.665  1.00  0.00    -0.039 NA 
HETATM   12  N   UNL     1      -8.675   8.761  67.751  1.00  0.00    -0.135 NA 
HETATM   13  C   UNL     1      -6.393   9.632  68.531  1.00  0.00    -0.047 C  
HETATM   14  C   UNL     1      -7.319   9.233  67.347  1.00  0.00    -0.087 C  
BRANCH  11  15
HETATM   15  C   UNL     1      -5.699   9.385  70.813  1.00  0.00    -0.053 C  
BRANCH  15  16
HETATM   16  C   UNL     1      -5.890   8.795  72.188  1.00  0.00    -0.067 A  
HETATM   17  C   UNL     1      -5.136   7.698  72.596  1.00  0.00    -0.036 A  
HETATM   18  N   UNL     1      -5.336   7.008  73.746  1.00  0.00    -0.046 NA 
HETATM   19  C   UNL     1      -7.153   8.515  74.232  1.00  0.00    -0.175 A  
HETATM   20  C   UNL     1      -6.343   7.433  74.536  1.00  0.00    -0.082 A  
HETATM   21  C   UNL     1      -6.921   9.202  73.038  1.00  0.00     0.523 A  
ENDBRANCH  15  16
ENDBRANCH  11  15
BRANCH  12  22
HETATM   22  C   UNL     1      -9.451   9.921  68.327  1.00  0.00    -0.139 C  
BRANCH  22  23
HETATM   23  C   UNL     1      -8.697  11.146  68.925  1.00  0.00    -0.080 C  
HETATM   24  O   UNL     1      -7.572  11.446  68.083  1.00  0.00    -0.102 OA 
HETATM   25  H   UNL     1      -7.112  12.194  68.447  1.00  0.00     0.000 HD 
BRANCH  23  26
HETATM   26  C   UNL     1      -9.448  12.510  68.948  1.00  0.00     0.242 C  
HETATM   27  C   UNL     1     -10.653  12.782  68.013  1.00  0.00    -0.238 C  
HETATM   28  C   UNL     1     -11.456  14.019  68.547  1.00  0.00    -0.336 C  
HETATM   29  C   UNL     1     -10.171  13.066  66.574  1.00  0.00    -0.268 C  
HETATM   30  O   UNL     1      -9.052  13.507  66.329  1.00  0.00    -0.125 OA 
HETATM   31  N   UNL     1     -11.073  12.789  65.562  1.00  0.00    -0.280 N  
HETATM   32  H   UNL     1     -12.051  12.617  65.797  1.00  0.00     0.000 HD 
BRANCH  28  33
HETATM   33  C   UNL     1     -12.120  13.880  69.917  1.00  0.00    -0.406 A  
HETATM   34  C   UNL     1     -12.390  12.621  70.470  1.00  0.00    -0.350 A  
HETATM   35  C   UNL     1     -12.519  15.015  70.639  1.00  0.00    -0.422 A  
HETATM   36  C   UNL     1     -13.154  14.897  71.891  1.00  0.00    -0.425 A  
HETATM   37  C   UNL     1     -13.024  12.503  71.720  1.00  0.00    -0.419 A  
HETATM   38  C   UNL     1     -13.403  13.641  72.431  1.00  0.00    -0.641 A  
ENDBRANCH  28  33
BRANCH  31  39
HETATM   39  C   UNL     1     -10.645  12.736  64.148  1.00  0.00    -0.415 C  
HETATM   40  C   UNL     1     -11.505  11.030  62.498  1.00  0.00     1.780 C  
HETATM   41  C   UNL     1     -10.157  10.671  63.018  1.00  0.00    -0.132 A  
HETATM   42  H   UNL     1     -13.784  12.181  63.089  1.00  0.00     0.000 HD 
HETATM   43  C   UNL     1     -11.788  12.410  63.129  1.00  0.00    -0.246 C  
HETATM   44  O   UNL     1     -13.091  12.378  63.708  1.00  0.00    -0.756 OA 
HETATM   45  C   UNL     1      -9.407   9.548  62.665  1.00  0.00     0.038 A  
HETATM   46  C   UNL     1      -8.132   9.402  63.210  1.00  0.00    -0.151 A  
HETATM   47  C   UNL     1      -7.620  10.373  64.077  1.00  0.00    -0.013 A  
HETATM   48  C   UNL     1      -8.383  11.485  64.441  1.00  0.00     0.939 A  
HETATM   49  C   UNL     1      -9.669  11.618  63.909  1.00  0.00    -0.253 A  
ENDBRANCH  31  39
ENDBRANCH  23  26
ENDBRANCH  22  23
ENDBRANCH  12  22
ENDBRANCH   6   9
TORSDOF 8
ENDMDL
MODEL      160
REMARK 921   NORMALIZED FREE ENERGY PREDICTED BY IDOCK:   -0.43 KCAL/MOL
REMARK 922        TOTAL FREE ENERGY PREDICTED BY IDOCK:   -2.59 KCAL/MOL
REMARK 923 INTER-LIGAND FREE ENERGY PREDICTED BY IDOCK:   -5.46 KCAL/MOL
REMARK 924 INTRA-LIGAND FREE ENERGY PREDICTED BY IDOCK:    2.87 KCAL/MOL
REMARK 927      BINDING AFFINITY PREDICTED BY RF-SCORE:    0.00 PKD
ROOT
HETATM    1  C   UNL     1      -8.630  17.054  69.018  1.00  0.00    -0.126 C  
HETATM    2  C   UNL     1      -9.868  16.378  68.420  1.00  0.00    -0.233 C  
HETATM    3  N   UNL     1      -9.618  15.631  67.146  1.00  0.00    -0.216 N  
HETATM    4  C   UNL     1     -10.871  17.520  68.088  1.00  0.00    -0.246 C  
HETATM    5  C   UNL     1     -10.546  15.503  69.485  1.00  0.00    -0.258 C  
HETATM    6  C   UNL     1      -8.915  14.546  66.696  1.00  0.00    -0.219 C  
HETATM    7  H   UNL     1     -10.129  16.065  66.377  1.00  0.00     0.000 HD 
HETATM    8  O   UNL     1      -9.266  14.127  65.582  1.00  0.00     0.064 OA 
ENDROOT
BRANCH   6   9
HETATM    9  C   UNL     1      -7.726  13.889  67.418  1.00  0.00    -0.148 C  
HETATM   10  C   UNL     1      -7.090  12.591  66.779  1.00  0.00     0.349 C  
HETATM   11  N   UNL     1      -5.716  12.341  67.322  1.00  0.00    -0.174 NA 
HETATM   12  N   UNL     1      -7.933  13.731  68.886  1.00  0.00    -0.032 NA 
HETATM   13  C   UNL     1      -5.690  12.490  68.805  1.00  0.00    -0.062 C  
HETATM   14  C   UNL     1      -6.537  13.648  69.405  1.00  0.00    -0.090 C  
BRANCH  11  15
HETATM   15  C   UNL     1      -5.176  11.000  66.998  1.00  0.00    -0.057 C  
BRANCH  15  16
HETATM   16  C   UNL     1      -5.536   9.857  67.915  1.00  0.00    -0.039 A  
HETATM   17  C   UNL     1      -5.171   9.889  69.258  1.00  0.00    -0.035 A  
HETATM   18  N   UNL     1      -5.316   8.855  70.122  1.00  0.00    -0.028 NA 
HETATM   19  C   UNL     1      -6.253   7.580  68.305  1.00  0.00    -0.036 A  
HETATM   20  C   UNL     1      -5.851   7.722  69.623  1.00  0.00    -0.023 A  
HETATM   21  C   UNL     1      -6.089   8.665  67.440  1.00  0.00    -0.052 A  
ENDBRANCH  15  16
ENDBRANCH  11  15
BRANCH  12  22
HETATM   22  C   UNL     1      -8.714  12.536  69.378  1.00  0.00     1.267 C  
BRANCH  22  23
HETATM   23  C   UNL     1      -8.473  11.131  68.750  1.00  0.00    -0.134 C  
HETATM   24  O   UNL     1      -9.089  10.142  69.591  1.00  0.00    -0.240 OA 
HETATM   25  H   UNL     1      -8.942   9.285  69.208  1.00  0.00     0.000 HD 
BRANCH  23  26
HETATM   26  C   UNL     1      -9.139  10.836  67.374  1.00  0.00    -0.148 C  
HETATM   27  C   UNL     1     -10.433   9.990  67.270  1.00  0.00    -0.313 C  
HETATM   28  C   UNL     1     -11.094  10.222  65.867  1.00  0.00     0.498 C  
HETATM   29  C   UNL     1     -10.117   8.490  67.445  1.00  0.00    -0.234 C  
HETATM   30  O   UNL     1      -9.014   8.014  67.191  1.00  0.00    -0.131 OA 
HETATM   31  N   UNL     1     -11.150   7.698  67.915  1.00  0.00    -0.465 N  
HETATM   32  H   UNL     1     -12.099   8.070  67.927  1.00  0.00     0.000 HD 
BRANCH  28  33
HETATM   33  C   UNL     1     -11.592  11.634  65.557  1.00  0.00    -0.085 A  
HETATM   34  C   UNL     1     -11.677  12.103  64.240  1.00  0.00    -0.451 A  
HETATM   35  C   UNL     1     -11.937  12.517  66.593  1.00  0.00    -0.351 A  
HETATM   36  C   UNL     1     -12.373  13.828  66.319  1.00  0.00    -0.479 A  
HETATM   37  C   UNL     1     -12.113  13.412  63.965  1.00  0.00    -0.506 A  
HETATM   38  C   UNL     1     -12.463  14.272  65.005  1.00  0.00    -0.409 A  
ENDBRANCH  28  33
BRANCH  31  39
HETATM   39  C   UNL     1     -10.903   6.324  68.400  1.00  0.00    -0.319 C  
HETATM   40  C   UNL     1      -8.871   5.669  69.748  1.00  0.00    -0.130 C  
HETATM   41  C   UNL     1      -8.734   5.289  68.315  1.00  0.00    -0.101 A  
HETATM   42  H   UNL     1      -9.881   7.433  71.401  1.00  0.00     0.000 HD 
HETATM   43  C   UNL     1     -10.304   6.235  69.844  1.00  0.00    -0.196 C  
HETATM   44  O   UNL     1     -10.244   7.487  70.525  1.00  0.00    -0.199 OA 
HETATM   45  C   UNL     1      -7.645   4.639  67.732  1.00  0.00    -0.078 A  
HETATM   46  C   UNL     1      -7.715   4.307  66.379  1.00  0.00    -0.094 A  
HETATM   47  C   UNL     1      -8.861   4.609  65.637  1.00  0.00    -0.131 A  
HETATM   48  C   UNL     1      -9.941   5.277  66.222  1.00  0.00    -0.216 A  
HETATM   49  C   UNL     1      -9.859   5.626  67.573  1.00  0.00    -0.156 A  
ENDBRANCH  31  39
ENDBRANCH  23  26
ENDBRANCH  22  23
ENDBRANCH  12  22
ENDBRANCH   6   9
TORSDOF 8
ENDMDL
MODEL      161
REMARK 921   NORMALIZED FREE ENERGY PREDICTED BY IDOCK:   -0.40 KCAL/MOL
REMARK 922        TOTAL FREE ENERGY PREDICTED BY IDOCK:   -2.55 KCAL/MOL
REMARK 923 INTER-LIGAND FREE ENERGY PREDICTED BY IDOCK:   -2.96 KCAL/MOL
REMARK 924 INTRA-LIGAND FREE ENERGY PREDICTED BY IDOCK:    0.41 KCAL/MOL
REMARK 927      BINDING AFFINITY PREDICTED BY RF-SCORE:    0.00 PKD
ROOT
HETATM    1  C   UNL     1      -8.446  16.122  68.309  1.00  0.00    -0.180 C  
HETATM    2  C   UNL     1      -8.041  15.958  66.841  1.00  0.00    -0.250 C  
HETATM    3  N   UNL     1      -7.787  14.544  66.417  1.00  0.00     0.310 N  
HETATM    4  C   UNL     1      -6.702  16.731  66.669  1.00  0.00    -0.241 C  
HETATM    5  C   UNL     1      -9.065  16.663  65.939  1.00  0.00    -0.155 C  
HETATM    6  C   UNL     1      -8.465  13.363  66.272  1.00  0.00     0.704 C  
HETATM    7  H   UNL     1      -6.808  14.424  66.157  1.00  0.00     0.000 HD 
HETATM    8  O   UNL     1      -7.879  12.511  65.587  1.00  0.00     1.632 OA 
ENDROOT
BRANCH   6   9
HETATM    9  C   UNL     1      -9.810  13.017  66.933  1.00  0.00    -0.240 C  
HETATM   10  C   UNL     1      -9.923  13.145  68.504  1.00  0.00    -0.180 C  
HETATM   11  N   UNL     1     -11.356  13.214  68.937  1.00  0.00    -0.272 NA 
HETATM   12  N   UNL     1     -10.405  11.741  66.444  1.00  0.00    -0.216 NA 
HETATM   13  C   UNL     1     -12.175  12.178  68.247  1.00  0.00     0.238 C  
HETATM   14  C   UNL     1     -11.855  11.920  66.747  1.00  0.00    -0.087 C  
BRANCH  11  15
HETATM   15  C   UNL     1     -11.552  13.041  70.396  1.00  0.00     0.131 C  
BRANCH  15  16
HETATM   16  C   UNL     1     -12.595  13.896  71.072  1.00  0.00    -0.444 A  
HETATM   17  C   UNL     1     -12.549  15.283  70.960  1.00  0.00    -0.406 A  
HETATM   18  N   UNL     1     -13.346  16.139  71.646  1.00  0.00     0.007 NA 
HETATM   19  C   UNL     1     -14.373  14.220  72.680  1.00  0.00     0.039 A  
HETATM   20  C   UNL     1     -14.238  15.586  72.493  1.00  0.00    -0.415 A  
HETATM   21  C   UNL     1     -13.536  13.366  71.958  1.00  0.00    -0.584 A  
ENDBRANCH  15  16
ENDBRANCH  11  15
BRANCH  12  22
HETATM   22  C   UNL     1      -9.929  10.445  67.054  1.00  0.00    -0.206 C  
BRANCH  22  23
HETATM   23  C   UNL     1     -10.157  10.162  68.569  1.00  0.00    -0.169 C  
HETATM   24  O   UNL     1     -10.902   8.940  68.699  1.00  0.00    -0.407 OA 
HETATM   25  H   UNL     1     -11.042   8.768  69.623  1.00  0.00     0.000 HD 
BRANCH  23  26
HETATM   26  C   UNL     1      -8.903   9.864  69.441  1.00  0.00    -0.195 C  
HETATM   27  C   UNL     1      -7.547   9.477  68.797  1.00  0.00    -0.076 C  
HETATM   28  C   UNL     1      -6.400   9.663  69.850  1.00  0.00    -0.054 C  
HETATM   29  C   UNL     1      -7.572   8.010  68.320  1.00  0.00    -0.109 C  
HETATM   30  O   UNL     1      -8.313   7.167  68.818  1.00  0.00    -0.124 OA 
HETATM   31  N   UNL     1      -6.710   7.688  67.287  1.00  0.00    -0.066 N  
HETATM   32  H   UNL     1      -5.972   8.343  67.029  1.00  0.00     0.000 HD 
BRANCH  28  33
HETATM   33  C   UNL     1      -6.139  11.084  70.351  1.00  0.00    -0.131 A  
HETATM   34  C   UNL     1      -5.392  11.320  71.513  1.00  0.00     0.099 A  
HETATM   35  C   UNL     1      -6.680  12.192  69.681  1.00  0.00     0.035 A  
HETATM   36  C   UNL     1      -6.466  13.503  70.148  1.00  0.00     0.072 A  
HETATM   37  C   UNL     1      -5.178  12.630  71.980  1.00  0.00     0.104 A  
HETATM   38  C   UNL     1      -5.712  13.720  71.295  1.00  0.00    -0.210 A  
ENDBRANCH  28  33
BRANCH  31  39
HETATM   39  C   UNL     1      -6.840   6.414  66.549  1.00  0.00    -0.062 C  
HETATM   40  C   UNL     1      -9.060   5.339  66.010  1.00  0.00    -0.154 C  
HETATM   41  C   UNL     1      -8.402   4.701  67.184  1.00  0.00    -0.105 A  
HETATM   42  H   UNL     1      -9.397   7.592  64.716  1.00  0.00     0.000 HD 
HETATM   43  C   UNL     1      -8.020   6.369  65.521  1.00  0.00    -0.116 C  
HETATM   44  O   UNL     1      -8.681   7.620  65.340  1.00  0.00    -0.108 OA 
HETATM   45  C   UNL     1      -8.899   3.630  67.930  1.00  0.00    -0.143 A  
HETATM   46  C   UNL     1      -8.116   3.121  68.965  1.00  0.00    -0.072 A  
HETATM   47  C   UNL     1      -6.857   3.668  69.232  1.00  0.00    -0.045 A  
HETATM   48  C   UNL     1      -6.374   4.753  68.495  1.00  0.00    -0.036 A  
HETATM   49  C   UNL     1      -7.170   5.274  67.471  1.00  0.00    -0.071 A  
ENDBRANCH  31  39
ENDBRANCH  23  26
ENDBRANCH  22  23
ENDBRANCH  12  22
ENDBRANCH   6   9
TORSDOF 8
ENDMDL
MODEL      162
REMARK 921   NORMALIZED FREE ENERGY PREDICTED BY IDOCK:   -0.31 KCAL/MOL
REMARK 922        TOTAL FREE ENERGY PREDICTED BY IDOCK:   -2.43 KCAL/MOL
REMARK 923 INTER-LIGAND FREE ENERGY PREDICTED BY IDOCK:   -2.70 KCAL/MOL
REMARK 924 INTRA-LIGAND FREE ENERGY PREDICTED BY IDOCK:    0.28 KCAL/MOL
REMARK 927      BINDING AFFINITY PREDICTED BY RF-SCORE:    0.00 PKD
ROOT
HETATM    1  C   UNL     1      -8.446  16.117  68.313  1.00  0.00    -0.180 C  
HETATM    2  C   UNL     1      -8.027  15.993  66.844  1.00  0.00    -0.248 C  
HETATM    3  N   UNL     1      -7.699  14.600  66.404  1.00  0.00     0.422 N  
HETATM    4  C   UNL     1      -6.729  16.836  66.688  1.00  0.00    -0.241 C  
HETATM    5  C   UNL     1      -9.083  16.655  65.946  1.00  0.00    -0.155 C  
HETATM    6  C   UNL     1      -8.314  13.387  66.240  1.00  0.00     0.881 C  
HETATM    7  H   UNL     1      -6.714  14.534  66.146  1.00  0.00     0.000 HD 
HETATM    8  O   UNL     1      -7.682  12.575  65.548  1.00  0.00     2.087 OA 
ENDROOT
BRANCH   6   9
HETATM    9  C   UNL     1      -9.642  12.964  66.891  1.00  0.00    -0.240 C  
HETATM   10  C   UNL     1      -9.767  13.061  68.464  1.00  0.00    -0.130 C  
HETATM   11  N   UNL     1     -11.203  13.052  68.891  1.00  0.00    -0.266 NA 
HETATM   12  N   UNL     1     -10.171  11.667  66.380  1.00  0.00    -0.215 NA 
HETATM   13  C   UNL     1     -11.966  11.986  68.182  1.00  0.00    -0.163 C  
HETATM   14  C   UNL     1     -11.628  11.767  66.681  1.00  0.00    -0.197 C  
BRANCH  11  15
HETATM   15  C   UNL     1     -11.394  12.846  70.347  1.00  0.00     0.602 C  
BRANCH  15  16
HETATM   16  C   UNL     1     -12.457  13.663  71.038  1.00  0.00    -0.456 A  
HETATM   17  C   UNL     1     -12.747  14.954  70.605  1.00  0.00    -0.367 A  
HETATM   18  N   UNL     1     -13.573  15.817  71.247  1.00  0.00    -0.502 NA 
HETATM   19  C   UNL     1     -13.928  14.107  72.907  1.00  0.00     0.045 A  
HETATM   20  C   UNL     1     -14.141  15.372  72.386  1.00  0.00    -0.549 A  
HETATM   21  C   UNL     1     -13.070  13.243  72.221  1.00  0.00    -0.474 A  
ENDBRANCH  15  16
ENDBRANCH  11  15
BRANCH  12  22
HETATM   22  C   UNL     1      -9.632  10.387  66.973  1.00  0.00    -0.166 C  
BRANCH  22  23
HETATM   23  C   UNL     1     -10.521   9.109  67.016  1.00  0.00    -0.240 C  
HETATM   24  O   UNL     1      -9.883   8.082  66.238  1.00  0.00    -0.406 OA 
HETATM   25  H   UNL     1     -10.426   7.302  66.264  1.00  0.00     0.000 HD 
BRANCH  23  26
HETATM   26  C   UNL     1     -10.696   8.402  68.391  1.00  0.00    -0.076 C  
HETATM   27  C   UNL     1      -9.781   8.743  69.595  1.00  0.00    -0.173 C  
HETATM   28  C   UNL     1     -10.447   8.225  70.917  1.00  0.00    -0.230 C  
HETATM   29  C   UNL     1      -8.395   8.085  69.427  1.00  0.00    -0.131 C  
HETATM   30  O   UNL     1      -8.222   7.075  68.752  1.00  0.00    -0.119 OA 
HETATM   31  N   UNL     1      -7.342   8.703  70.079  1.00  0.00    -0.050 N  
HETATM   32  H   UNL     1      -7.539   9.412  70.786  1.00  0.00     0.000 HD 
BRANCH  28  33
HETATM   33  C   UNL     1     -11.779   8.857  71.320  1.00  0.00    -0.370 A  
HETATM   34  C   UNL     1     -12.405   9.814  70.510  1.00  0.00    -0.173 A  
HETATM   35  C   UNL     1     -12.391   8.525  72.539  1.00  0.00    -0.372 A  
HETATM   36  C   UNL     1     -13.606   9.121  72.931  1.00  0.00    -0.081 A  
HETATM   37  C   UNL     1     -13.619  10.409  70.901  1.00  0.00     0.140 A  
HETATM   38  C   UNL     1     -14.219  10.059  72.110  1.00  0.00     0.321 A  
ENDBRANCH  28  33
BRANCH  31  39
HETATM   39  C   UNL     1      -5.940   8.356  69.769  1.00  0.00    -0.028 C  
HETATM   40  C   UNL     1      -5.129   7.779  67.449  1.00  0.00    -0.027 C  
HETATM   41  C   UNL     1      -5.345   6.563  68.281  1.00  0.00    -0.008 A  
HETATM   42  H   UNL     1      -5.965  10.216  66.973  1.00  0.00     0.000 HD 
HETATM   43  C   UNL     1      -5.399   8.945  68.423  1.00  0.00    -0.038 C  
HETATM   44  O   UNL     1      -6.293   9.858  67.789  1.00  0.00    -0.055 OA 
HETATM   45  C   UNL     1      -5.133   5.242  67.886  1.00  0.00    -0.004 A  
HETATM   46  C   UNL     1      -5.333   4.228  68.822  1.00  0.00    -0.012 A  
HETATM   47  C   UNL     1      -5.721   4.539  70.128  1.00  0.00    -0.013 A  
HETATM   48  C   UNL     1      -5.950   5.863  70.513  1.00  0.00    -0.029 A  
HETATM   49  C   UNL     1      -5.769   6.876  69.567  1.00  0.00    -0.015 A  
ENDBRANCH  31  39
ENDBRANCH  23  26
ENDBRANCH  22  23
ENDBRANCH  12  22
ENDBRANCH   6   9
TORSDOF 8
ENDMDL
MODEL      163
REMARK 921   NORMALIZED FREE ENERGY PREDICTED BY IDOCK:   -0.25 KCAL/MOL
REMARK 922        TOTAL FREE ENERGY PREDICTED BY IDOCK:   -2.33 KCAL/MOL
REMARK 923 INTER-LIGAND FREE ENERGY PREDICTED BY IDOCK:   -6.06 KCAL/MOL
REMARK 924 INTRA-LIGAND FREE ENERGY PREDICTED BY IDOCK:    3.73 KCAL/MOL
REMARK 927      BINDING AFFINITY PREDICTED BY RF-SCORE:    0.00 PKD
ROOT
HETATM    1  C   UNL     1     -10.828   6.411  71.443  1.00  0.00    -0.301 C  
HETATM    2  C   UNL     1      -9.814   6.014  72.520  1.00  0.00    -0.164 C  
HETATM    3  N   UNL     1      -8.409   5.852  72.026  1.00  0.00    -0.115 N  
HETATM    4  C   UNL     1     -10.269   4.627  73.058  1.00  0.00    -0.219 C  
HETATM    5  C   UNL     1      -9.907   6.988  73.705  1.00  0.00    -0.318 C  
HETATM    6  C   UNL     1      -7.404   6.605  71.480  1.00  0.00    -0.087 C  
HETATM    7  H   UNL     1      -8.109   4.883  72.128  1.00  0.00     0.000 HD 
HETATM    8  O   UNL     1      -6.283   6.075  71.513  1.00  0.00    -0.041 OA 
ENDROOT
BRANCH   6   9
HETATM    9  C   UNL     1      -7.582   7.972  70.796  1.00  0.00    -0.077 C  
HETATM   10  C   UNL     1      -9.048   8.446  70.447  1.00  0.00    -0.149 C  
HETATM   11  N   UNL     1      -9.094   9.926  70.214  1.00  0.00    -0.150 NA 
HETATM   12  N   UNL     1      -6.649   8.194  69.655  1.00  0.00    -0.037 NA 
HETATM   13  C   UNL     1      -7.976  10.364  69.331  1.00  0.00    -0.157 C  
HETATM   14  C   UNL     1      -6.598   9.681  69.560  1.00  0.00    -0.049 C  
BRANCH  11  15
HETATM   15  C   UNL     1     -10.359  10.398  69.602  1.00  0.00    -0.226 C  
BRANCH  15  16
HETATM   16  C   UNL     1     -11.488  10.779  70.527  1.00  0.00    -0.367 A  
HETATM   17  C   UNL     1     -11.851  12.114  70.685  1.00  0.00     0.032 A  
HETATM   18  N   UNL     1     -12.745  12.568  71.597  1.00  0.00    -0.248 NA 
HETATM   19  C   UNL     1     -13.027  10.289  72.328  1.00  0.00    -0.276 A  
HETATM   20  C   UNL     1     -13.310  11.643  72.399  1.00  0.00     0.244 A  
HETATM   21  C   UNL     1     -12.100   9.855  71.378  1.00  0.00    -0.501 A  
ENDBRANCH  15  16
ENDBRANCH  11  15
BRANCH  12  22
HETATM   22  C   UNL     1      -7.017   7.625  68.305  1.00  0.00    -0.072 C  
BRANCH  22  23
HETATM   23  C   UNL     1      -7.795   6.280  68.208  1.00  0.00    -0.105 C  
HETATM   24  O   UNL     1      -8.876   6.307  69.156  1.00  0.00    -0.128 OA 
HETATM   25  H   UNL     1      -9.350   5.486  69.097  1.00  0.00     0.000 HD 
BRANCH  23  26
HETATM   26  C   UNL     1      -8.546   5.978  66.879  1.00  0.00    -0.108 C  
HETATM   27  C   UNL     1      -8.030   6.520  65.521  1.00  0.00    -0.117 C  
HETATM   28  C   UNL     1      -8.707   5.721  64.353  1.00  0.00     0.139 C  
HETATM   29  C   UNL     1      -8.361   8.020  65.374  1.00  0.00    -0.153 C  
HETATM   30  O   UNL     1      -9.296   8.550  65.967  1.00  0.00    -0.212 OA 
HETATM   31  N   UNL     1      -7.536   8.748  64.536  1.00  0.00    -0.102 N  
HETATM   32  H   UNL     1      -6.901   8.255  63.908  1.00  0.00     0.000 HD 
BRANCH  28  33
HETATM   33  C   UNL     1      -8.393   4.228  64.258  1.00  0.00    -0.105 A  
HETATM   34  C   UNL     1      -9.043   3.294  65.076  1.00  0.00    -0.143 A  
HETATM   35  C   UNL     1      -7.409   3.756  63.374  1.00  0.00    -0.051 A  
HETATM   36  C   UNL     1      -7.096   2.385  63.297  1.00  0.00    -0.037 A  
HETATM   37  C   UNL     1      -8.730   1.924  64.999  1.00  0.00    -0.112 A  
HETATM   38  C   UNL     1      -7.759   1.471  64.107  1.00  0.00    -0.060 A  
ENDBRANCH  28  33
BRANCH  31  39
HETATM   39  C   UNL     1      -7.557  10.226  64.534  1.00  0.00    -0.095 C  
HETATM   40  C   UNL     1      -7.448  11.622  66.635  1.00  0.00    -0.037 C  
HETATM   41  C   UNL     1      -8.838  11.507  66.114  1.00  0.00    -0.167 A  
HETATM   42  H   UNL     1      -5.147  10.389  66.868  1.00  0.00     0.000 HD 
HETATM   43  C   UNL     1      -6.596  10.898  65.570  1.00  0.00     0.088 C  
HETATM   44  O   UNL     1      -5.731   9.981  66.239  1.00  0.00    -0.054 OA 
HETATM   45  C   UNL     1      -9.980  12.086  66.671  1.00  0.00    -0.219 A  
HETATM   46  C   UNL     1     -11.198  11.920  66.012  1.00  0.00    -0.377 A  
HETATM   47  C   UNL     1     -11.260  11.202  64.815  1.00  0.00    -0.040 A  
HETATM   48  C   UNL     1     -10.117  10.608  64.273  1.00  0.00    -0.411 A  
HETATM   49  C   UNL     1      -8.901  10.759  64.946  1.00  0.00    -0.176 A  
ENDBRANCH  31  39
ENDBRANCH  23  26
ENDBRANCH  22  23
ENDBRANCH  12  22
ENDBRANCH   6   9
TORSDOF 8
ENDMDL
MODEL      164
REMARK 921   NORMALIZED FREE ENERGY PREDICTED BY IDOCK:   -0.23 KCAL/MOL
REMARK 922        TOTAL FREE ENERGY PREDICTED BY IDOCK:   -2.30 KCAL/MOL
REMARK 923 INTER-LIGAND FREE ENERGY PREDICTED BY IDOCK:   -4.42 KCAL/MOL
REMARK 924 INTRA-LIGAND FREE ENERGY PREDICTED BY IDOCK:    2.12 KCAL/MOL
REMARK 927      BINDING AFFINITY PREDICTED BY RF-SCORE:    0.00 PKD
ROOT
HETATM    1  C   UNL     1     -11.485  10.611  67.674  1.00  0.00    -0.169 C  
HETATM    2  C   UNL     1     -11.276  12.066  68.108  1.00  0.00    -0.260 C  
HETATM    3  N   UNL     1      -9.973  12.331  68.796  1.00  0.00    -0.408 N  
HETATM    4  C   UNL     1     -12.404  12.381  69.132  1.00  0.00     0.126 C  
HETATM    5  C   UNL     1     -11.505  13.002  66.911  1.00  0.00    -0.387 C  
HETATM    6  C   UNL     1      -8.630  12.310  68.528  1.00  0.00    -0.068 C  
HETATM    7  H   UNL     1     -10.136  12.616  69.762  1.00  0.00     0.000 HD 
HETATM    8  O   UNL     1      -7.928  12.914  69.353  1.00  0.00     0.499 OA 
ENDROOT
BRANCH   6   9
HETATM    9  C   UNL     1      -7.963  11.559  67.363  1.00  0.00    -0.143 C  
HETATM   10  C   UNL     1      -8.878  10.679  66.422  1.00  0.00    -0.154 C  
HETATM   11  N   UNL     1      -8.192  10.390  65.122  1.00  0.00    -0.161 NA 
HETATM   12  N   UNL     1      -6.722  10.831  67.755  1.00  0.00    -0.067 NA 
HETATM   13  C   UNL     1      -6.782   9.963  65.343  1.00  0.00    -0.104 C  
HETATM   14  C   UNL     1      -5.995  10.706  66.459  1.00  0.00    -0.086 C  
BRANCH  11  15
HETATM   15  C   UNL     1      -8.856   9.339  64.313  1.00  0.00    -0.148 C  
BRANCH  15  16
HETATM   16  C   UNL     1      -7.993   8.241  63.743  1.00  0.00    -0.149 A  
HETATM   17  C   UNL     1      -7.978   6.979  64.331  1.00  0.00    -0.101 A  
HETATM   18  N   UNL     1      -7.132   5.977  63.987  1.00  0.00    -0.050 NA 
HETATM   19  C   UNL     1      -6.177   7.462  62.348  1.00  0.00    -0.062 A  
HETATM   20  C   UNL     1      -6.248   6.245  63.004  1.00  0.00    -0.026 A  
HETATM   21  C   UNL     1      -7.063   8.474  62.727  1.00  0.00    -0.091 A  
ENDBRANCH  15  16
ENDBRANCH  11  15
BRANCH  12  22
HETATM   22  C   UNL     1      -6.857   9.463  68.379  1.00  0.00    -0.063 C  
BRANCH  22  23
HETATM   23  C   UNL     1      -6.451   8.192  67.575  1.00  0.00    -0.057 C  
HETATM   24  O   UNL     1      -5.291   8.502  66.785  1.00  0.00    -0.031 OA 
HETATM   25  H   UNL     1      -5.043   7.727  66.294  1.00  0.00     0.000 HD 
BRANCH  23  26
HETATM   26  C   UNL     1      -5.962   6.956  68.385  1.00  0.00    -0.025 C  
HETATM   27  C   UNL     1      -6.932   6.143  69.279  1.00  0.00    -0.064 C  
HETATM   28  C   UNL     1      -6.291   4.750  69.608  1.00  0.00    -0.027 C  
HETATM   29  C   UNL     1      -7.219   6.898  70.594  1.00  0.00    -0.069 C  
HETATM   30  O   UNL     1      -6.437   7.716  71.069  1.00  0.00    -0.038 OA 
HETATM   31  N   UNL     1      -8.420   6.607  71.216  1.00  0.00    -0.125 N  
HETATM   32  H   UNL     1      -8.953   5.790  70.917  1.00  0.00     0.000 HD 
BRANCH  28  33
HETATM   33  C   UNL     1      -6.046   3.802  68.433  1.00  0.00    -0.031 A  
HETATM   34  C   UNL     1      -6.547   4.082  67.155  1.00  0.00    -0.046 A  
HETATM   35  C   UNL     1      -5.346   2.599  68.616  1.00  0.00    -0.013 A  
HETATM   36  C   UNL     1      -5.136   1.707  67.546  1.00  0.00    -0.004 A  
HETATM   37  C   UNL     1      -6.338   3.192  66.086  1.00  0.00    -0.028 A  
HETATM   38  C   UNL     1      -5.630   2.007  66.282  1.00  0.00    -0.013 A  
ENDBRANCH  28  33
BRANCH  31  39
HETATM   39  C   UNL     1      -8.945   7.457  72.305  1.00  0.00    -0.128 C  
HETATM   40  C   UNL     1     -10.627   6.655  74.009  1.00  0.00    -0.196 C  
HETATM   41  C   UNL     1     -11.264   7.470  72.938  1.00  0.00    -0.396 A  
HETATM   42  H   UNL     1      -8.698   4.963  74.541  1.00  0.00     0.000 HD 
HETATM   43  C   UNL     1      -9.120   6.729  73.680  1.00  0.00    -0.146 C  
HETATM   44  O   UNL     1      -8.592   5.404  73.707  1.00  0.00    -0.114 OA 
HETATM   45  C   UNL     1     -12.619   7.793  72.840  1.00  0.00     0.444 A  
HETATM   46  C   UNL     1     -13.031   8.620  71.796  1.00  0.00    -0.394 A  
HETATM   47  C   UNL     1     -12.099   9.121  70.882  1.00  0.00    -0.270 A  
HETATM   48  C   UNL     1     -10.747   8.778  70.974  1.00  0.00    -0.290 A  
HETATM   49  C   UNL     1     -10.340   7.933  72.010  1.00  0.00    -0.283 A  
ENDBRANCH  31  39
ENDBRANCH  23  26
ENDBRANCH  22  23
ENDBRANCH  12  22
ENDBRANCH   6   9
TORSDOF 8
ENDMDL
MODEL      165
REMARK 921   NORMALIZED FREE ENERGY PREDICTED BY IDOCK:    0.04 KCAL/MOL
REMARK 922        TOTAL FREE ENERGY PREDICTED BY IDOCK:   -1.91 KCAL/MOL
REMARK 923 INTER-LIGAND FREE ENERGY PREDICTED BY IDOCK:   -3.58 KCAL/MOL
REMARK 924 INTRA-LIGAND FREE ENERGY PREDICTED BY IDOCK:    1.67 KCAL/MOL
REMARK 927      BINDING AFFINITY PREDICTED BY RF-SCORE:    0.00 PKD
ROOT
HETATM    1  C   UNL     1     -10.221  14.228  69.532  1.00  0.00     0.152 C  
HETATM    2  C   UNL     1     -11.171  13.570  68.526  1.00  0.00    -0.278 C  
HETATM    3  N   UNL     1     -10.535  12.536  67.650  1.00  0.00    -0.215 N  
HETATM    4  C   UNL     1     -11.674  14.709  67.593  1.00  0.00    -0.389 C  
HETATM    5  C   UNL     1     -12.410  13.033  69.259  1.00  0.00     0.017 C  
HETATM    6  C   UNL     1      -9.936  11.309  67.755  1.00  0.00    -0.176 C  
HETATM    7  H   UNL     1     -10.554  12.838  66.677  1.00  0.00     0.000 HD 
HETATM    8  O   UNL     1      -9.831  10.691  66.684  1.00  0.00    -0.188 OA 
ENDROOT
BRANCH   6   9
HETATM    9  C   UNL     1      -9.348  10.708  69.043  1.00  0.00    -0.180 C  
HETATM   10  C   UNL     1      -7.783  10.780  69.253  1.00  0.00    -0.129 C  
HETATM   11  N   UNL     1      -7.423  10.576  70.693  1.00  0.00     0.184 NA 
HETATM   12  N   UNL     1      -9.881   9.354  69.368  1.00  0.00    -0.170 NA 
HETATM   13  C   UNL     1      -8.166   9.421  71.273  1.00  0.00     0.263 C  
HETATM   14  C   UNL     1      -9.650   9.257  70.838  1.00  0.00    -0.269 C  
BRANCH  11  15
HETATM   15  C   UNL     1      -5.978  10.339  70.923  1.00  0.00    -0.054 C  
BRANCH  15  16
HETATM   16  C   UNL     1      -5.574   9.042  71.579  1.00  0.00    -0.054 A  
HETATM   17  C   UNL     1      -5.499   7.868  70.833  1.00  0.00    -0.030 A  
HETATM   18  N   UNL     1      -5.292   6.634  71.355  1.00  0.00    -0.026 NA 
HETATM   19  C   UNL     1      -5.206   7.663  73.532  1.00  0.00    -0.041 A  
HETATM   20  C   UNL     1      -5.154   6.562  72.694  1.00  0.00    -0.032 A  
HETATM   21  C   UNL     1      -5.422   8.920  72.962  1.00  0.00    -0.084 A  
ENDBRANCH  15  16
ENDBRANCH  11  15
BRANCH  12  22
HETATM   22  C   UNL     1      -9.262   8.155  68.691  1.00  0.00    -0.143 C  
BRANCH  22  23
HETATM   23  C   UNL     1     -10.155   7.162  67.889  1.00  0.00    -0.173 C  
HETATM   24  O   UNL     1     -10.888   7.903  66.899  1.00  0.00    -0.400 OA 
HETATM   25  H   UNL     1     -11.433   7.297  66.410  1.00  0.00     0.000 HD 
BRANCH  23  26
HETATM   26  C   UNL     1      -9.435   6.094  67.015  1.00  0.00    -0.141 C  
HETATM   27  C   UNL     1      -7.914   6.180  66.729  1.00  0.00    -0.105 C  
HETATM   28  C   UNL     1      -7.403   4.788  66.217  1.00  0.00    -0.078 C  
HETATM   29  C   UNL     1      -7.622   7.256  65.662  1.00  0.00    -0.089 C  
HETATM   30  O   UNL     1      -8.456   7.603  64.830  1.00  0.00    -0.080 OA 
HETATM   31  N   UNL     1      -6.361   7.822  65.694  1.00  0.00    -0.042 N  
HETATM   32  H   UNL     1      -5.630   7.384  66.254  1.00  0.00     0.000 HD 
BRANCH  28  33
HETATM   33  C   UNL     1      -7.493   3.612  67.190  1.00  0.00    -0.071 A  
HETATM   34  C   UNL     1      -8.678   2.879  67.336  1.00  0.00    -0.141 A  
HETATM   35  C   UNL     1      -6.400   3.264  67.998  1.00  0.00    -0.036 A  
HETATM   36  C   UNL     1      -6.481   2.198  68.915  1.00  0.00    -0.029 A  
HETATM   37  C   UNL     1      -8.760   1.814  68.252  1.00  0.00    -0.112 A  
HETATM   38  C   UNL     1      -7.660   1.473  69.039  1.00  0.00    -0.042 A  
ENDBRANCH  28  33
BRANCH  31  39
HETATM   39  C   UNL     1      -6.053   9.051  64.933  1.00  0.00    -0.065 C  
HETATM   40  C   UNL     1      -6.899  11.340  65.583  1.00  0.00     0.413 C  
HETATM   41  C   UNL     1      -7.700  10.743  64.478  1.00  0.00     0.259 A  
HETATM   42  H   UNL     1      -5.517  10.809  67.745  1.00  0.00     0.000 HD 
HETATM   43  C   UNL     1      -5.768  10.315  65.813  1.00  0.00    -0.083 C  
HETATM   44  O   UNL     1      -5.690  10.042  67.211  1.00  0.00    -0.045 OA 
HETATM   45  C   UNL     1      -8.789  11.332  63.835  1.00  0.00     0.181 A  
HETATM   46  C   UNL     1      -9.385  10.648  62.775  1.00  0.00    -0.348 A  
HETATM   47  C   UNL     1      -8.886   9.409  62.366  1.00  0.00    -0.257 A  
HETATM   48  C   UNL     1      -7.807   8.815  63.027  1.00  0.00    -0.138 A  
HETATM   49  C   UNL     1      -7.224   9.493  64.101  1.00  0.00    -0.115 A  
ENDBRANCH  31  39
ENDBRANCH  23  26
ENDBRANCH  22  23
ENDBRANCH  12  22
ENDBRANCH   6   9
TORSDOF 8
ENDMDL
MODEL      166
REMARK 921   NORMALIZED FREE ENERGY PREDICTED BY IDOCK:    0.29 KCAL/MOL
REMARK 922        TOTAL FREE ENERGY PREDICTED BY IDOCK:   -1.54 KCAL/MOL
REMARK 923 INTER-LIGAND FREE ENERGY PREDICTED BY IDOCK:   -4.07 KCAL/MOL
REMARK 924 INTRA-LIGAND FREE ENERGY PREDICTED BY IDOCK:    2.53 KCAL/MOL
REMARK 927      BINDING AFFINITY PREDICTED BY RF-SCORE:    0.00 PKD
ROOT
HETATM    1  C   UNL     1      -7.341   7.154  67.683  1.00  0.00    -0.093 C  
HETATM    2  C   UNL     1      -8.680   7.433  66.993  1.00  0.00    -0.123 C  
HETATM    3  N   UNL     1      -9.557   8.417  67.705  1.00  0.00    -0.152 N  
HETATM    4  C   UNL     1      -9.446   6.079  66.965  1.00  0.00    -0.137 C  
HETATM    5  C   UNL     1      -8.437   7.823  65.527  1.00  0.00    -0.146 C  
HETATM    6  C   UNL     1      -9.563   9.739  68.060  1.00  0.00    -0.142 C  
HETATM    7  H   UNL     1     -10.412   7.961  68.024  1.00  0.00     0.000 HD 
HETATM    8  O   UNL     1     -10.674  10.182  68.391  1.00  0.00    -0.204 OA 
ENDROOT
BRANCH   6   9
HETATM    9  C   UNL     1      -8.325  10.649  68.140  1.00  0.00    -0.121 C  
HETATM   10  C   UNL     1      -7.348  10.473  69.370  1.00  0.00    -0.133 C  
HETATM   11  N   UNL     1      -6.010  11.083  69.085  1.00  0.00    -0.041 NA 
HETATM   12  N   UNL     1      -8.623  12.087  67.881  1.00  0.00    -0.157 NA 
HETATM   13  C   UNL     1      -6.156  12.438  68.482  1.00  0.00    -0.056 C  
HETATM   14  C   UNL     1      -7.301  12.621  67.446  1.00  0.00    -0.140 C  
BRANCH  11  15
HETATM   15  C   UNL     1      -5.144  11.217  70.281  1.00  0.00    -0.079 C  
BRANCH  15  16
HETATM   16  C   UNL     1      -5.175  12.528  71.028  1.00  0.00    -0.159 A  
HETATM   17  C   UNL     1      -5.264  12.546  72.417  1.00  0.00     0.300 A  
HETATM   18  N   UNL     1      -5.446  13.662  73.164  1.00  0.00    -0.440 NA 
HETATM   19  C   UNL     1      -5.469  14.927  71.113  1.00  0.00    -0.095 A  
HETATM   20  C   UNL     1      -5.548  14.827  72.493  1.00  0.00     0.202 A  
HETATM   21  C   UNL     1      -5.282  13.757  70.373  1.00  0.00    -0.106 A  
ENDBRANCH  15  16
ENDBRANCH  11  15
BRANCH  12  22
HETATM   22  C   UNL     1      -9.146  12.930  69.020  1.00  0.00     0.514 C  
BRANCH  22  23
HETATM   23  C   UNL     1      -9.451  14.441  68.799  1.00  0.00    -0.161 C  
HETATM   24  O   UNL     1      -9.027  15.168  69.964  1.00  0.00    -0.409 OA 
HETATM   25  H   UNL     1      -9.213  16.090  69.830  1.00  0.00     0.000 HD 
BRANCH  23  26
HETATM   26  C   UNL     1      -8.672  15.173  67.668  1.00  0.00    -0.177 C  
HETATM   27  C   UNL     1      -9.406  15.774  66.442  1.00  0.00    -0.333 C  
HETATM   28  C   UNL     1      -8.460  16.796  65.720  1.00  0.00     0.208 C  
HETATM   29  C   UNL     1      -9.809  14.661  65.452  1.00  0.00    -0.245 C  
HETATM   30  O   UNL     1      -9.213  13.590  65.385  1.00  0.00     0.327 OA 
HETATM   31  N   UNL     1     -10.894  14.933  64.637  1.00  0.00    -0.614 N  
HETATM   32  H   UNL     1     -11.241  15.889  64.569  1.00  0.00     0.000 HD 
BRANCH  28  33
HETATM   33  C   UNL     1      -8.050  18.041  66.507  1.00  0.00    -0.298 A  
HETATM   34  C   UNL     1      -6.754  18.183  67.019  1.00  0.00    -0.206 A  
HETATM   35  C   UNL     1      -8.979  19.059  66.776  1.00  0.00    -0.328 A  
HETATM   36  C   UNL     1      -8.617  20.198  67.521  1.00  0.00    -0.404 A  
HETATM   37  C   UNL     1      -6.392  19.321  67.764  1.00  0.00    -0.226 A  
HETATM   38  C   UNL     1      -7.324  20.329  68.011  1.00  0.00    -0.285 A  
ENDBRANCH  28  33
BRANCH  31  39
HETATM   39  C   UNL     1     -11.558  13.862  63.864  1.00  0.00    -0.127 C  
HETATM   40  C   UNL     1     -12.533  11.785  64.917  1.00  0.00     0.420 C  
HETATM   41  C   UNL     1     -11.198  11.527  64.308  1.00  0.00    -0.358 A  
HETATM   42  H   UNL     1     -14.013  13.570  66.137  1.00  0.00     0.000 HD 
HETATM   43  C   UNL     1     -12.829  13.253  64.544  1.00  0.00    -0.053 C  
HETATM   44  O   UNL     1     -13.240  13.940  65.725  1.00  0.00    -0.521 OA 
HETATM   45  C   UNL     1     -10.523  10.305  64.283  1.00  0.00     0.370 A  
HETATM   46  C   UNL     1      -9.302  10.235  63.614  1.00  0.00    -0.338 A  
HETATM   47  C   UNL     1      -8.782  11.363  62.973  1.00  0.00     0.021 A  
HETATM   48  C   UNL     1      -9.453  12.588  63.018  1.00  0.00     1.630 A  
HETATM   49  C   UNL     1     -10.667  12.661  63.707  1.00  0.00    -0.454 A  
ENDBRANCH  31  39
ENDBRANCH  23  26
ENDBRANCH  22  23
ENDBRANCH  12  22
ENDBRANCH   6   9
TORSDOF 8
ENDMDL
MODEL      167
REMARK 921   NORMALIZED FREE ENERGY PREDICTED BY IDOCK:    0.38 KCAL/MOL
REMARK 922        TOTAL FREE ENERGY PREDICTED BY IDOCK:   -1.40 KCAL/MOL
REMARK 923 INTER-LIGAND FREE ENERGY PREDICTED BY IDOCK:   -1.21 KCAL/MOL
REMARK 924 INTRA-LIGAND FREE ENERGY PREDICTED BY IDOCK:   -0.19 KCAL/MOL
REMARK 927      BINDING AFFINITY PREDICTED BY RF-SCORE:    0.00 PKD
ROOT
HETATM    1  C   UNL     1      -9.196  16.247  66.216  1.00  0.00    -0.363 C  
HETATM    2  C   UNL     1     -10.582  16.241  65.563  1.00  0.00    -0.353 C  
HETATM    3  N   UNL     1     -11.384  15.000  65.809  1.00  0.00    -0.317 N  
HETATM    4  C   UNL     1     -10.341  16.330  64.028  1.00  0.00     3.164 C  
HETATM    5  C   UNL     1     -11.345  17.515  65.955  1.00  0.00     1.085 C  
HETATM    6  C   UNL     1     -11.966  14.326  66.849  1.00  0.00    -0.438 C  
HETATM    7  H   UNL     1     -11.545  14.504  64.932  1.00  0.00     0.000 HD 
HETATM    8  O   UNL     1     -12.801  13.473  66.510  1.00  0.00    -0.093 OA 
ENDROOT
BRANCH   6   9
HETATM    9  C   UNL     1     -11.615  14.501  68.336  1.00  0.00    -0.326 C  
HETATM   10  C   UNL     1     -10.124  14.868  68.712  1.00  0.00    -0.241 C  
HETATM   11  N   UNL     1     -10.042  15.430  70.099  1.00  0.00    -0.233 NA 
HETATM   12  N   UNL     1     -12.147  13.414  69.207  1.00  0.00    -0.297 NA 
HETATM   13  C   UNL     1     -10.836  14.611  71.057  1.00  0.00     0.454 C  
HETATM   14  C   UNL     1     -12.200  14.066  70.547  1.00  0.00    -0.365 C  
BRANCH  11  15
HETATM   15  C   UNL     1      -8.661  15.524  70.628  1.00  0.00     1.932 C  
BRANCH  15  16
HETATM   16  C   UNL     1      -7.528  15.558  69.632  1.00  0.00    -0.156 A  
HETATM   17  C   UNL     1      -7.011  16.774  69.192  1.00  0.00    -0.231 A  
HETATM   18  N   UNL     1      -6.102  16.911  68.196  1.00  0.00    -0.127 NA 
HETATM   19  C   UNL     1      -6.127  14.513  67.960  1.00  0.00    -0.161 A  
HETATM   20  C   UNL     1      -5.684  15.775  67.601  1.00  0.00    -0.124 A  
HETATM   21  C   UNL     1      -7.065  14.407  68.989  1.00  0.00    -0.120 A  
ENDBRANCH  15  16
ENDBRANCH  11  15
BRANCH  12  22
HETATM   22  C   UNL     1     -11.360  12.129  69.314  1.00  0.00    -0.266 C  
BRANCH  22  23
HETATM   23  C   UNL     1     -11.155  11.230  68.059  1.00  0.00    -0.266 C  
HETATM   24  O   UNL     1      -9.871  11.530  67.487  1.00  0.00    -0.186 OA 
HETATM   25  H   UNL     1      -9.746  10.982  66.721  1.00  0.00     0.000 HD 
BRANCH  23  26
HETATM   26  C   UNL     1     -11.050   9.694  68.286  1.00  0.00    -0.102 C  
HETATM   27  C   UNL     1      -9.675   8.987  68.390  1.00  0.00    -0.170 C  
HETATM   28  C   UNL     1      -9.866   7.571  69.037  1.00  0.00    -0.170 C  
HETATM   29  C   UNL     1      -9.039   8.829  66.992  1.00  0.00    -0.133 C  
HETATM   30  O   UNL     1      -9.708   8.791  65.964  1.00  0.00    -0.254 OA 
HETATM   31  N   UNL     1      -7.659   8.739  66.955  1.00  0.00    -0.087 N  
HETATM   32  H   UNL     1      -7.145   8.573  67.821  1.00  0.00     0.000 HD 
BRANCH  28  33
HETATM   33  C   UNL     1     -10.373   7.527  70.478  1.00  0.00    -0.217 A  
HETATM   34  C   UNL     1     -11.707   7.213  70.771  1.00  0.00    -0.363 A  
HETATM   35  C   UNL     1      -9.522   7.845  71.548  1.00  0.00    -0.184 A  
HETATM   36  C   UNL     1      -9.986   7.832  72.878  1.00  0.00    -0.341 A  
HETATM   37  C   UNL     1     -12.171   7.199  72.099  1.00  0.00    -0.256 A  
HETATM   38  C   UNL     1     -11.309   7.506  73.152  1.00  0.00    -0.232 A  
ENDBRANCH  28  33
BRANCH  31  39
HETATM   39  C   UNL     1      -6.915   8.880  65.686  1.00  0.00    -0.080 C  
HETATM   40  C   UNL     1      -7.798  10.150  63.690  1.00  0.00    -0.154 C  
HETATM   41  C   UNL     1      -7.971   8.679  63.535  1.00  0.00    -0.160 A  
HETATM   42  H   UNL     1      -7.747  12.123  65.414  1.00  0.00     0.000 HD 
HETATM   43  C   UNL     1      -7.021  10.292  65.016  1.00  0.00    -0.112 C  
HETATM   44  O   UNL     1      -7.683  11.267  65.820  1.00  0.00     0.035 OA 
HETATM   45  C   UNL     1      -8.535   8.024  62.439  1.00  0.00    -0.069 A  
HETATM   46  C   UNL     1      -8.562   6.630  62.440  1.00  0.00     0.164 A  
HETATM   47  C   UNL     1      -8.019   5.914  63.511  1.00  0.00    -0.113 A  
HETATM   48  C   UNL     1      -7.473   6.576  64.615  1.00  0.00    -0.089 A  
HETATM   49  C   UNL     1      -7.466   7.974  64.620  1.00  0.00    -0.097 A  
ENDBRANCH  31  39
ENDBRANCH  23  26
ENDBRANCH  22  23
ENDBRANCH  12  22
ENDBRANCH   6   9
TORSDOF 8
ENDMDL
MODEL      168
REMARK 921   NORMALIZED FREE ENERGY PREDICTED BY IDOCK:    0.47 KCAL/MOL
REMARK 922        TOTAL FREE ENERGY PREDICTED BY IDOCK:   -1.28 KCAL/MOL
REMARK 923 INTER-LIGAND FREE ENERGY PREDICTED BY IDOCK:   -2.29 KCAL/MOL
REMARK 924 INTRA-LIGAND FREE ENERGY PREDICTED BY IDOCK:    1.01 KCAL/MOL
REMARK 927      BINDING AFFINITY PREDICTED BY RF-SCORE:    0.00 PKD
ROOT
HETATM    1  C   UNL     1     -11.986  12.847  72.453  1.00  0.00     2.379 C  
HETATM    2  C   UNL     1     -12.528  12.653  71.033  1.00  0.00    -0.260 C  
HETATM    3  N   UNL     1     -11.659  11.821  70.141  1.00  0.00    -0.508 N  
HETATM    4  C   UNL     1     -12.604  14.072  70.399  1.00  0.00    -0.374 C  
HETATM    5  C   UNL     1     -13.971  12.129  71.096  1.00  0.00     1.993 C  
HETATM    6  C   UNL     1     -11.193  10.537  70.045  1.00  0.00    -0.315 C  
HETATM    7  H   UNL     1     -11.306  12.384  69.367  1.00  0.00     0.000 HD 
HETATM    8  O   UNL     1     -10.728  10.237  68.935  1.00  0.00    -0.203 OA 
ENDROOT
BRANCH   6   9
HETATM    9  C   UNL     1     -11.144   9.515  71.194  1.00  0.00    -0.379 C  
HETATM   10  C   UNL     1      -9.740   9.179  71.835  1.00  0.00    -0.005 C  
HETATM   11  N   UNL     1      -9.901   8.544  73.182  1.00  0.00     0.010 NA 
HETATM   12  N   UNL     1     -11.933   8.278  70.926  1.00  0.00    -0.235 NA 
HETATM   13  C   UNL     1     -10.941   7.477  73.151  1.00  0.00    -0.367 C  
HETATM   14  C   UNL     1     -12.210   7.765  72.299  1.00  0.00    -0.256 C  
BRANCH  11  15
HETATM   15  C   UNL     1      -8.656   7.939  73.714  1.00  0.00    -0.265 C  
BRANCH  15  16
HETATM   16  C   UNL     1      -7.551   7.631  72.735  1.00  0.00    -0.115 A  
HETATM   17  C   UNL     1      -6.634   8.614  72.373  1.00  0.00    -0.053 A  
HETATM   18  N   UNL     1      -5.703   8.480  71.397  1.00  0.00    -0.036 NA 
HETATM   19  C   UNL     1      -6.544   6.254  71.020  1.00  0.00    -0.050 A  
HETATM   20  C   UNL     1      -5.683   7.302  70.741  1.00  0.00    -0.027 A  
HETATM   21  C   UNL     1      -7.492   6.425  72.031  1.00  0.00    -0.093 A  
ENDBRANCH  15  16
ENDBRANCH  11  15
BRANCH  12  22
HETATM   22  C   UNL     1     -11.295   7.182  70.108  1.00  0.00    -0.241 C  
BRANCH  22  23
HETATM   23  C   UNL     1     -10.348   7.539  68.924  1.00  0.00    -0.211 C  
HETATM   24  O   UNL     1      -9.097   8.000  69.462  1.00  0.00    -0.151 OA 
HETATM   25  H   UNL     1      -8.519   8.218  68.739  1.00  0.00     0.000 HD 
BRANCH  23  26
HETATM   26  C   UNL     1      -9.885   6.376  67.998  1.00  0.00    -0.126 C  
HETATM   27  C   UNL     1      -8.406   6.237  67.557  1.00  0.00    -0.113 C  
HETATM   28  C   UNL     1      -8.160   4.785  67.017  1.00  0.00    -0.106 C  
HETATM   29  C   UNL     1      -8.072   7.259  66.449  1.00  0.00    -0.119 C  
HETATM   30  O   UNL     1      -8.927   7.724  65.702  1.00  0.00    -0.118 OA 
HETATM   31  N   UNL     1      -6.744   7.633  66.344  1.00  0.00    -0.057 N  
HETATM   32  H   UNL     1      -6.032   7.092  66.834  1.00  0.00     0.000 HD 
BRANCH  28  33
HETATM   33  C   UNL     1      -8.321   3.636  68.012  1.00  0.00    -0.101 A  
HETATM   34  C   UNL     1      -7.495   3.527  69.138  1.00  0.00    -0.052 A  
HETATM   35  C   UNL     1      -9.277   2.630  67.798  1.00  0.00    -0.244 A  
HETATM   36  C   UNL     1      -9.417   1.554  68.696  1.00  0.00    -0.222 A  
HETATM   37  C   UNL     1      -7.634   2.452  70.035  1.00  0.00    -0.043 A  
HETATM   38  C   UNL     1      -8.598   1.468  69.815  1.00  0.00    -0.088 A  
ENDBRANCH  28  33
BRANCH  31  39
HETATM   39  C   UNL     1      -6.340   8.803  65.537  1.00  0.00    -0.062 C  
HETATM   40  C   UNL     1      -7.413  11.079  65.750  1.00  0.00     0.073 C  
HETATM   41  C   UNL     1      -7.930  10.327  64.573  1.00  0.00    -0.133 A  
HETATM   42  H   UNL     1      -6.500  10.850  68.196  1.00  0.00     0.000 HD 
HETATM   43  C   UNL     1      -6.310  10.160  66.317  1.00  0.00    -0.084 C  
HETATM   44  O   UNL     1      -6.519  10.027  67.722  1.00  0.00    -0.065 OA 
HETATM   45  C   UNL     1      -8.884  10.776  63.659  1.00  0.00    -0.139 A  
HETATM   46  C   UNL     1      -9.207   9.957  62.578  1.00  0.00    -0.307 A  
HETATM   47  C   UNL     1      -8.573   8.721  62.415  1.00  0.00    -0.188 A  
HETATM   48  C   UNL     1      -7.633   8.268  63.345  1.00  0.00    -0.131 A  
HETATM   49  C   UNL     1      -7.326   9.083  64.438  1.00  0.00    -0.099 A  
ENDBRANCH  31  39
ENDBRANCH  23  26
ENDBRANCH  22  23
ENDBRANCH  12  22
ENDBRANCH   6   9
TORSDOF 8
ENDMDL
MODEL      169
REMARK 921   NORMALIZED FREE ENERGY PREDICTED BY IDOCK:    0.51 KCAL/MOL
REMARK 922        TOTAL FREE ENERGY PREDICTED BY IDOCK:   -1.22 KCAL/MOL
REMARK 923 INTER-LIGAND FREE ENERGY PREDICTED BY IDOCK:   -0.29 KCAL/MOL
REMARK 924 INTRA-LIGAND FREE ENERGY PREDICTED BY IDOCK:   -0.93 KCAL/MOL
REMARK 927      BINDING AFFINITY PREDICTED BY RF-SCORE:    0.00 PKD
ROOT
HETATM    1  C   UNL     1      -8.579   8.120  68.684  1.00  0.00    -0.127 C  
HETATM    2  C   UNL     1      -7.325   8.280  69.549  1.00  0.00    -0.074 C  
HETATM    3  N   UNL     1      -7.534   9.054  70.814  1.00  0.00    -0.102 N  
HETATM    4  C   UNL     1      -6.302   9.078  68.691  1.00  0.00    -0.053 C  
HETATM    5  C   UNL     1      -6.693   6.903  69.805  1.00  0.00    -0.049 C  
HETATM    6  C   UNL     1      -8.228   8.959  71.991  1.00  0.00     0.119 C  
HETATM    7  H   UNL     1      -6.992   9.917  70.792  1.00  0.00     0.000 HD 
HETATM    8  O   UNL     1      -7.840   9.726  72.885  1.00  0.00     1.758 OA 
ENDROOT
BRANCH   6   9
HETATM    9  C   UNL     1      -9.448   8.054  72.238  1.00  0.00    -0.209 C  
HETATM   10  C   UNL     1      -9.491   6.647  71.519  1.00  0.00    -0.156 C  
HETATM   11  N   UNL     1     -10.473   5.732  72.186  1.00  0.00    -0.205 NA 
HETATM   12  N   UNL     1     -10.752   8.767  72.124  1.00  0.00    -0.343 NA 
HETATM   13  C   UNL     1     -11.760   6.433  72.456  1.00  0.00    -0.184 C  
HETATM   14  C   UNL     1     -11.664   7.909  72.934  1.00  0.00    -0.181 C  
BRANCH  11  15
HETATM   15  C   UNL     1     -10.783   4.512  71.404  1.00  0.00     0.294 C  
BRANCH  15  16
HETATM   16  C   UNL     1      -9.725   3.439  71.327  1.00  0.00    -0.227 A  
HETATM   17  C   UNL     1      -9.066   3.014  72.478  1.00  0.00    -0.088 A  
HETATM   18  N   UNL     1      -8.006   2.169  72.492  1.00  0.00    -0.052 NA 
HETATM   19  C   UNL     1      -8.154   2.078  70.089  1.00  0.00    -0.056 A  
HETATM   20  C   UNL     1      -7.573   1.724  71.295  1.00  0.00    -0.032 A  
HETATM   21  C   UNL     1      -9.245   2.951  70.109  1.00  0.00    -0.207 A  
ENDBRANCH  15  16
ENDBRANCH  11  15
BRANCH  12  22
HETATM   22  C   UNL     1     -11.348   8.961  70.750  1.00  0.00    -0.278 C  
BRANCH  22  23
HETATM   23  C   UNL     1     -10.692   9.954  69.746  1.00  0.00    -0.267 C  
HETATM   24  O   UNL     1     -11.557  10.089  68.606  1.00  0.00    -0.508 OA 
HETATM   25  H   UNL     1     -11.156  10.696  67.993  1.00  0.00     0.000 HD 
BRANCH  23  26
HETATM   26  C   UNL     1     -10.533  11.434  70.201  1.00  0.00     0.960 C  
HETATM   27  C   UNL     1     -10.979  12.609  69.292  1.00  0.00    -0.123 C  
HETATM   28  C   UNL     1     -11.106  13.913  70.154  1.00  0.00     0.164 C  
HETATM   29  C   UNL     1      -9.952  12.840  68.163  1.00  0.00    -0.229 C  
HETATM   30  O   UNL     1      -8.773  12.516  68.267  1.00  0.00    -0.183 OA 
HETATM   31  N   UNL     1     -10.436  13.432  67.010  1.00  0.00    -0.256 N  
HETATM   32  H   UNL     1     -11.357  13.869  67.021  1.00  0.00     0.000 HD 
BRANCH  28  33
HETATM   33  C   UNL     1     -12.169  13.919  71.253  1.00  0.00    -0.353 A  
HETATM   34  C   UNL     1     -13.243  13.020  71.232  1.00  0.00    -0.186 A  
HETATM   35  C   UNL     1     -12.121  14.861  72.293  1.00  0.00    -0.407 A  
HETATM   36  C   UNL     1     -13.109  14.891  73.296  1.00  0.00    -0.585 A  
HETATM   37  C   UNL     1     -14.230  13.049  72.234  1.00  0.00    -0.149 A  
HETATM   38  C   UNL     1     -14.160  13.983  73.267  1.00  0.00     1.731 A  
ENDBRANCH  28  33
BRANCH  31  39
HETATM   39  C   UNL     1      -9.643  13.442  65.762  1.00  0.00    -0.047 C  
HETATM   40  C   UNL     1     -10.666  13.658  63.464  1.00  0.00     1.160 C  
HETATM   41  C   UNL     1     -10.316  12.247  63.788  1.00  0.00    -0.464 A  
HETATM   42  H   UNL     1     -11.478  15.939  64.467  1.00  0.00     0.000 HD 
HETATM   43  C   UNL     1     -10.139  14.455  64.677  1.00  0.00     0.094 C  
HETATM   44  O   UNL     1     -11.178  15.324  65.126  1.00  0.00    -0.367 OA 
HETATM   45  C   UNL     1     -10.497  11.140  62.958  1.00  0.00    -0.140 A  
HETATM   46  C   UNL     1     -10.054   9.895  63.404  1.00  0.00     0.960 A  
HETATM   47  C   UNL     1      -9.429   9.774  64.649  1.00  0.00    -0.295 A  
HETATM   48  C   UNL     1      -9.268  10.883  65.483  1.00  0.00    -0.232 A  
HETATM   49  C   UNL     1      -9.731  12.126  65.042  1.00  0.00    -0.112 A  
ENDBRANCH  31  39
ENDBRANCH  23  26
ENDBRANCH  22  23
ENDBRANCH  12  22
ENDBRANCH   6   9
TORSDOF 8
ENDMDL
MODEL      170
REMARK 921   NORMALIZED FREE ENERGY PREDICTED BY IDOCK:    0.70 KCAL/MOL
REMARK 922        TOTAL FREE ENERGY PREDICTED BY IDOCK:   -0.94 KCAL/MOL
REMARK 923 INTER-LIGAND FREE ENERGY PREDICTED BY IDOCK:   -5.96 KCAL/MOL
REMARK 924 INTRA-LIGAND FREE ENERGY PREDICTED BY IDOCK:    5.02 KCAL/MOL
REMARK 927      BINDING AFFINITY PREDICTED BY RF-SCORE:    0.00 PKD
ROOT
HETATM    1  C   UNL     1     -13.050   9.035  70.307  1.00  0.00     1.089 C  
HETATM    2  C   UNL     1     -13.037   8.633  71.786  1.00  0.00    -0.361 C  
HETATM    3  N   UNL     1     -12.924   7.161  72.033  1.00  0.00    -0.526 N  
HETATM    4  C   UNL     1     -14.403   9.089  72.374  1.00  0.00    -0.325 C  
HETATM    5  C   UNL     1     -11.957   9.434  72.530  1.00  0.00     0.296 C  
HETATM    6  C   UNL     1     -12.035   6.137  71.836  1.00  0.00    -0.218 C  
HETATM    7  H   UNL     1     -13.768   6.813  72.486  1.00  0.00     0.000 HD 
HETATM    8  O   UNL     1     -12.270   5.114  72.496  1.00  0.00     0.086 OA 
ENDROOT
BRANCH   6   9
HETATM    9  C   UNL     1     -10.861   6.151  70.842  1.00  0.00    -0.281 C  
HETATM   10  C   UNL     1      -9.432   5.733  71.370  1.00  0.00    -0.150 C  
HETATM   11  N   UNL     1      -8.524   5.370  70.235  1.00  0.00    -0.117 NA 
HETATM   12  N   UNL     1     -10.798   7.387  70.010  1.00  0.00    -0.250 NA 
HETATM   13  C   UNL     1      -8.611   6.373  69.137  1.00  0.00    -0.125 C  
HETATM   14  C   UNL     1     -10.024   6.938  68.817  1.00  0.00    -0.153 C  
BRANCH  11  15
HETATM   15  C   UNL     1      -7.097   5.252  70.621  1.00  0.00    -0.060 C  
BRANCH  15  16
HETATM   16  C   UNL     1      -6.495   6.370  71.435  1.00  0.00    -0.050 A  
HETATM   17  C   UNL     1      -6.995   6.669  72.700  1.00  0.00    -0.072 A  
HETATM   18  N   UNL     1      -6.623   7.741  73.442  1.00  0.00    -0.076 NA 
HETATM   19  C   UNL     1      -5.138   8.361  71.649  1.00  0.00    -0.033 A  
HETATM   20  C   UNL     1      -5.705   8.564  72.896  1.00  0.00    -0.071 A  
HETATM   21  C   UNL     1      -5.543   7.247  70.910  1.00  0.00    -0.027 A  
ENDBRANCH  15  16
ENDBRANCH  11  15
BRANCH  12  22
HETATM   22  C   UNL     1     -10.138   8.613  70.594  1.00  0.00    -0.198 C  
BRANCH  22  23
HETATM   23  C   UNL     1      -9.031   9.362  69.794  1.00  0.00    -0.188 C  
HETATM   24  O   UNL     1      -7.926   8.465  69.594  1.00  0.00    -0.101 OA 
HETATM   25  H   UNL     1      -7.250   8.923  69.105  1.00  0.00     0.000 HD 
BRANCH  23  26
HETATM   26  C   UNL     1      -9.364   9.787  68.334  1.00  0.00    -0.135 C  
HETATM   27  C   UNL     1      -8.768  11.077  67.715  1.00  0.00    -0.130 C  
HETATM   28  C   UNL     1      -8.913  11.018  66.154  1.00  0.00    -0.203 C  
HETATM   29  C   UNL     1      -9.501  12.325  68.251  1.00  0.00    -0.209 C  
HETATM   30  O   UNL     1     -10.655  12.283  68.669  1.00  0.00    -0.228 OA 
HETATM   31  N   UNL     1      -8.782  13.506  68.242  1.00  0.00    -0.175 N  
HETATM   32  H   UNL     1      -7.912  13.559  67.713  1.00  0.00     0.000 HD 
BRANCH  28  33
HETATM   33  C   UNL     1      -8.148   9.914  65.425  1.00  0.00    -0.137 A  
HETATM   34  C   UNL     1      -6.808   9.636  65.726  1.00  0.00    -0.093 A  
HETATM   35  C   UNL     1      -8.759   9.175  64.399  1.00  0.00    -0.184 A  
HETATM   36  C   UNL     1      -8.055   8.172  63.705  1.00  0.00    -0.115 A  
HETATM   37  C   UNL     1      -6.105   8.634  65.033  1.00  0.00    -0.060 A  
HETATM   38  C   UNL     1      -6.730   7.901  64.025  1.00  0.00    -0.062 A  
ENDBRANCH  28  33
BRANCH  31  39
HETATM   39  C   UNL     1      -9.251  14.694  68.987  1.00  0.00    -0.108 C  
HETATM   40  C   UNL     1      -9.965  16.844  67.871  1.00  0.00    -0.274 C  
HETATM   41  C   UNL     1      -8.581  16.931  68.415  1.00  0.00    -0.240 A  
HETATM   42  H   UNL     1     -11.738  15.241  66.796  1.00  0.00     0.000 HD 
HETATM   43  C   UNL     1     -10.452  15.451  68.326  1.00  0.00    -0.241 C  
HETATM   44  O   UNL     1     -11.009  14.782  67.197  1.00  0.00    -0.303 OA 
HETATM   45  C   UNL     1      -7.738  18.042  68.354  1.00  0.00    -0.291 A  
HETATM   46  C   UNL     1      -6.491  17.964  68.973  1.00  0.00    -0.236 A  
HETATM   47  C   UNL     1      -6.109  16.800  69.648  1.00  0.00    -0.223 A  
HETATM   48  C   UNL     1      -6.950  15.685  69.688  1.00  0.00    -0.167 A  
HETATM   49  C   UNL     1      -8.192  15.759  69.050  1.00  0.00    -0.234 A  
ENDBRANCH  31  39
ENDBRANCH  23  26
ENDBRANCH  22  23
ENDBRANCH  12  22
ENDBRANCH   6   9
TORSDOF 8
ENDMDL
MODEL      171
REMARK 921   NORMALIZED FREE ENERGY PREDICTED BY IDOCK:    0.87 KCAL/MOL
REMARK 922        TOTAL FREE ENERGY PREDICTED BY IDOCK:   -0.69 KCAL/MOL
REMARK 923 INTER-LIGAND FREE ENERGY PREDICTED BY IDOCK:   -3.40 KCAL/MOL
REMARK 924 INTRA-LIGAND FREE ENERGY PREDICTED BY IDOCK:    2.71 KCAL/MOL
REMARK 927      BINDING AFFINITY PREDICTED BY RF-SCORE:    0.00 PKD
ROOT
HETATM    1  C   UNL     1     -11.167  10.667  66.373  1.00  0.00     0.192 C  
HETATM    2  C   UNL     1     -11.113  12.140  66.788  1.00  0.00    -0.300 C  
HETATM    3  N   UNL     1      -9.951  12.502  67.661  1.00  0.00    -0.198 N  
HETATM    4  C   UNL     1     -12.403  12.408  67.617  1.00  0.00     0.526 C  
HETATM    5  C   UNL     1     -11.208  13.034  65.542  1.00  0.00    -0.315 C  
HETATM    6  C   UNL     1      -8.584  12.559  67.603  1.00  0.00    -0.178 C  
HETATM    7  H   UNL     1     -10.278  12.797  68.580  1.00  0.00     0.000 HD 
HETATM    8  O   UNL     1      -8.054  13.223  68.506  1.00  0.00    -0.145 OA 
ENDROOT
BRANCH   6   9
HETATM    9  C   UNL     1      -7.702  11.824  66.579  1.00  0.00     0.046 C  
HETATM   10  C   UNL     1      -8.415  11.030  65.413  1.00  0.00    -0.030 C  
HETATM   11  N   UNL     1      -7.466  10.762  64.285  1.00  0.00     0.238 NA 
HETATM   12  N   UNL     1      -6.609  11.021  67.199  1.00  0.00    -0.081 NA 
HETATM   13  C   UNL     1      -6.158  10.258  64.793  1.00  0.00    -0.128 C  
HETATM   14  C   UNL     1      -5.614  10.915  66.093  1.00  0.00    -0.134 C  
BRANCH  11  15
HETATM   15  C   UNL     1      -7.970   9.779  63.297  1.00  0.00    -0.145 C  
BRANCH  15  16
HETATM   16  C   UNL     1      -7.281   8.439  63.223  1.00  0.00    -0.093 A  
HETATM   17  C   UNL     1      -7.906   7.358  62.606  1.00  0.00    -0.132 A  
HETATM   18  N   UNL     1      -7.437   6.086  62.619  1.00  0.00    -0.056 NA 
HETATM   19  C   UNL     1      -5.575   6.876  63.928  1.00  0.00    -0.032 A  
HETATM   20  C   UNL     1      -6.283   5.876  63.283  1.00  0.00    -0.025 A  
HETATM   21  C   UNL     1      -6.086   8.176  63.897  1.00  0.00    -0.066 A  
ENDBRANCH  15  16
ENDBRANCH  11  15
BRANCH  12  22
HETATM   22  C   UNL     1      -6.933   9.637  67.706  1.00  0.00    -0.079 C  
BRANCH  22  23
HETATM   23  C   UNL     1      -6.754   9.294  69.215  1.00  0.00    -0.049 C  
HETATM   24  O   UNL     1      -6.921  10.499  69.980  1.00  0.00    -0.145 OA 
HETATM   25  H   UNL     1      -6.812  10.290  70.901  1.00  0.00     0.000 HD 
BRANCH  23  26
HETATM   26  C   UNL     1      -7.810   8.355  69.868  1.00  0.00    -0.101 C  
HETATM   27  C   UNL     1      -7.910   6.859  69.475  1.00  0.00    -0.120 C  
HETATM   28  C   UNL     1      -8.729   6.088  70.569  1.00  0.00    -0.138 C  
HETATM   29  C   UNL     1      -8.610   6.703  68.108  1.00  0.00    -0.115 C  
HETATM   30  O   UNL     1      -9.394   7.540  67.669  1.00  0.00    -0.136 OA 
HETATM   31  N   UNL     1      -8.300   5.562  67.390  1.00  0.00    -0.104 N  
HETATM   32  H   UNL     1      -7.811   4.796  67.854  1.00  0.00     0.000 HD 
BRANCH  28  33
HETATM   33  C   UNL     1      -8.126   6.025  71.973  1.00  0.00    -0.107 A  
HETATM   34  C   UNL     1      -7.898   7.188  72.719  1.00  0.00    -0.100 A  
HETATM   35  C   UNL     1      -7.744   4.797  72.535  1.00  0.00    -0.092 A  
HETATM   36  C   UNL     1      -7.166   4.730  73.817  1.00  0.00    -0.078 A  
HETATM   37  C   UNL     1      -7.321   7.122  74.001  1.00  0.00    -0.106 A  
HETATM   38  C   UNL     1      -6.958   5.893  74.549  1.00  0.00    -0.084 A  
ENDBRANCH  28  33
BRANCH  31  39
HETATM   39  C   UNL     1      -8.663   5.432  65.963  1.00  0.00    -0.137 C  
HETATM   40  C   UNL     1     -10.723   4.214  65.157  1.00  0.00    -0.089 C  
HETATM   41  C   UNL     1      -9.495   3.384  65.018  1.00  0.00    -0.154 A  
HETATM   42  H   UNL     1     -11.901   6.056  66.602  1.00  0.00     0.000 HD 
HETATM   43  C   UNL     1     -10.192   5.574  65.659  1.00  0.00     0.301 C  
HETATM   44  O   UNL     1     -10.973   5.969  66.786  1.00  0.00    -0.316 OA 
HETATM   45  C   UNL     1      -9.426   2.088  64.502  1.00  0.00    -0.110 A  
HETATM   46  C   UNL     1      -8.176   1.482  64.391  1.00  0.00    -0.070 A  
HETATM   47  C   UNL     1      -7.021   2.170  64.776  1.00  0.00    -0.047 A  
HETATM   48  C   UNL     1      -7.098   3.460  65.309  1.00  0.00    -0.065 A  
HETATM   49  C   UNL     1      -8.355   4.057  65.438  1.00  0.00    -0.109 A  
ENDBRANCH  31  39
ENDBRANCH  23  26
ENDBRANCH  22  23
ENDBRANCH  12  22
ENDBRANCH   6   9
TORSDOF 8
ENDMDL
MODEL      172
REMARK 921   NORMALIZED FREE ENERGY PREDICTED BY IDOCK:    1.01 KCAL/MOL
REMARK 922        TOTAL FREE ENERGY PREDICTED BY IDOCK:   -0.48 KCAL/MOL
REMARK 923 INTER-LIGAND FREE ENERGY PREDICTED BY IDOCK:   -4.60 KCAL/MOL
REMARK 924 INTRA-LIGAND FREE ENERGY PREDICTED BY IDOCK:    4.12 KCAL/MOL
REMARK 927      BINDING AFFINITY PREDICTED BY RF-SCORE:    0.00 PKD
ROOT
HETATM    1  C   UNL     1     -12.546  12.367  66.912  1.00  0.00     1.261 C  
HETATM    2  C   UNL     1     -11.483  12.321  65.810  1.00  0.00    -0.367 C  
HETATM    3  N   UNL     1     -10.100  12.675  66.261  1.00  0.00    -0.248 N  
HETATM    4  C   UNL     1     -11.903  13.384  64.754  1.00  0.00    -0.415 C  
HETATM    5  C   UNL     1     -11.534  10.961  65.097  1.00  0.00     0.576 C  
HETATM    6  C   UNL     1      -9.125  12.204  67.100  1.00  0.00    -0.189 C  
HETATM    7  H   UNL     1      -9.787  13.530  65.802  1.00  0.00     0.000 HD 
HETATM    8  O   UNL     1      -8.000  12.688  66.910  1.00  0.00    -0.101 OA 
ENDROOT
BRANCH   6   9
HETATM    9  C   UNL     1      -9.344  11.211  68.255  1.00  0.00    -0.176 C  
HETATM   10  C   UNL     1      -8.071  10.580  68.947  1.00  0.00    -0.138 C  
HETATM   11  N   UNL     1      -8.415  10.013  70.291  1.00  0.00    -0.068 NA 
HETATM   12  N   UNL     1     -10.379  10.177  67.966  1.00  0.00    -0.178 NA 
HETATM   13  C   UNL     1      -9.665   9.205  70.228  1.00  0.00    -0.211 C  
HETATM   14  C   UNL     1     -10.808   9.756  69.331  1.00  0.00    -0.232 C  
BRANCH  11  15
HETATM   15  C   UNL     1      -7.354   9.154  70.869  1.00  0.00    -0.116 C  
BRANCH  15  16
HETATM   16  C   UNL     1      -7.734   8.239  72.007  1.00  0.00    -0.153 A  
HETATM   17  C   UNL     1      -8.338   8.752  73.152  1.00  0.00     0.348 A  
HETATM   18  N   UNL     1      -8.579   8.041  74.281  1.00  0.00    -0.209 NA 
HETATM   19  C   UNL     1      -7.592   6.133  73.189  1.00  0.00    -0.097 A  
HETATM   20  C   UNL     1      -8.197   6.748  74.273  1.00  0.00    -0.133 A  
HETATM   21  C   UNL     1      -7.356   6.894  72.041  1.00  0.00    -0.087 A  
ENDBRANCH  15  16
ENDBRANCH  11  15
BRANCH  12  22
HETATM   22  C   UNL     1      -9.974   8.956  67.176  1.00  0.00    -0.226 C  
BRANCH  22  23
HETATM   23  C   UNL     1     -10.966   7.767  67.011  1.00  0.00     0.086 C  
HETATM   24  O   UNL     1     -10.366   6.788  66.146  1.00  0.00    -0.420 OA 
HETATM   25  H   UNL     1     -10.971   6.062  66.045  1.00  0.00     0.000 HD 
BRANCH  23  26
HETATM   26  C   UNL     1     -11.287   6.918  68.276  1.00  0.00     0.058 C  
HETATM   27  C   UNL     1     -10.223   6.681  69.378  1.00  0.00    -0.207 C  
HETATM   28  C   UNL     1     -10.933   6.187  70.687  1.00  0.00    -0.376 C  
HETATM   29  C   UNL     1      -9.196   5.624  68.923  1.00  0.00    -0.119 C  
HETATM   30  O   UNL     1      -9.460   4.765  68.086  1.00  0.00    -0.128 OA 
HETATM   31  N   UNL     1      -7.944   5.697  69.507  1.00  0.00    -0.091 N  
HETATM   32  H   UNL     1      -7.811   6.281  70.333  1.00  0.00     0.000 HD 
BRANCH  28  33
HETATM   33  C   UNL     1     -11.903   7.158  71.361  1.00  0.00    -0.344 A  
HETATM   34  C   UNL     1     -11.465   8.385  71.876  1.00  0.00    -0.384 A  
HETATM   35  C   UNL     1     -13.257   6.824  71.521  1.00  0.00    -0.222 A  
HETATM   36  C   UNL     1     -14.154   7.700  72.163  1.00  0.00    -0.250 A  
HETATM   37  C   UNL     1     -12.360   9.261  72.517  1.00  0.00    -0.140 A  
HETATM   38  C   UNL     1     -13.704   8.918  72.657  1.00  0.00    -0.400 A  
ENDBRANCH  28  33
BRANCH  31  39
HETATM   39  C   UNL     1      -6.796   4.946  68.957  1.00  0.00    -0.051 C  
HETATM   40  C   UNL     1      -6.130   5.009  66.523  1.00  0.00    -0.031 C  
HETATM   41  C   UNL     1      -6.897   3.777  66.859  1.00  0.00    -0.051 A  
HETATM   42  H   UNL     1      -5.831   7.553  67.073  1.00  0.00     0.000 HD 
HETATM   43  C   UNL     1      -5.960   5.718  67.883  1.00  0.00    -0.017 C  
HETATM   44  O   UNL     1      -6.339   7.084  67.725  1.00  0.00    -0.039 OA 
HETATM   45  C   UNL     1      -7.228   2.744  65.980  1.00  0.00    -0.066 A  
HETATM   46  C   UNL     1      -7.903   1.634  66.485  1.00  0.00    -0.070 A  
HETATM   47  C   UNL     1      -8.222   1.559  67.844  1.00  0.00    -0.068 A  
HETATM   48  C   UNL     1      -7.905   2.605  68.715  1.00  0.00    -0.058 A  
HETATM   49  C   UNL     1      -7.246   3.726  68.202  1.00  0.00    -0.055 A  
ENDBRANCH  31  39
ENDBRANCH  23  26
ENDBRANCH  22  23
ENDBRANCH  12  22
ENDBRANCH   6   9
TORSDOF 8
ENDMDL
MODEL      173
REMARK 921   NORMALIZED FREE ENERGY PREDICTED BY IDOCK:    1.01 KCAL/MOL
REMARK 922        TOTAL FREE ENERGY PREDICTED BY IDOCK:   -0.48 KCAL/MOL
REMARK 923 INTER-LIGAND FREE ENERGY PREDICTED BY IDOCK:   -0.85 KCAL/MOL
REMARK 924 INTRA-LIGAND FREE ENERGY PREDICTED BY IDOCK:    0.37 KCAL/MOL
REMARK 927      BINDING AFFINITY PREDICTED BY RF-SCORE:    0.00 PKD
ROOT
HETATM    1  C   UNL     1     -10.221  14.322  69.710  1.00  0.00     0.369 C  
HETATM    2  C   UNL     1     -11.595  13.650  69.629  1.00  0.00    -0.278 C  
HETATM    3  N   UNL     1     -11.629  12.391  68.819  1.00  0.00    -0.303 N  
HETATM    4  C   UNL     1     -12.538  14.669  68.926  1.00  0.00     0.263 C  
HETATM    5  C   UNL     1     -12.158  13.448  71.045  1.00  0.00    -0.192 C  
HETATM    6  C   UNL     1     -11.108  11.125  68.840  1.00  0.00    -0.237 C  
HETATM    7  H   UNL     1     -12.222  12.516  67.999  1.00  0.00     0.000 HD 
HETATM    8  O   UNL     1     -11.675  10.319  68.087  1.00  0.00    -0.287 OA 
ENDROOT
BRANCH   6   9
HETATM    9  C   UNL     1      -9.875  10.679  69.646  1.00  0.00    -0.013 C  
HETATM   10  C   UNL     1      -8.449  10.860  68.989  1.00  0.00    -0.105 C  
HETATM   11  N   UNL     1      -7.369  10.809  70.026  1.00  0.00    -0.091 NA 
HETATM   12  N   UNL     1     -10.024   9.332  70.267  1.00  0.00    -0.202 NA 
HETATM   13  C   UNL     1      -7.580   9.671  70.964  1.00  0.00     0.226 C  
HETATM   14  C   UNL     1      -9.047   9.382  71.392  1.00  0.00     0.215 C  
BRANCH  11  15
HETATM   15  C   UNL     1      -6.004  10.678  69.464  1.00  0.00    -0.048 C  
BRANCH  15  16
HETATM   16  C   UNL     1      -5.867  10.575  67.965  1.00  0.00    -0.040 A  
HETATM   17  C   UNL     1      -6.213  11.649  67.150  1.00  0.00    -0.133 A  
HETATM   18  N   UNL     1      -6.266  11.604  65.796  1.00  0.00     0.370 NA 
HETATM   19  C   UNL     1      -5.601   9.293  65.932  1.00  0.00    -0.045 A  
HETATM   20  C   UNL     1      -5.962  10.424  65.219  1.00  0.00    -0.135 A  
HETATM   21  C   UNL     1      -5.557   9.372  67.325  1.00  0.00    -0.041 A  
ENDBRANCH  15  16
ENDBRANCH  11  15
BRANCH  12  22
HETATM   22  C   UNL     1      -9.740   8.114  69.420  1.00  0.00    -0.170 C  
BRANCH  22  23
HETATM   23  C   UNL     1      -8.611   8.152  68.348  1.00  0.00    -0.130 C  
HETATM   24  O   UNL     1      -7.543   7.292  68.778  1.00  0.00    -0.099 OA 
HETATM   25  H   UNL     1      -6.854   7.315  68.124  1.00  0.00     0.000 HD 
BRANCH  23  26
HETATM   26  C   UNL     1      -8.938   7.574  66.941  1.00  0.00    -0.152 C  
HETATM   27  C   UNL     1      -8.916   8.470  65.676  1.00  0.00    -0.209 C  
HETATM   28  C   UNL     1      -8.850   7.563  64.398  1.00  0.00     0.670 C  
HETATM   29  C   UNL     1     -10.183   9.350  65.614  1.00  0.00     0.168 C  
HETATM   30  O   UNL     1     -11.234   9.032  66.162  1.00  0.00     1.283 OA 
HETATM   31  N   UNL     1     -10.070  10.533  64.906  1.00  0.00    -0.329 N  
HETATM   32  H   UNL     1      -9.263  10.678  64.299  1.00  0.00     0.000 HD 
BRANCH  28  33
HETATM   33  C   UNL     1      -7.598   6.704  64.219  1.00  0.00    -0.104 A  
HETATM   34  C   UNL     1      -7.107   5.907  65.262  1.00  0.00    -0.065 A  
HETATM   35  C   UNL     1      -6.879   6.725  63.014  1.00  0.00    -0.047 A  
HETATM   36  C   UNL     1      -5.711   5.956  62.847  1.00  0.00    -0.018 A  
HETATM   37  C   UNL     1      -5.941   5.138  65.096  1.00  0.00    -0.025 A  
HETATM   38  C   UNL     1      -5.246   5.161  63.888  1.00  0.00    -0.010 A  
ENDBRANCH  28  33
BRANCH  31  39
HETATM   39  C   UNL     1     -11.097  11.591  65.012  1.00  0.00    -0.201 C  
HETATM   40  C   UNL     1     -11.425  13.392  63.273  1.00  0.00     0.231 C  
HETATM   41  C   UNL     1     -10.658  13.887  64.450  1.00  0.00    -0.256 A  
HETATM   42  H   UNL     1     -11.908  11.304  61.765  1.00  0.00     0.000 HD 
HETATM   43  C   UNL     1     -11.811  11.950  63.666  1.00  0.00    -0.473 C  
HETATM   44  O   UNL     1     -11.474  11.086  62.582  1.00  0.00     0.830 OA 
HETATM   45  C   UNL     1     -10.164  15.179  64.630  1.00  0.00     0.140 A  
HETATM   46  C   UNL     1      -9.517  15.482  65.827  1.00  0.00    -0.334 A  
HETATM   47  C   UNL     1      -9.384  14.511  66.824  1.00  0.00    -0.278 A  
HETATM   48  C   UNL     1      -9.864  13.212  66.629  1.00  0.00    -0.261 A  
HETATM   49  C   UNL     1     -10.495  12.906  65.420  1.00  0.00    -0.308 A  
ENDBRANCH  31  39
ENDBRANCH  23  26
ENDBRANCH  22  23
ENDBRANCH  12  22
ENDBRANCH   6   9
TORSDOF 8
ENDMDL
MODEL      174
REMARK 921   NORMALIZED FREE ENERGY PREDICTED BY IDOCK:    1.03 KCAL/MOL
REMARK 922        TOTAL FREE ENERGY PREDICTED BY IDOCK:   -0.45 KCAL/MOL
REMARK 923 INTER-LIGAND FREE ENERGY PREDICTED BY IDOCK:   -1.32 KCAL/MOL
REMARK 924 INTRA-LIGAND FREE ENERGY PREDICTED BY IDOCK:    0.87 KCAL/MOL
REMARK 927      BINDING AFFINITY PREDICTED BY RF-SCORE:    0.00 PKD
ROOT
HETATM    1  C   UNL     1     -13.001  11.711  69.186  1.00  0.00     1.556 C  
HETATM    2  C   UNL     1     -11.805  12.260  68.400  1.00  0.00    -0.304 C  
HETATM    3  N   UNL     1     -10.476  12.055  69.059  1.00  0.00    -0.405 N  
HETATM    4  C   UNL     1     -12.025  13.796  68.288  1.00  0.00    -0.392 C  
HETATM    5  C   UNL     1     -11.835  11.714  66.964  1.00  0.00    -0.038 C  
HETATM    6  C   UNL     1      -9.648  11.032  69.435  1.00  0.00     0.122 C  
HETATM    7  H   UNL     1     -10.061  12.954  69.302  1.00  0.00     0.000 HD 
HETATM    8  O   UNL     1      -8.483  11.374  69.687  1.00  0.00     0.499 OA 
ENDROOT
BRANCH   6   9
HETATM    9  C   UNL     1     -10.070   9.564  69.627  1.00  0.00    -0.212 C  
HETATM   10  C   UNL     1      -9.011   8.556  70.226  1.00  0.00    -0.149 C  
HETATM   11  N   UNL     1      -9.680   7.325  70.758  1.00  0.00    -0.172 NA 
HETATM   12  N   UNL     1     -10.769   8.985  68.445  1.00  0.00    -0.149 NA 
HETATM   13  C   UNL     1     -10.690   6.806  69.794  1.00  0.00    -0.249 C  
HETATM   14  C   UNL     1     -11.548   7.863  69.044  1.00  0.00     1.025 C  
BRANCH  11  15
HETATM   15  C   UNL     1      -8.744   6.218  71.066  1.00  0.00    -0.136 C  
BRANCH  15  16
HETATM   16  C   UNL     1      -9.061   5.337  72.249  1.00  0.00    -0.149 A  
HETATM   17  C   UNL     1      -8.579   4.032  72.306  1.00  0.00    -0.105 A  
HETATM   18  N   UNL     1      -8.929   3.121  73.247  1.00  0.00    -0.086 NA 
HETATM   19  C   UNL     1     -10.350   4.803  74.225  1.00  0.00    -0.317 A  
HETATM   20  C   UNL     1      -9.810   3.528  74.183  1.00  0.00    -0.116 A  
HETATM   21  C   UNL     1      -9.970   5.718  73.240  1.00  0.00    -0.190 A  
ENDBRANCH  15  16
ENDBRANCH  11  15
BRANCH  12  22
HETATM   22  C   UNL     1      -9.933   8.451  67.306  1.00  0.00    -0.227 C  
BRANCH  22  23
HETATM   23  C   UNL     1      -9.098   9.427  66.424  1.00  0.00    -0.161 C  
HETATM   24  O   UNL     1      -8.985  10.683  67.114  1.00  0.00    -0.137 OA 
HETATM   25  H   UNL     1      -8.475  11.278  66.576  1.00  0.00     0.000 HD 
BRANCH  23  26
HETATM   26  C   UNL     1      -7.604   9.068  66.173  1.00  0.00    -0.095 C  
HETATM   27  C   UNL     1      -6.513   9.376  67.229  1.00  0.00    -0.070 C  
HETATM   28  C   UNL     1      -5.227   8.536  66.908  1.00  0.00    -0.036 C  
HETATM   29  C   UNL     1      -6.158  10.878  67.221  1.00  0.00    -0.062 C  
HETATM   30  O   UNL     1      -6.318  11.587  66.232  1.00  0.00    -0.064 OA 
HETATM   31  N   UNL     1      -5.651  11.392  68.401  1.00  0.00    -0.046 N  
HETATM   32  H   UNL     1      -5.343  10.753  69.134  1.00  0.00     0.000 HD 
BRANCH  28  33
HETATM   33  C   UNL     1      -5.351   7.014  66.990  1.00  0.00    -0.017 A  
HETATM   34  C   UNL     1      -5.186   6.209  65.856  1.00  0.00    -0.013 A  
HETATM   35  C   UNL     1      -5.679   6.385  68.201  1.00  0.00    -0.012 A  
HETATM   36  C   UNL     1      -5.820   4.986  68.282  1.00  0.00    -0.017 A  
HETATM   37  C   UNL     1      -5.326   4.811  65.936  1.00  0.00    -0.013 A  
HETATM   38  C   UNL     1      -5.640   4.201  67.150  1.00  0.00    -0.021 A  
ENDBRANCH  28  33
BRANCH  31  39
HETATM   39  C   UNL     1      -5.549  12.851  68.620  1.00  0.00    -0.068 C  
HETATM   40  C   UNL     1      -6.616  14.042  70.573  1.00  0.00     0.140 C  
HETATM   41  C   UNL     1      -7.417  14.190  69.326  1.00  0.00     0.018 A  
HETATM   42  H   UNL     1      -5.028  12.446  71.913  1.00  0.00     0.000 HD 
HETATM   43  C   UNL     1      -5.356  13.278  70.113  1.00  0.00    -0.105 C  
HETATM   44  O   UNL     1      -5.145  12.187  71.007  1.00  0.00    -0.121 OA 
HETATM   45  C   UNL     1      -8.612  14.897  69.189  1.00  0.00    -0.148 A  
HETATM   46  C   UNL     1      -9.196  14.978  67.926  1.00  0.00    -0.182 A  
HETATM   47  C   UNL     1      -8.582  14.375  66.825  1.00  0.00    -0.139 A  
HETATM   48  C   UNL     1      -7.394  13.652  66.971  1.00  0.00     0.352 A  
HETATM   49  C   UNL     1      -6.822  13.555  68.242  1.00  0.00    -0.108 A  
ENDBRANCH  31  39
ENDBRANCH  23  26
ENDBRANCH  22  23
ENDBRANCH  12  22
ENDBRANCH   6   9
TORSDOF 8
ENDMDL
MODEL      175
REMARK 921   NORMALIZED FREE ENERGY PREDICTED BY IDOCK:    1.11 KCAL/MOL
REMARK 922        TOTAL FREE ENERGY PREDICTED BY IDOCK:   -0.34 KCAL/MOL
REMARK 923 INTER-LIGAND FREE ENERGY PREDICTED BY IDOCK:   -6.52 KCAL/MOL
REMARK 924 INTRA-LIGAND FREE ENERGY PREDICTED BY IDOCK:    6.17 KCAL/MOL
REMARK 927      BINDING AFFINITY PREDICTED BY RF-SCORE:    0.00 PKD
ROOT
HETATM    1  C   UNL     1      -9.638   9.020  65.999  1.00  0.00    -0.342 C  
HETATM    2  C   UNL     1      -8.622   9.621  65.022  1.00  0.00    -0.162 C  
HETATM    3  N   UNL     1      -9.219  10.481  63.951  1.00  0.00    -0.233 N  
HETATM    4  C   UNL     1      -7.937   8.419  64.310  1.00  0.00    -0.149 C  
HETATM    5  C   UNL     1      -7.517  10.347  65.805  1.00  0.00    -0.147 C  
HETATM    6  C   UNL     1      -9.908  11.658  63.824  1.00  0.00    -0.315 C  
HETATM    7  H   UNL     1      -9.066  10.061  63.035  1.00  0.00     0.000 HD 
HETATM    8  O   UNL     1      -9.928  12.125  62.675  1.00  0.00     0.114 OA 
ENDROOT
BRANCH   6   9
HETATM    9  C   UNL     1     -10.683  12.366  64.949  1.00  0.00    -0.294 C  
HETATM   10  C   UNL     1      -9.994  13.591  65.672  1.00  0.00    -0.236 C  
HETATM   11  N   UNL     1     -11.005  14.426  66.396  1.00  0.00    -0.314 NA 
HETATM   12  N   UNL     1     -11.300  11.429  65.930  1.00  0.00    -0.162 NA 
HETATM   13  C   UNL     1     -11.943  13.573  67.180  1.00  0.00    -0.381 C  
HETATM   14  C   UNL     1     -12.403  12.247  66.512  1.00  0.00     0.523 C  
BRANCH  11  15
HETATM   15  C   UNL     1     -10.412  15.413  67.330  1.00  0.00    -0.282 C  
BRANCH  15  16
HETATM   16  C   UNL     1     -10.828  15.349  68.778  1.00  0.00    -0.252 A  
HETATM   17  C   UNL     1     -12.147  15.603  69.145  1.00  0.00    -0.227 A  
HETATM   18  N   UNL     1     -12.584  15.716  70.423  1.00  0.00    -0.402 NA 
HETATM   19  C   UNL     1     -10.321  15.310  71.143  1.00  0.00     0.582 A  
HETATM   20  C   UNL     1     -11.659  15.569  71.392  1.00  0.00    -0.419 A  
HETATM   21  C   UNL     1      -9.903  15.201  69.815  1.00  0.00    -0.119 A  
ENDBRANCH  15  16
ENDBRANCH  11  15
BRANCH  12  22
HETATM   22  C   UNL     1     -10.441  10.890  67.049  1.00  0.00    -0.244 C  
BRANCH  22  23
HETATM   23  C   UNL     1      -9.353  11.791  67.704  1.00  0.00    -0.180 C  
HETATM   24  O   UNL     1      -9.929  12.444  68.848  1.00  0.00    -0.418 OA 
HETATM   25  H   UNL     1      -9.265  12.994  69.248  1.00  0.00     0.000 HD 
BRANCH  23  26
HETATM   26  C   UNL     1      -8.117  11.084  68.330  1.00  0.00    -0.134 C  
HETATM   27  C   UNL     1      -7.316  11.735  69.487  1.00  0.00     0.231 C  
HETATM   28  C   UNL     1      -6.434  10.644  70.187  1.00  0.00    -0.152 C  
HETATM   29  C   UNL     1      -6.407  12.861  68.950  1.00  0.00    -0.090 C  
HETATM   30  O   UNL     1      -6.003  12.887  67.791  1.00  0.00    -0.112 OA 
HETATM   31  N   UNL     1      -6.071  13.857  69.851  1.00  0.00    -0.132 N  
HETATM   32  H   UNL     1      -6.248  13.712  70.845  1.00  0.00     0.000 HD 
BRANCH  28  33
HETATM   33  C   UNL     1      -7.168   9.502  70.891  1.00  0.00    -0.063 A  
HETATM   34  C   UNL     1      -6.469   8.511  71.593  1.00  0.00    -0.067 A  
HETATM   35  C   UNL     1      -8.565   9.392  70.814  1.00  0.00    -0.201 A  
HETATM   36  C   UNL     1      -9.248   8.331  71.438  1.00  0.00    -0.218 A  
HETATM   37  C   UNL     1      -7.151   7.451  72.217  1.00  0.00    -0.067 A  
HETATM   38  C   UNL     1      -8.541   7.363  72.141  1.00  0.00    -0.129 A  
ENDBRANCH  28  33
BRANCH  31  39
HETATM   39  C   UNL     1      -5.461  15.125  69.399  1.00  0.00    -0.092 C  
HETATM   40  C   UNL     1      -6.039  17.376  70.387  1.00  0.00     0.253 C  
HETATM   41  C   UNL     1      -6.736  17.140  69.092  1.00  0.00    -0.238 A  
HETATM   42  H   UNL     1      -5.114  16.227  72.553  1.00  0.00     0.000 HD 
HETATM   43  C   UNL     1      -5.129  16.139  70.545  1.00  0.00    -0.185 C  
HETATM   44  O   UNL     1      -5.316  15.612  71.857  1.00  0.00     0.041 OA 
HETATM   45  C   UNL     1      -7.606  18.022  68.449  1.00  0.00    -0.288 A  
HETATM   46  C   UNL     1      -8.125  17.658  67.207  1.00  0.00    -0.222 A  
HETATM   47  C   UNL     1      -7.763  16.441  66.621  1.00  0.00    -0.310 A  
HETATM   48  C   UNL     1      -6.907  15.553  67.279  1.00  0.00    -0.168 A  
HETATM   49  C   UNL     1      -6.405  15.913  68.533  1.00  0.00    -0.111 A  
ENDBRANCH  31  39
ENDBRANCH  23  26
ENDBRANCH  22  23
ENDBRANCH  12  22
ENDBRANCH   6   9
TORSDOF 8
ENDMDL
MODEL      176
REMARK 921   NORMALIZED FREE ENERGY PREDICTED BY IDOCK:    1.51 KCAL/MOL
REMARK 922        TOTAL FREE ENERGY PREDICTED BY IDOCK:    0.26 KCAL/MOL
REMARK 923 INTER-LIGAND FREE ENERGY PREDICTED BY IDOCK:   -4.60 KCAL/MOL
REMARK 924 INTRA-LIGAND FREE ENERGY PREDICTED BY IDOCK:    4.85 KCAL/MOL
REMARK 927      BINDING AFFINITY PREDICTED BY RF-SCORE:    0.00 PKD
ROOT
HETATM    1  C   UNL     1      -9.087   5.092  73.720  1.00  0.00    -0.116 C  
HETATM    2  C   UNL     1      -7.617   4.715  73.503  1.00  0.00    -0.083 C  
HETATM    3  N   UNL     1      -7.313   4.137  72.155  1.00  0.00    -0.063 N  
HETATM    4  C   UNL     1      -7.289   3.616  74.554  1.00  0.00    -0.054 C  
HETATM    5  C   UNL     1      -6.720   5.916  73.839  1.00  0.00    -0.080 C  
HETATM    6  C   UNL     1      -7.323   4.507  70.837  1.00  0.00    -0.051 C  
HETATM    7  H   UNL     1      -7.004   3.170  72.248  1.00  0.00     0.000 HD 
HETATM    8  O   UNL     1      -6.686   3.757  70.083  1.00  0.00    -0.032 OA 
ENDROOT
BRANCH   6   9
HETATM    9  C   UNL     1      -8.098   5.699  70.249  1.00  0.00    -0.104 C  
HETATM   10  C   UNL     1      -8.523   5.636  68.728  1.00  0.00    -0.102 C  
HETATM   11  N   UNL     1      -9.617   6.616  68.434  1.00  0.00    -0.124 NA 
HETATM   12  N   UNL     1      -7.510   7.024  70.598  1.00  0.00    -0.083 NA 
HETATM   13  C   UNL     1      -9.320   7.947  69.034  1.00  0.00    -0.151 C  
HETATM   14  C   UNL     1      -8.672   7.947  70.447  1.00  0.00    -0.137 C  
BRANCH  11  15
HETATM   15  C   UNL     1      -9.865   6.823  66.987  1.00  0.00    -0.167 C  
BRANCH  15  16
HETATM   16  C   UNL     1      -9.605   5.664  66.057  1.00  0.00    -0.104 A  
HETATM   17  C   UNL     1     -10.546   5.308  65.094  1.00  0.00     0.780 A  
HETATM   18  N   UNL     1     -10.473   4.199  64.316  1.00  0.00    -0.159 NA 
HETATM   19  C   UNL     1      -8.408   3.656  65.434  1.00  0.00    -0.105 A  
HETATM   20  C   UNL     1      -9.406   3.398  64.508  1.00  0.00    -0.143 A  
HETATM   21  C   UNL     1      -8.514   4.806  66.220  1.00  0.00    -0.111 A  
ENDBRANCH  15  16
ENDBRANCH  11  15
BRANCH  12  22
HETATM   22  C   UNL     1      -6.359   7.541  69.768  1.00  0.00    -0.031 C  
BRANCH  22  23
HETATM   23  C   UNL     1      -6.523   8.839  68.924  1.00  0.00    -0.049 C  
HETATM   24  O   UNL     1      -5.383   8.970  68.059  1.00  0.00    -0.034 OA 
HETATM   25  H   UNL     1      -5.483   9.763  67.544  1.00  0.00     0.000 HD 
BRANCH  23  26
HETATM   26  C   UNL     1      -7.700   8.891  67.907  1.00  0.00    -0.101 C  
HETATM   27  C   UNL     1      -8.115  10.218  67.222  1.00  0.00    -0.120 C  
HETATM   28  C   UNL     1      -9.000   9.899  65.967  1.00  0.00    -0.178 C  
HETATM   29  C   UNL     1      -8.913  11.107  68.199  1.00  0.00    -0.159 C  
HETATM   30  O   UNL     1      -9.544  10.645  69.145  1.00  0.00    -0.201 OA 
HETATM   31  N   UNL     1      -8.877  12.468  67.955  1.00  0.00    -0.176 N  
HETATM   32  H   UNL     1      -8.520  12.807  67.061  1.00  0.00     0.000 HD 
BRANCH  28  33
HETATM   33  C   UNL     1      -8.338   9.127  64.826  1.00  0.00    -0.176 A  
HETATM   34  C   UNL     1      -8.720   9.328  63.493  1.00  0.00    -0.188 A  
HETATM   35  C   UNL     1      -7.355   8.160  65.089  1.00  0.00    -0.078 A  
HETATM   36  C   UNL     1      -6.756   7.426  64.047  1.00  0.00    -0.048 A  
HETATM   37  C   UNL     1      -8.122   8.595  62.451  1.00  0.00    -0.167 A  
HETATM   38  C   UNL     1      -7.138   7.646  62.730  1.00  0.00    -0.078 A  
ENDBRANCH  28  33
BRANCH  31  39
HETATM   39  C   UNL     1      -9.345  13.441  68.965  1.00  0.00     0.378 C  
HETATM   40  C   UNL     1     -11.130  15.167  68.511  1.00  0.00    -0.281 C  
HETATM   41  C   UNL     1      -9.762  15.751  68.446  1.00  0.00    -0.203 A  
HETATM   42  H   UNL     1     -12.555  13.012  68.073  1.00  0.00     0.000 HD 
HETATM   43  C   UNL     1     -10.887  13.708  68.953  1.00  0.00    -0.235 C  
HETATM   44  O   UNL     1     -11.618  12.849  68.080  1.00  0.00    -0.298 OA 
HETATM   45  C   UNL     1      -9.443  17.084  68.181  1.00  0.00    -0.262 A  
HETATM   46  C   UNL     1      -8.103  17.467  68.218  1.00  0.00    -0.249 A  
HETATM   47  C   UNL     1      -7.111  16.533  68.529  1.00  0.00    -0.164 A  
HETATM   48  C   UNL     1      -7.434  15.195  68.775  1.00  0.00    -0.132 A  
HETATM   49  C   UNL     1      -8.776  14.810  68.717  1.00  0.00    -0.178 A  
ENDBRANCH  31  39
ENDBRANCH  23  26
ENDBRANCH  22  23
ENDBRANCH  12  22
ENDBRANCH   6   9
TORSDOF 8
ENDMDL
MODEL      177
REMARK 921   NORMALIZED FREE ENERGY PREDICTED BY IDOCK:    1.91 KCAL/MOL
REMARK 922        TOTAL FREE ENERGY PREDICTED BY IDOCK:    0.84 KCAL/MOL
REMARK 923 INTER-LIGAND FREE ENERGY PREDICTED BY IDOCK:    0.82 KCAL/MOL
REMARK 924 INTRA-LIGAND FREE ENERGY PREDICTED BY IDOCK:    0.02 KCAL/MOL
REMARK 927      BINDING AFFINITY PREDICTED BY RF-SCORE:    0.00 PKD
ROOT
HETATM    1  C   UNL     1     -12.103  13.003  67.045  1.00  0.00    -0.330 C  
HETATM    2  C   UNL     1     -10.597  13.034  66.764  1.00  0.00    -0.262 C  
HETATM    3  N   UNL     1      -9.735  12.659  67.930  1.00  0.00    -0.210 N  
HETATM    4  C   UNL     1     -10.252  14.507  66.399  1.00  0.00    -0.293 C  
HETATM    5  C   UNL     1     -10.286  12.195  65.515  1.00  0.00    -0.294 C  
HETATM    6  C   UNL     1      -9.476  11.576  68.727  1.00  0.00    -0.089 C  
HETATM    7  H   UNL     1      -9.167  13.455  68.219  1.00  0.00     0.000 HD 
HETATM    8  O   UNL     1      -8.435  11.662  69.395  1.00  0.00     0.329 OA 
ENDROOT
BRANCH   6   9
HETATM    9  C   UNL     1     -10.389  10.349  68.893  1.00  0.00    -0.209 C  
HETATM   10  C   UNL     1     -10.019   9.289  70.005  1.00  0.00    -0.209 C  
HETATM   11  N   UNL     1     -11.198   8.427  70.340  1.00  0.00    -0.244 NA 
HETATM   12  N   UNL     1     -10.742   9.689  67.603  1.00  0.00    -0.279 NA 
HETATM   13  C   UNL     1     -11.883   7.952  69.105  1.00  0.00     1.469 C  
HETATM   14  C   UNL     1     -12.006   8.973  67.939  1.00  0.00     3.519 C  
BRANCH  11  15
HETATM   15  C   UNL     1     -10.858   7.233  71.150  1.00  0.00    -0.242 C  
BRANCH  15  16
HETATM   16  C   UNL     1      -9.807   7.387  72.222  1.00  0.00    -0.203 A  
HETATM   17  C   UNL     1      -8.759   6.476  72.317  1.00  0.00    -0.130 A  
HETATM   18  N   UNL     1      -7.855   6.442  73.327  1.00  0.00    -0.098 NA 
HETATM   19  C   UNL     1      -9.006   8.320  74.304  1.00  0.00     0.472 A  
HETATM   20  C   UNL     1      -8.003   7.365  74.299  1.00  0.00    -0.160 A  
HETATM   21  C   UNL     1      -9.921   8.327  73.249  1.00  0.00     0.015 A  
ENDBRANCH  15  16
ENDBRANCH  11  15
BRANCH  12  22
HETATM   22  C   UNL     1      -9.762   8.707  67.007  1.00  0.00    -0.201 C  
BRANCH  22  23
HETATM   23  C   UNL     1      -9.646   7.266  67.587  1.00  0.00    -0.135 C  
HETATM   24  O   UNL     1      -9.918   6.326  66.534  1.00  0.00    -0.244 OA 
HETATM   25  H   UNL     1      -9.848   5.447  66.888  1.00  0.00     0.000 HD 
BRANCH  23  26
HETATM   26  C   UNL     1      -8.244   6.799  68.076  1.00  0.00    -0.114 C  
HETATM   27  C   UNL     1      -6.952   7.207  67.324  1.00  0.00    -0.078 C  
HETATM   28  C   UNL     1      -5.713   6.973  68.257  1.00  0.00    -0.021 C  
HETATM   29  C   UNL     1      -6.787   6.373  66.036  1.00  0.00    -0.057 C  
HETATM   30  O   UNL     1      -7.286   5.259  65.903  1.00  0.00    -0.070 OA 
HETATM   31  N   UNL     1      -6.044   6.954  65.024  1.00  0.00    -0.036 N  
HETATM   32  H   UNL     1      -5.479   7.778  65.227  1.00  0.00     0.000 HD 
BRANCH  28  33
HETATM   33  C   UNL     1      -5.636   7.811  69.534  1.00  0.00    -0.023 A  
HETATM   34  C   UNL     1      -5.864   9.193  69.513  1.00  0.00    -0.033 A  
HETATM   35  C   UNL     1      -5.288   7.221  70.760  1.00  0.00    -0.024 A  
HETATM   36  C   UNL     1      -5.190   7.988  71.937  1.00  0.00    -0.035 A  
HETATM   37  C   UNL     1      -5.767   9.960  70.688  1.00  0.00    -0.071 A  
HETATM   38  C   UNL     1      -5.433   9.356  71.900  1.00  0.00    -0.076 A  
ENDBRANCH  28  33
BRANCH  31  39
HETATM   39  C   UNL     1      -6.054   6.402  63.652  1.00  0.00    -0.023 C  
HETATM   40  C   UNL     1      -8.148   5.604  62.490  1.00  0.00    -0.104 C  
HETATM   41  C   UNL     1      -7.352   4.472  63.041  1.00  0.00    -0.052 A  
HETATM   42  H   UNL     1      -8.835   8.106  62.852  1.00  0.00     0.000 HD 
HETATM   43  C   UNL     1      -7.274   6.843  62.776  1.00  0.00    -0.062 C  
HETATM   44  O   UNL     1      -8.095   7.838  63.385  1.00  0.00    -0.136 OA 
HETATM   45  C   UNL     1      -7.668   3.116  62.948  1.00  0.00    -0.066 A  
HETATM   46  C   UNL     1      -6.772   2.187  63.474  1.00  0.00    -0.030 A  
HETATM   47  C   UNL     1      -5.579   2.614  64.065  1.00  0.00    -0.009 A  
HETATM   48  C   UNL     1      -5.276   3.974  64.172  1.00  0.00    -0.009 A  
HETATM   49  C   UNL     1      -6.187   4.904  63.662  1.00  0.00    -0.022 A  
ENDBRANCH  31  39
ENDBRANCH  23  26
ENDBRANCH  22  23
ENDBRANCH  12  22
ENDBRANCH   6   9
TORSDOF 8
ENDMDL
MODEL      178
REMARK 921   NORMALIZED FREE ENERGY PREDICTED BY IDOCK:    2.06 KCAL/MOL
REMARK 922        TOTAL FREE ENERGY PREDICTED BY IDOCK:    1.05 KCAL/MOL
REMARK 923 INTER-LIGAND FREE ENERGY PREDICTED BY IDOCK:   -3.43 KCAL/MOL
REMARK 924 INTRA-LIGAND FREE ENERGY PREDICTED BY IDOCK:    4.49 KCAL/MOL
REMARK 927      BINDING AFFINITY PREDICTED BY RF-SCORE:    0.00 PKD
ROOT
HETATM    1  C   UNL     1     -11.281   8.623  67.020  1.00  0.00     0.918 C  
HETATM    2  C   UNL     1     -10.119   9.343  66.327  1.00  0.00    -0.258 C  
HETATM    3  N   UNL     1     -10.492  10.629  65.657  1.00  0.00    -0.207 N  
HETATM    4  C   UNL     1      -9.612   8.381  65.214  1.00  0.00     0.579 C  
HETATM    5  C   UNL     1      -8.954   9.515  67.313  1.00  0.00    -0.143 C  
HETATM    6  C   UNL     1     -10.957  11.876  65.981  1.00  0.00    -0.309 C  
HETATM    7  H   UNL     1     -10.359  10.553  64.648  1.00  0.00     0.000 HD 
HETATM    8  O   UNL     1     -10.826  12.726  65.088  1.00  0.00    -0.279 OA 
ENDROOT
BRANCH   6   9
HETATM    9  C   UNL     1     -11.663  12.252  67.295  1.00  0.00    -0.324 C  
HETATM   10  C   UNL     1     -11.650  13.769  67.741  1.00  0.00    -0.346 C  
HETATM   11  N   UNL     1     -12.719  14.040  68.755  1.00  0.00     0.490 NA 
HETATM   12  N   UNL     1     -11.332  11.346  68.432  1.00  0.00    -0.254 NA 
HETATM   13  C   UNL     1     -12.736  12.989  69.811  1.00  0.00     0.426 C  
HETATM   14  C   UNL     1     -12.499  11.525  69.343  1.00  0.00     0.061 C  
BRANCH  11  15
HETATM   15  C   UNL     1     -12.585  15.352  69.432  1.00  0.00     0.106 C  
BRANCH  15  16
HETATM   16  C   UNL     1     -12.609  15.370  70.941  1.00  0.00    -0.496 A  
HETATM   17  C   UNL     1     -13.820  15.342  71.627  1.00  0.00    -0.519 A  
HETATM   18  N   UNL     1     -13.951  15.504  72.967  1.00  0.00    -0.357 NA 
HETATM   19  C   UNL     1     -11.557  15.750  73.086  1.00  0.00    -0.230 A  
HETATM   20  C   UNL     1     -12.815  15.708  73.664  1.00  0.00    -0.574 A  
HETATM   21  C   UNL     1     -11.457  15.581  71.703  1.00  0.00    -0.496 A  
ENDBRANCH  15  16
ENDBRANCH  11  15
BRANCH  12  22
HETATM   22  C   UNL     1     -10.059  11.596  69.204  1.00  0.00     0.079 C  
BRANCH  22  23
HETATM   23  C   UNL     1      -8.938  12.491  68.597  1.00  0.00     0.046 C  
HETATM   24  O   UNL     1      -9.517  13.749  68.211  1.00  0.00    -0.207 OA 
HETATM   25  H   UNL     1      -8.833  14.295  67.840  1.00  0.00     0.000 HD 
BRANCH  23  26
HETATM   26  C   UNL     1      -7.791  12.947  69.545  1.00  0.00     0.960 C  
HETATM   27  C   UNL     1      -6.339  12.442  69.354  1.00  0.00    -0.119 C  
HETATM   28  C   UNL     1      -5.356  13.374  70.144  1.00  0.00    -0.105 C  
HETATM   29  C   UNL     1      -6.196  10.994  69.870  1.00  0.00    -0.127 C  
HETATM   30  O   UNL     1      -6.934  10.525  70.731  1.00  0.00    -0.263 OA 
HETATM   31  N   UNL     1      -5.185  10.240  69.301  1.00  0.00    -0.039 N  
HETATM   32  H   UNL     1      -4.468  10.704  68.743  1.00  0.00     0.000 HD 
BRANCH  28  33
HETATM   33  C   UNL     1      -5.264  14.832  69.691  1.00  0.00    -0.092 A  
HETATM   34  C   UNL     1      -5.274  15.883  70.617  1.00  0.00    -0.168 A  
HETATM   35  C   UNL     1      -5.212  15.157  68.327  1.00  0.00    -0.113 A  
HETATM   36  C   UNL     1      -5.153  16.498  67.898  1.00  0.00    -0.122 A  
HETATM   37  C   UNL     1      -5.214  17.223  70.190  1.00  0.00    -0.216 A  
HETATM   38  C   UNL     1      -5.150  17.528  68.831  1.00  0.00    -0.153 A  
ENDBRANCH  28  33
BRANCH  31  39
HETATM   39  C   UNL     1      -5.126   8.774  69.485  1.00  0.00    -0.031 C  
HETATM   40  C   UNL     1      -7.091   7.241  69.079  1.00  0.00    -0.080 C  
HETATM   41  C   UNL     1      -6.897   7.526  70.528  1.00  0.00    -0.047 A  
HETATM   42  H   UNL     1      -6.859   8.223  66.661  1.00  0.00     0.000 HD 
HETATM   43  C   UNL     1      -5.895   7.945  68.402  1.00  0.00    -0.036 C  
HETATM   44  O   UNL     1      -6.393   8.727  67.318  1.00  0.00    -0.055 OA 
HETATM   45  C   UNL     1      -7.668   7.027  71.579  1.00  0.00    -0.090 A  
HETATM   46  C   UNL     1      -7.303   7.354  72.884  1.00  0.00    -0.082 A  
HETATM   47  C   UNL     1      -6.180   8.152  73.125  1.00  0.00    -0.083 A  
HETATM   48  C   UNL     1      -5.423   8.664  72.067  1.00  0.00    -0.047 A  
HETATM   49  C   UNL     1      -5.803   8.351  70.759  1.00  0.00    -0.032 A  
ENDBRANCH  31  39
ENDBRANCH  23  26
ENDBRANCH  22  23
ENDBRANCH  12  22
ENDBRANCH   6   9
TORSDOF 8
ENDMDL
MODEL      179
REMARK 921   NORMALIZED FREE ENERGY PREDICTED BY IDOCK:    2.09 KCAL/MOL
REMARK 922        TOTAL FREE ENERGY PREDICTED BY IDOCK:    1.10 KCAL/MOL
REMARK 923 INTER-LIGAND FREE ENERGY PREDICTED BY IDOCK:   -7.47 KCAL/MOL
REMARK 924 INTRA-LIGAND FREE ENERGY PREDICTED BY IDOCK:    8.57 KCAL/MOL
REMARK 927      BINDING AFFINITY PREDICTED BY RF-SCORE:    0.00 PKD
ROOT
HETATM    1  C   UNL     1      -7.078   9.676  67.330  1.00  0.00    -0.086 C  
HETATM    2  C   UNL     1      -7.462   9.040  65.990  1.00  0.00    -0.094 C  
HETATM    3  N   UNL     1      -6.660   7.832  65.618  1.00  0.00    -0.045 N  
HETATM    4  C   UNL     1      -7.190  10.119  64.902  1.00  0.00    -0.131 C  
HETATM    5  C   UNL     1      -8.974   8.769  65.960  1.00  0.00    -0.235 C  
HETATM    6  C   UNL     1      -6.435   6.555  66.060  1.00  0.00    -0.043 C  
HETATM    7  H   UNL     1      -6.113   8.016  64.778  1.00  0.00     0.000 HD 
HETATM    8  O   UNL     1      -5.899   5.807  65.229  1.00  0.00    -0.023 OA 
ENDROOT
BRANCH   6   9
HETATM    9  C   UNL     1      -6.725   6.036  67.479  1.00  0.00    -0.058 C  
HETATM   10  C   UNL     1      -8.150   5.417  67.769  1.00  0.00    -0.100 C  
HETATM   11  N   UNL     1      -8.129   4.576  69.009  1.00  0.00    -0.073 NA 
HETATM   12  N   UNL     1      -6.309   6.979  68.556  1.00  0.00    -0.034 NA 
HETATM   13  C   UNL     1      -7.417   5.273  70.117  1.00  0.00    -0.068 C  
HETATM   14  C   UNL     1      -6.143   6.077  69.732  1.00  0.00    -0.026 C  
BRANCH  11  15
HETATM   15  C   UNL     1      -9.475   4.205  69.506  1.00  0.00    -0.184 C  
BRANCH  15  16
HETATM   16  C   UNL     1      -9.555   3.350  70.747  1.00  0.00    -0.236 A  
HETATM   17  C   UNL     1     -10.359   3.734  71.817  1.00  0.00     0.073 A  
HETATM   18  N   UNL     1     -10.384   3.117  73.024  1.00  0.00    -0.155 NA 
HETATM   19  C   UNL     1      -8.724   1.588  72.180  1.00  0.00    -0.071 A  
HETATM   20  C   UNL     1      -9.562   2.059  73.177  1.00  0.00    -0.077 A  
HETATM   21  C   UNL     1      -8.722   2.247  70.949  1.00  0.00    -0.115 A  
ENDBRANCH  15  16
ENDBRANCH  11  15
BRANCH  12  22
HETATM   22  C   UNL     1      -7.243   8.106  68.926  1.00  0.00    -0.078 C  
BRANCH  22  23
HETATM   23  C   UNL     1      -8.773   7.845  69.051  1.00  0.00    -0.138 C  
HETATM   24  O   UNL     1      -8.969   6.568  69.680  1.00  0.00    -0.140 OA 
HETATM   25  H   UNL     1      -9.903   6.409  69.756  1.00  0.00     0.000 HD 
BRANCH  23  26
HETATM   26  C   UNL     1      -9.588   8.787  69.985  1.00  0.00    -0.177 C  
HETATM   27  C   UNL     1     -10.652   9.760  69.418  1.00  0.00    -0.248 C  
HETATM   28  C   UNL     1     -11.588  10.241  70.581  1.00  0.00    -0.435 C  
HETATM   29  C   UNL     1      -9.976  10.984  68.766  1.00  0.00    -0.207 C  
HETATM   30  O   UNL     1      -8.857  11.370  69.091  1.00  0.00     0.021 OA 
HETATM   31  N   UNL     1     -10.700  11.629  67.779  1.00  0.00    -0.196 N  
HETATM   32  H   UNL     1     -11.692  11.418  67.668  1.00  0.00     0.000 HD 
BRANCH  28  33
HETATM   33  C   UNL     1     -12.442   9.178  71.273  1.00  0.00    -0.366 A  
HETATM   34  C   UNL     1     -12.133   7.816  71.169  1.00  0.00    -0.306 A  
HETATM   35  C   UNL     1     -13.589   9.539  71.997  1.00  0.00    -0.492 A  
HETATM   36  C   UNL     1     -14.396   8.565  72.617  1.00  0.00    -0.206 A  
HETATM   37  C   UNL     1     -12.938   6.843  71.788  1.00  0.00    -0.326 A  
HETATM   38  C   UNL     1     -14.067   7.219  72.515  1.00  0.00     0.301 A  
ENDBRANCH  28  33
BRANCH  31  39
HETATM   39  C   UNL     1     -10.064  12.616  66.882  1.00  0.00    -0.230 C  
HETATM   40  C   UNL     1     -11.184  14.758  66.152  1.00  0.00    -0.337 C  
HETATM   41  C   UNL     1     -11.253  13.706  65.100  1.00  0.00    -0.318 A  
HETATM   42  H   UNL     1     -11.162  15.193  68.736  1.00  0.00     0.000 HD 
HETATM   43  C   UNL     1     -10.327  14.112  67.261  1.00  0.00    -0.267 C  
HETATM   44  O   UNL     1     -11.002  14.285  68.505  1.00  0.00    -0.236 OA 
HETATM   45  C   UNL     1     -11.843  13.833  63.841  1.00  0.00    -0.368 A  
HETATM   46  C   UNL     1     -11.761  12.758  62.957  1.00  0.00     0.010 A  
HETATM   47  C   UNL     1     -11.089  11.590  63.327  1.00  0.00    -0.273 A  
HETATM   48  C   UNL     1     -10.517  11.461  64.596  1.00  0.00    -0.373 A  
HETATM   49  C   UNL     1     -10.618  12.533  65.487  1.00  0.00    -0.304 A  
ENDBRANCH  31  39
ENDBRANCH  23  26
ENDBRANCH  22  23
ENDBRANCH  12  22
ENDBRANCH   6   9
TORSDOF 8
ENDMDL
MODEL      180
REMARK 921   NORMALIZED FREE ENERGY PREDICTED BY IDOCK:    2.15 KCAL/MOL
REMARK 922        TOTAL FREE ENERGY PREDICTED BY IDOCK:    1.19 KCAL/MOL
REMARK 923 INTER-LIGAND FREE ENERGY PREDICTED BY IDOCK:    1.51 KCAL/MOL
REMARK 924 INTRA-LIGAND FREE ENERGY PREDICTED BY IDOCK:   -0.32 KCAL/MOL
REMARK 927      BINDING AFFINITY PREDICTED BY RF-SCORE:    0.00 PKD
ROOT
HETATM    1  C   UNL     1     -12.258  16.337  68.512  1.00  0.00     0.699 C  
HETATM    2  C   UNL     1     -11.160  16.671  67.496  1.00  0.00    -0.055 C  
HETATM    3  N   UNL     1      -9.922  15.838  67.617  1.00  0.00    -0.237 N  
HETATM    4  C   UNL     1     -10.746  18.145  67.772  1.00  0.00    -0.355 C  
HETATM    5  C   UNL     1     -11.744  16.645  66.075  1.00  0.00     1.483 C  
HETATM    6  C   UNL     1      -9.527  14.534  67.483  1.00  0.00    -0.203 C  
HETATM    7  H   UNL     1      -9.128  16.422  67.880  1.00  0.00     0.000 HD 
HETATM    8  O   UNL     1      -8.301  14.370  67.392  1.00  0.00    -0.176 OA 
ENDROOT
BRANCH   6   9
HETATM    9  C   UNL     1     -10.460  13.310  67.510  1.00  0.00    -0.235 C  
HETATM   10  C   UNL     1     -11.379  13.101  68.779  1.00  0.00    -0.291 C  
HETATM   11  N   UNL     1     -12.511  12.167  68.475  1.00  0.00     0.120 NA 
HETATM   12  N   UNL     1      -9.791  12.041  67.104  1.00  0.00    -0.195 NA 
HETATM   13  C   UNL     1     -12.030  10.964  67.739  1.00  0.00     0.459 C  
HETATM   14  C   UNL     1     -10.937  11.197  66.658  1.00  0.00    -0.228 C  
BRANCH  11  15
HETATM   15  C   UNL     1     -13.239  11.696  69.677  1.00  0.00     1.597 C  
BRANCH  15  16
HETATM   16  C   UNL     1     -13.285  12.611  70.875  1.00  0.00     0.214 A  
HETATM   17  C   UNL     1     -13.914  12.205  72.049  1.00  0.00     0.419 A  
HETATM   18  N   UNL     1     -14.137  13.004  73.121  1.00  0.00     0.668 NA 
HETATM   19  C   UNL     1     -13.073  14.790  71.904  1.00  0.00    -0.419 A  
HETATM   20  C   UNL     1     -13.713  14.280  73.021  1.00  0.00     0.058 A  
HETATM   21  C   UNL     1     -12.860  13.941  70.815  1.00  0.00    -0.329 A  
ENDBRANCH  15  16
ENDBRANCH  11  15
BRANCH  12  22
HETATM   22  C   UNL     1      -8.995  11.284  68.140  1.00  0.00    -0.166 C  
BRANCH  22  23
HETATM   23  C   UNL     1      -8.804   9.744  68.009  1.00  0.00    -0.119 C  
HETATM   24  O   UNL     1      -7.684   9.495  67.144  1.00  0.00    -0.091 OA 
HETATM   25  H   UNL     1      -7.567   8.555  67.063  1.00  0.00     0.000 HD 
BRANCH  23  26
HETATM   26  C   UNL     1      -8.396   8.960  69.290  1.00  0.00    -0.119 C  
HETATM   27  C   UNL     1      -8.052   9.695  70.610  1.00  0.00    -0.068 C  
HETATM   28  C   UNL     1      -8.109   8.677  71.802  1.00  0.00    -0.170 C  
HETATM   29  C   UNL     1      -6.641  10.316  70.534  1.00  0.00    -0.091 C  
HETATM   30  O   UNL     1      -5.766   9.875  69.795  1.00  0.00    -0.036 OA 
HETATM   31  N   UNL     1      -6.411  11.411  71.347  1.00  0.00     0.937 N  
HETATM   32  H   UNL     1      -7.075  11.632  72.089  1.00  0.00     0.000 HD 
BRANCH  28  33
HETATM   33  C   UNL     1      -9.467   8.047  72.114  1.00  0.00    -0.264 A  
HETATM   34  C   UNL     1     -10.610   8.835  72.296  1.00  0.00    -0.319 A  
HETATM   35  C   UNL     1      -9.593   6.657  72.272  1.00  0.00    -0.150 A  
HETATM   36  C   UNL     1     -10.834   6.069  72.584  1.00  0.00    -0.280 A  
HETATM   37  C   UNL     1     -11.851   8.248  72.607  1.00  0.00    -0.382 A  
HETATM   38  C   UNL     1     -11.961   6.865  72.748  1.00  0.00     0.137 A  
ENDBRANCH  28  33
BRANCH  31  39
HETATM   39  C   UNL     1      -5.221  12.268  71.160  1.00  0.00    -0.130 C  
HETATM   40  C   UNL     1      -5.282  14.787  71.318  1.00  0.00    -0.139 C  
HETATM   41  C   UNL     1      -5.283  14.318  69.905  1.00  0.00    -0.093 A  
HETATM   42  H   UNL     1      -6.068  14.226  73.754  1.00  0.00     0.000 HD 
HETATM   43  C   UNL     1      -5.130  13.488  72.137  1.00  0.00    -0.156 C  
HETATM   44  O   UNL     1      -6.124  13.486  73.161  1.00  0.00     0.103 OA 
HETATM   45  C   UNL     1      -5.304  15.124  68.766  1.00  0.00    -0.091 A  
HETATM   46  C   UNL     1      -5.242  14.510  67.516  1.00  0.00     0.216 A  
HETATM   47  C   UNL     1      -5.144  13.119  67.417  1.00  0.00     0.118 A  
HETATM   48  C   UNL     1      -5.143  12.316  68.560  1.00  0.00    -0.051 A  
HETATM   49  C   UNL     1      -5.227  12.933  69.812  1.00  0.00    -0.082 A  
ENDBRANCH  31  39
ENDBRANCH  23  26
ENDBRANCH  22  23
ENDBRANCH  12  22
ENDBRANCH   6   9
TORSDOF 8
ENDMDL
MODEL      181
REMARK 921   NORMALIZED FREE ENERGY PREDICTED BY IDOCK:    2.28 KCAL/MOL
REMARK 922        TOTAL FREE ENERGY PREDICTED BY IDOCK:    1.39 KCAL/MOL
REMARK 923 INTER-LIGAND FREE ENERGY PREDICTED BY IDOCK:   -0.25 KCAL/MOL
REMARK 924 INTRA-LIGAND FREE ENERGY PREDICTED BY IDOCK:    1.64 KCAL/MOL
REMARK 927      BINDING AFFINITY PREDICTED BY RF-SCORE:    0.00 PKD
ROOT
HETATM    1  C   UNL     1      -8.415  19.454  68.727  1.00  0.00    -0.377 C  
HETATM    2  C   UNL     1      -9.658  19.382  67.834  1.00  0.00    -0.343 C  
HETATM    3  N   UNL     1      -9.837  18.081  67.115  1.00  0.00    -0.304 N  
HETATM    4  C   UNL     1      -9.477  20.481  66.747  1.00  0.00    -0.420 C  
HETATM    5  C   UNL     1     -10.902  19.777  68.644  1.00  0.00     0.427 C  
HETATM    6  C   UNL     1     -10.069  16.760  67.395  1.00  0.00    -0.276 C  
HETATM    7  H   UNL     1      -9.763  18.221  66.108  1.00  0.00     0.000 HD 
HETATM    8  O   UNL     1     -10.446  16.084  66.426  1.00  0.00    -0.301 OA 
ENDROOT
BRANCH   6   9
HETATM    9  C   UNL     1      -9.832  16.080  68.754  1.00  0.00    -0.223 C  
HETATM   10  C   UNL     1      -8.419  15.425  69.024  1.00  0.00    -0.229 C  
HETATM   11  N   UNL     1      -8.195  15.214  70.491  1.00  0.00     0.993 NA 
HETATM   12  N   UNL     1     -10.942  15.175  69.170  1.00  0.00    -0.246 NA 
HETATM   13  C   UNL     1      -9.395  14.608  71.134  1.00  0.00     3.350 C  
HETATM   14  C   UNL     1     -10.781  15.122  70.652  1.00  0.00    -0.121 C  
BRANCH  11  15
HETATM   15  C   UNL     1      -7.034  14.347  70.802  1.00  0.00     0.702 C  
BRANCH  15  16
HETATM   16  C   UNL     1      -6.327  13.679  69.650  1.00  0.00    -0.110 A  
HETATM   17  C   UNL     1      -5.711  14.443  68.662  1.00  0.00    -0.088 A  
HETATM   18  N   UNL     1      -5.182  13.943  67.517  1.00  0.00    -0.335 NA 
HETATM   19  C   UNL     1      -5.860  11.754  68.261  1.00  0.00    -0.049 A  
HETATM   20  C   UNL     1      -5.273  12.609  67.343  1.00  0.00    -0.043 A  
HETATM   21  C   UNL     1      -6.396  12.301  69.429  1.00  0.00    -0.118 A  
ENDBRANCH  15  16
ENDBRANCH  11  15
BRANCH  12  22
HETATM   22  C   UNL     1     -10.966  13.768  68.624  1.00  0.00    -0.266 C  
BRANCH  22  23
HETATM   23  C   UNL     1     -12.091  12.781  69.055  1.00  0.00    -0.144 C  
HETATM   24  O   UNL     1     -13.205  12.939  68.160  1.00  0.00     1.896 OA 
HETATM   25  H   UNL     1     -13.892  12.336  68.422  1.00  0.00     0.000 HD 
BRANCH  23  26
HETATM   26  C   UNL     1     -11.797  11.257  68.928  1.00  0.00    -0.413 C  
HETATM   27  C   UNL     1     -10.371  10.735  68.620  1.00  0.00    -0.208 C  
HETATM   28  C   UNL     1     -10.287   9.210  68.978  1.00  0.00    -0.229 C  
HETATM   29  C   UNL     1     -10.032  10.929  67.127  1.00  0.00    -0.189 C  
HETATM   30  O   UNL     1     -10.896  10.995  66.258  1.00  0.00    -0.247 OA 
HETATM   31  N   UNL     1      -8.688  11.034  66.814  1.00  0.00    -0.148 N  
HETATM   32  H   UNL     1      -7.991  10.779  67.513  1.00  0.00     0.000 HD 
BRANCH  28  33
HETATM   33  C   UNL     1     -10.473   8.829  70.447  1.00  0.00    -0.240 A  
HETATM   34  C   UNL     1      -9.423   8.278  71.194  1.00  0.00    -0.206 A  
HETATM   35  C   UNL     1     -11.718   8.981  71.076  1.00  0.00    -0.353 A  
HETATM   36  C   UNL     1     -11.906   8.610  72.422  1.00  0.00    -0.402 A  
HETATM   37  C   UNL     1      -9.610   7.907  72.538  1.00  0.00    -0.278 A  
HETATM   38  C   UNL     1     -10.851   8.077  73.152  1.00  0.00    -0.193 A  
ENDBRANCH  28  33
BRANCH  31  39
HETATM   39  C   UNL     1      -8.246  11.510  65.486  1.00  0.00     0.428 C  
HETATM   40  C   UNL     1      -9.827  11.949  63.568  1.00  0.00    -0.359 C  
HETATM   41  C   UNL     1      -9.138  10.636  63.432  1.00  0.00    -0.253 A  
HETATM   42  H   UNL     1     -10.798  13.684  65.275  1.00  0.00     0.000 HD 
HETATM   43  C   UNL     1      -9.184  12.574  64.824  1.00  0.00     0.699 C  
HETATM   44  O   UNL     1     -10.229  13.037  65.677  1.00  0.00    -0.282 OA 
HETATM   45  C   UNL     1      -9.298   9.722  62.389  1.00  0.00    -0.223 A  
HETATM   46  C   UNL     1      -8.523   8.563  62.397  1.00  0.00    -0.174 A  
HETATM   47  C   UNL     1      -7.599   8.338  63.421  1.00  0.00    -0.131 A  
HETATM   48  C   UNL     1      -7.457   9.248  64.473  1.00  0.00    -0.102 A  
HETATM   49  C   UNL     1      -8.250  10.399  64.473  1.00  0.00    -0.131 A  
ENDBRANCH  31  39
ENDBRANCH  23  26
ENDBRANCH  22  23
ENDBRANCH  12  22
ENDBRANCH   6   9
TORSDOF 8
ENDMDL
MODEL      182
REMARK 921   NORMALIZED FREE ENERGY PREDICTED BY IDOCK:    2.32 KCAL/MOL
REMARK 922        TOTAL FREE ENERGY PREDICTED BY IDOCK:    1.44 KCAL/MOL
REMARK 923 INTER-LIGAND FREE ENERGY PREDICTED BY IDOCK:   -4.39 KCAL/MOL
REMARK 924 INTRA-LIGAND FREE ENERGY PREDICTED BY IDOCK:    5.83 KCAL/MOL
REMARK 927      BINDING AFFINITY PREDICTED BY RF-SCORE:    0.00 PKD
ROOT
HETATM    1  C   UNL     1     -13.080   9.056  70.298  1.00  0.00     1.089 C  
HETATM    2  C   UNL     1     -12.933   8.675  71.774  1.00  0.00    -0.359 C  
HETATM    3  N   UNL     1     -12.633   7.228  72.019  1.00  0.00    -0.474 N  
HETATM    4  C   UNL     1     -14.307   8.973  72.440  1.00  0.00    -0.325 C  
HETATM    5  C   UNL     1     -11.914   9.605  72.450  1.00  0.00     0.381 C  
HETATM    6  C   UNL     1     -11.643   6.314  71.775  1.00  0.00    -0.304 C  
HETATM    7  H   UNL     1     -13.403   6.789  72.523  1.00  0.00     0.000 HD 
HETATM    8  O   UNL     1     -11.717   5.277  72.451  1.00  0.00    -0.120 OA 
ENDROOT
BRANCH   6   9
HETATM    9  C   UNL     1     -10.539   6.455  70.713  1.00  0.00    -0.238 C  
HETATM   10  C   UNL     1      -9.035   6.486  71.200  1.00  0.00    -0.145 C  
HETATM   11  N   UNL     1      -8.098   6.180  70.071  1.00  0.00    -0.117 NA 
HETATM   12  N   UNL     1     -10.810   7.522  69.708  1.00  0.00    -0.245 NA 
HETATM   13  C   UNL     1      -8.465   6.945  68.847  1.00  0.00    -0.125 C  
HETATM   14  C   UNL     1      -9.983   7.092  68.544  1.00  0.00    -0.155 C  
BRANCH  11  15
HETATM   15  C   UNL     1      -6.677   6.474  70.374  1.00  0.00    -0.053 C  
BRANCH  15  16
HETATM   16  C   UNL     1      -6.210   6.292  71.797  1.00  0.00    -0.042 A  
HETATM   17  C   UNL     1      -6.374   5.069  72.442  1.00  0.00    -0.031 A  
HETATM   18  N   UNL     1      -6.124   4.850  73.756  1.00  0.00    -0.036 NA 
HETATM   19  C   UNL     1      -5.487   7.166  73.933  1.00  0.00    -0.050 A  
HETATM   20  C   UNL     1      -5.690   5.907  74.472  1.00  0.00    -0.054 A  
HETATM   21  C   UNL     1      -5.755   7.359  72.576  1.00  0.00    -0.037 A  
ENDBRANCH  15  16
ENDBRANCH  11  15
BRANCH  12  22
HETATM   22  C   UNL     1     -10.461   8.948  70.061  1.00  0.00    -0.213 C  
BRANCH  22  23
HETATM   23  C   UNL     1      -9.467   9.754  69.173  1.00  0.00    -0.188 C  
HETATM   24  O   UNL     1      -8.176   9.126  69.248  1.00  0.00    -0.111 OA 
HETATM   25  H   UNL     1      -7.569   9.617  68.707  1.00  0.00     0.000 HD 
BRANCH  23  26
HETATM   26  C   UNL     1      -9.723   9.768  67.638  1.00  0.00    -0.186 C  
HETATM   27  C   UNL     1      -9.413  11.021  66.781  1.00  0.00    -0.203 C  
HETATM   28  C   UNL     1      -9.353  10.614  65.268  1.00  0.00    -0.256 C  
HETATM   29  C   UNL     1     -10.502  12.097  66.978  1.00  0.00    -0.220 C  
HETATM   30  O   UNL     1     -11.647  11.820  67.327  1.00  0.00    -0.461 OA 
HETATM   31  N   UNL     1     -10.118  13.405  66.747  1.00  0.00    -0.254 N  
HETATM   32  H   UNL     1      -9.235  13.590  66.271  1.00  0.00     0.000 HD 
BRANCH  28  33
HETATM   33  C   UNL     1      -8.248   9.643  64.852  1.00  0.00    -0.143 A  
HETATM   34  C   UNL     1      -8.470   8.661  63.878  1.00  0.00    -0.075 A  
HETATM   35  C   UNL     1      -6.988   9.682  65.470  1.00  0.00    -0.093 A  
HETATM   36  C   UNL     1      -5.971   8.776  65.111  1.00  0.00    -0.055 A  
HETATM   37  C   UNL     1      -7.454   7.756  63.519  1.00  0.00    -0.115 A  
HETATM   38  C   UNL     1      -6.205   7.817  64.134  1.00  0.00    -0.056 A  
ENDBRANCH  28  33
BRANCH  31  39
HETATM   39  C   UNL     1     -10.962  14.540  67.176  1.00  0.00    -0.304 C  
HETATM   40  C   UNL     1     -12.238  16.011  65.569  1.00  0.00     1.469 C  
HETATM   41  C   UNL     1     -10.976  16.653  66.030  1.00  0.00     0.085 A  
HETATM   42  H   UNL     1     -13.383  13.725  64.995  1.00  0.00     0.000 HD 
HETATM   43  C   UNL     1     -12.301  14.700  66.381  1.00  0.00    -0.047 C  
HETATM   44  O   UNL     1     -12.571  13.629  65.478  1.00  0.00    -0.477 OA 
HETATM   45  C   UNL     1     -10.508  17.916  65.662  1.00  0.00    -0.105 A  
HETATM   46  C   UNL     1      -9.329  18.383  66.242  1.00  0.00    -0.231 A  
HETATM   47  C   UNL     1      -8.647  17.603  67.181  1.00  0.00    -0.238 A  
HETATM   48  C   UNL     1      -9.110  16.331  67.531  1.00  0.00    -0.196 A  
HETATM   49  C   UNL     1     -10.282  15.858  66.933  1.00  0.00    -0.277 A  
ENDBRANCH  31  39
ENDBRANCH  23  26
ENDBRANCH  22  23
ENDBRANCH  12  22
ENDBRANCH   6   9
TORSDOF 8
ENDMDL
MODEL      183
REMARK 921   NORMALIZED FREE ENERGY PREDICTED BY IDOCK:    2.42 KCAL/MOL
REMARK 922        TOTAL FREE ENERGY PREDICTED BY IDOCK:    1.58 KCAL/MOL
REMARK 923 INTER-LIGAND FREE ENERGY PREDICTED BY IDOCK:   -1.66 KCAL/MOL
REMARK 924 INTRA-LIGAND FREE ENERGY PREDICTED BY IDOCK:    3.24 KCAL/MOL
REMARK 927      BINDING AFFINITY PREDICTED BY RF-SCORE:    0.00 PKD
ROOT
HETATM    1  C   UNL     1     -11.910   6.531  68.743  1.00  0.00     0.722 C  
HETATM    2  C   UNL     1     -10.686   6.932  67.914  1.00  0.00    -0.232 C  
HETATM    3  N   UNL     1     -10.908   8.090  66.990  1.00  0.00    -0.437 N  
HETATM    4  C   UNL     1     -10.339   5.702  67.026  1.00  0.00    -0.306 C  
HETATM    5  C   UNL     1      -9.481   7.149  68.841  1.00  0.00    -0.142 C  
HETATM    6  C   UNL     1     -11.199   9.427  67.047  1.00  0.00     0.660 C  
HETATM    7  H   UNL     1     -10.815   7.790  66.020  1.00  0.00     0.000 HD 
HETATM    8  O   UNL     1     -10.985  10.049  65.996  1.00  0.00     0.183 OA 
ENDROOT
BRANCH   6   9
HETATM    9  C   UNL     1     -11.813  10.157  68.254  1.00  0.00     0.680 C  
HETATM   10  C   UNL     1     -11.771  11.737  68.270  1.00  0.00    -0.310 C  
HETATM   11  N   UNL     1     -12.768  12.291  69.242  1.00  0.00     0.578 NA 
HETATM   12  N   UNL     1     -11.404   9.585  69.569  1.00  0.00    -0.069 NA 
HETATM   13  C   UNL     1     -12.711  11.565  70.542  1.00  0.00    -0.110 C  
HETATM   14  C   UNL     1     -12.505  10.025  70.473  1.00  0.00    -0.176 C  
BRANCH  11  15
HETATM   15  C   UNL     1     -12.589  13.735  69.528  1.00  0.00     0.102 C  
BRANCH  15  16
HETATM   16  C   UNL     1     -11.546  14.484  68.736  1.00  0.00    -0.343 A  
HETATM   17  C   UNL     1     -10.460  15.072  69.379  1.00  0.00    -0.247 A  
HETATM   18  N   UNL     1      -9.556  15.885  68.780  1.00  0.00    -0.208 NA 
HETATM   19  C   UNL     1     -10.784  15.596  66.728  1.00  0.00    -0.300 A  
HETATM   20  C   UNL     1      -9.743  16.131  67.467  1.00  0.00    -0.233 A  
HETATM   21  C   UNL     1     -11.699  14.763  67.375  1.00  0.00    -0.371 A  
ENDBRANCH  15  16
ENDBRANCH  11  15
BRANCH  12  22
HETATM   22  C   UNL     1     -10.081  10.013  70.158  1.00  0.00    -0.211 C  
BRANCH  22  23
HETATM   23  C   UNL     1      -8.989  10.652  69.250  1.00  0.00    -0.082 C  
HETATM   24  O   UNL     1      -9.525  11.851  68.666  1.00  0.00    -0.317 OA 
HETATM   25  H   UNL     1      -8.859  12.241  68.111  1.00  0.00     0.000 HD 
BRANCH  23  26
HETATM   26  C   UNL     1      -7.701  11.185  69.941  1.00  0.00     0.603 C  
HETATM   27  C   UNL     1      -6.303  10.614  69.590  1.00  0.00    -0.085 C  
HETATM   28  C   UNL     1      -5.196  11.605  70.093  1.00  0.00    -0.087 C  
HETATM   29  C   UNL     1      -6.097   9.236  70.255  1.00  0.00    -0.043 C  
HETATM   30  O   UNL     1      -6.694   8.899  71.273  1.00  0.00    -0.071 OA 
HETATM   31  N   UNL     1      -5.199   8.387  69.634  1.00  0.00    -0.029 N  
HETATM   32  H   UNL     1      -4.574   8.757  68.917  1.00  0.00     0.000 HD 
BRANCH  28  33
HETATM   33  C   UNL     1      -5.161  12.993  69.452  1.00  0.00    -0.075 A  
HETATM   34  C   UNL     1      -5.161  14.155  70.233  1.00  0.00    -0.091 A  
HETATM   35  C   UNL     1      -5.173  13.138  68.055  1.00  0.00    -0.104 A  
HETATM   36  C   UNL     1      -5.166  14.412  67.455  1.00  0.00     0.224 A  
HETATM   37  C   UNL     1      -5.153  15.429  69.634  1.00  0.00    -0.095 A  
HETATM   38  C   UNL     1      -5.153  15.555  68.245  1.00  0.00    -0.107 A  
ENDBRANCH  28  33
BRANCH  31  39
HETATM   39  C   UNL     1      -5.128   6.954  69.989  1.00  0.00    -0.015 C  
HETATM   40  C   UNL     1      -7.116   5.400  69.904  1.00  0.00    -0.062 C  
HETATM   41  C   UNL     1      -6.824   5.855  71.292  1.00  0.00    -0.066 A  
HETATM   42  H   UNL     1      -7.049   6.082  67.375  1.00  0.00     0.000 HD 
HETATM   43  C   UNL     1      -5.969   6.007  69.069  1.00  0.00    -0.024 C  
HETATM   44  O   UNL     1      -6.539   6.657  67.934  1.00  0.00    -0.053 OA 
HETATM   45  C   UNL     1      -7.522   5.494  72.445  1.00  0.00    -0.096 A  
HETATM   46  C   UNL     1      -7.069   5.972  73.674  1.00  0.00    -0.081 A  
HETATM   47  C   UNL     1      -5.932   6.783  73.740  1.00  0.00    -0.062 A  
HETATM   48  C   UNL     1      -5.249   7.158  72.580  1.00  0.00    -0.037 A  
HETATM   49  C   UNL     1      -5.717   6.693  71.347  1.00  0.00    -0.032 A  
ENDBRANCH  31  39
ENDBRANCH  23  26
ENDBRANCH  22  23
ENDBRANCH  12  22
ENDBRANCH   6   9
TORSDOF 8
ENDMDL
MODEL      184
REMARK 921   NORMALIZED FREE ENERGY PREDICTED BY IDOCK:    2.84 KCAL/MOL
REMARK 922        TOTAL FREE ENERGY PREDICTED BY IDOCK:    2.21 KCAL/MOL
REMARK 923 INTER-LIGAND FREE ENERGY PREDICTED BY IDOCK:   -1.09 KCAL/MOL
REMARK 924 INTRA-LIGAND FREE ENERGY PREDICTED BY IDOCK:    3.30 KCAL/MOL
REMARK 927      BINDING AFFINITY PREDICTED BY RF-SCORE:    0.00 PKD
ROOT
HETATM    1  C   UNL     1     -10.645  12.482  65.622  1.00  0.00    -0.298 C  
HETATM    2  C   UNL     1     -10.751  12.123  64.137  1.00  0.00    -0.360 C  
HETATM    3  N   UNL     1      -9.454  12.163  63.390  1.00  0.00    -0.479 N  
HETATM    4  C   UNL     1     -11.678  13.195  63.494  1.00  0.00    -0.472 C  
HETATM    5  C   UNL     1     -11.474  10.777  63.979  1.00  0.00     1.202 C  
HETATM    6  C   UNL     1      -8.245  11.521  63.369  1.00  0.00     0.882 C  
HETATM    7  H   UNL     1      -9.479  12.893  62.678  1.00  0.00     0.000 HD 
HETATM    8  O   UNL     1      -7.574  11.713  62.344  1.00  0.00     0.115 OA 
ENDROOT
BRANCH   6   9
HETATM    9  C   UNL     1      -7.662  10.675  64.515  1.00  0.00     0.135 C  
HETATM   10  C   UNL     1      -8.644   9.736  65.322  1.00  0.00    -0.153 C  
HETATM   11  N   UNL     1      -7.886   8.681  66.069  1.00  0.00    -0.099 NA 
HETATM   12  N   UNL     1      -6.765  11.441  65.426  1.00  0.00     0.646 NA 
HETATM   13  C   UNL     1      -6.715   9.265  66.781  1.00  0.00    -0.076 C  
HETATM   14  C   UNL     1      -5.920  10.370  66.029  1.00  0.00    -0.096 C  
BRANCH  11  15
HETATM   15  C   UNL     1      -8.701   7.952  67.071  1.00  0.00    -0.129 C  
BRANCH  15  16
HETATM   16  C   UNL     1      -7.981   7.315  68.233  1.00  0.00    -0.124 A  
HETATM   17  C   UNL     1      -7.565   5.988  68.163  1.00  0.00    -0.094 A  
HETATM   18  N   UNL     1      -7.048   5.286  69.201  1.00  0.00    -0.056 NA 
HETATM   19  C   UNL     1      -7.316   7.258  70.558  1.00  0.00    -0.074 A  
HETATM   20  C   UNL     1      -6.939   5.938  70.376  1.00  0.00    -0.058 A  
HETATM   21  C   UNL     1      -7.847   7.953  69.469  1.00  0.00    -0.110 A  
ENDBRANCH  15  16
ENDBRANCH  11  15
BRANCH  12  22
HETATM   22  C   UNL     1      -7.391  12.257  66.532  1.00  0.00     0.459 C  
BRANCH  22  23
HETATM   23  C   UNL     1      -7.429  11.704  67.987  1.00  0.00    -0.100 C  
HETATM   24  O   UNL     1      -6.170  11.988  68.618  1.00  0.00    -0.051 OA 
HETATM   25  H   UNL     1      -6.193  11.651  69.506  1.00  0.00     0.000 HD 
BRANCH  23  26
HETATM   26  C   UNL     1      -8.435  12.359  68.978  1.00  0.00     0.420 C  
HETATM   27  C   UNL     1      -9.401  13.482  68.521  1.00  0.00    -0.108 C  
HETATM   28  C   UNL     1     -10.556  13.634  69.571  1.00  0.00     0.211 C  
HETATM   29  C   UNL     1      -8.650  14.823  68.388  1.00  0.00    -0.166 C  
HETATM   30  O   UNL     1      -7.626  15.071  69.017  1.00  0.00    -0.136 OA 
HETATM   31  N   UNL     1      -9.192  15.742  67.507  1.00  0.00    -0.203 N  
HETATM   32  H   UNL     1     -10.138  15.598  67.153  1.00  0.00     0.000 HD 
BRANCH  28  33
HETATM   33  C   UNL     1     -11.493  12.440  69.753  1.00  0.00    -0.220 A  
HETATM   34  C   UNL     1     -12.218  12.257  70.938  1.00  0.00    -0.296 A  
HETATM   35  C   UNL     1     -11.619  11.467  68.749  1.00  0.00    -0.378 A  
HETATM   36  C   UNL     1     -12.461  10.351  68.916  1.00  0.00     0.912 A  
HETATM   37  C   UNL     1     -13.059  11.142  71.106  1.00  0.00    -0.284 A  
HETATM   38  C   UNL     1     -13.182  10.192  70.093  1.00  0.00     0.296 A  
ENDBRANCH  28  33
BRANCH  31  39
HETATM   39  C   UNL     1      -8.427  16.929  67.070  1.00  0.00    -0.203 C  
HETATM   40  C   UNL     1      -8.123  18.991  68.494  1.00  0.00    -0.385 C  
HETATM   41  C   UNL     1      -9.182  19.177  67.464  1.00  0.00    -0.344 A  
HETATM   42  H   UNL     1      -6.969  17.252  70.078  1.00  0.00     0.000 HD 
HETATM   43  C   UNL     1      -7.550  17.591  68.185  1.00  0.00    -0.221 C  
HETATM   44  O   UNL     1      -7.501  16.850  69.402  1.00  0.00    -0.180 OA 
HETATM   45  C   UNL     1      -9.939  20.331  67.256  1.00  0.00    -0.580 A  
HETATM   46  C   UNL     1     -10.850  20.346  66.200  1.00  0.00     0.270 A  
HETATM   47  C   UNL     1     -10.983  19.232  65.366  1.00  0.00     0.157 A  
HETATM   48  C   UNL     1     -10.235  18.073  65.591  1.00  0.00     0.033 A  
HETATM   49  C   UNL     1      -9.337  18.053  66.662  1.00  0.00    -0.297 A  
ENDBRANCH  31  39
ENDBRANCH  23  26
ENDBRANCH  22  23
ENDBRANCH  12  22
ENDBRANCH   6   9
TORSDOF 8
ENDMDL
MODEL      185
REMARK 921   NORMALIZED FREE ENERGY PREDICTED BY IDOCK:    2.98 KCAL/MOL
REMARK 922        TOTAL FREE ENERGY PREDICTED BY IDOCK:    2.41 KCAL/MOL
REMARK 923 INTER-LIGAND FREE ENERGY PREDICTED BY IDOCK:    1.91 KCAL/MOL
REMARK 924 INTRA-LIGAND FREE ENERGY PREDICTED BY IDOCK:    0.50 KCAL/MOL
REMARK 927      BINDING AFFINITY PREDICTED BY RF-SCORE:    0.00 PKD
ROOT
HETATM    1  C   UNL     1      -7.310   9.016  64.724  1.00  0.00    -0.100 C  
HETATM    2  C   UNL     1      -5.832   9.116  65.112  1.00  0.00    -0.058 C  
HETATM    3  N   UNL     1      -5.583   9.597  66.508  1.00  0.00    -0.048 N  
HETATM    4  C   UNL     1      -5.198  10.163  64.151  1.00  0.00    -0.108 C  
HETATM    5  C   UNL     1      -5.128   7.781  64.821  1.00  0.00    -0.029 C  
HETATM    6  C   UNL     1      -5.806   9.202  67.801  1.00  0.00    -0.042 C  
HETATM    7  H   UNL     1      -5.099  10.494  66.492  1.00  0.00     0.000 HD 
HETATM    8  O   UNL     1      -5.135   9.807  68.650  1.00  0.00    -0.034 OA 
ENDROOT
BRANCH   6   9
HETATM    9  C   UNL     1      -6.841   8.156  68.250  1.00  0.00    -0.069 C  
HETATM   10  C   UNL     1      -7.473   7.212  67.151  1.00  0.00    -0.098 C  
HETATM   11  N   UNL     1      -8.091   5.998  67.774  1.00  0.00    -0.108 NA 
HETATM   12  N   UNL     1      -7.883   8.701  69.167  1.00  0.00    -0.097 NA 
HETATM   13  C   UNL     1      -8.919   6.365  68.958  1.00  0.00    -0.128 C  
HETATM   14  C   UNL     1      -8.358   7.482  69.882  1.00  0.00    -0.133 C  
BRANCH  11  15
HETATM   15  C   UNL     1      -8.950   5.220  66.851  1.00  0.00    -0.109 C  
BRANCH  15  16
HETATM   16  C   UNL     1      -8.363   3.982  66.219  1.00  0.00    -0.105 A  
HETATM   17  C   UNL     1      -8.420   2.758  66.881  1.00  0.00    -0.100 A  
HETATM   18  N   UNL     1      -7.796   1.627  66.468  1.00  0.00    -0.069 NA 
HETATM   19  C   UNL     1      -6.948   2.883  64.594  1.00  0.00    -0.049 A  
HETATM   20  C   UNL     1      -7.071   1.719  65.334  1.00  0.00    -0.051 A  
HETATM   21  C   UNL     1      -7.603   4.030  65.048  1.00  0.00    -0.077 A  
ENDBRANCH  15  16
ENDBRANCH  11  15
BRANCH  12  22
HETATM   22  C   UNL     1      -9.069   9.414  68.563  1.00  0.00    -0.131 C  
BRANCH  22  23
HETATM   23  C   UNL     1      -9.114  10.970  68.531  1.00  0.00    -0.173 C  
HETATM   24  O   UNL     1      -7.986  11.444  67.776  1.00  0.00    -0.111 OA 
HETATM   25  H   UNL     1      -8.012  12.394  67.757  1.00  0.00     0.000 HD 
BRANCH  23  26
HETATM   26  C   UNL     1     -10.301  11.639  67.779  1.00  0.00    -0.202 C  
HETATM   27  C   UNL     1     -11.496  12.258  68.548  1.00  0.00    -0.349 C  
HETATM   28  C   UNL     1     -12.290  13.214  67.592  1.00  0.00     0.047 C  
HETATM   29  C   UNL     1     -12.440  11.151  69.065  1.00  0.00     0.259 C  
HETATM   30  O   UNL     1     -12.517  10.048  68.531  1.00  0.00     0.917 OA 
HETATM   31  N   UNL     1     -13.199  11.467  70.178  1.00  0.00     0.472 N  
HETATM   32  H   UNL     1     -13.267  12.439  70.477  1.00  0.00     0.000 HD 
BRANCH  28  33
HETATM   33  C   UNL     1     -11.553  14.448  67.072  1.00  0.00    -0.402 A  
HETATM   34  C   UNL     1     -11.224  15.511  67.923  1.00  0.00    -0.325 A  
HETATM   35  C   UNL     1     -11.224  14.568  65.712  1.00  0.00    -0.334 A  
HETATM   36  C   UNL     1     -10.566  15.712  65.219  1.00  0.00    -0.448 A  
HETATM   37  C   UNL     1     -10.567  16.654  67.431  1.00  0.00    -0.295 A  
HETATM   38  C   UNL     1     -10.236  16.752  66.080  1.00  0.00    -0.361 A  
ENDBRANCH  28  33
BRANCH  31  39
HETATM   39  C   UNL     1     -13.912  10.421  70.940  1.00  0.00     0.959 C  
HETATM   40  C   UNL     1     -13.623  10.068  73.424  1.00  0.00     2.978 C  
HETATM   41  C   UNL     1     -12.838   9.085  72.626  1.00  0.00    -0.315 A  
HETATM   42  H   UNL     1     -14.536  12.524  73.484  1.00  0.00     0.000 HD 
HETATM   43  C   UNL     1     -14.407  10.864  72.358  1.00  0.00     1.291 C  
HETATM   44  O   UNL     1     -14.235  12.255  72.624  1.00  0.00     0.103 OA 
HETATM   45  C   UNL     1     -12.032   8.065  73.133  1.00  0.00     0.433 A  
HETATM   46  C   UNL     1     -11.415   7.196  72.234  1.00  0.00    -0.309 A  
HETATM   47  C   UNL     1     -11.618   7.343  70.859  1.00  0.00    -0.318 A  
HETATM   48  C   UNL     1     -12.411   8.378  70.356  1.00  0.00     0.479 A  
HETATM   49  C   UNL     1     -13.012   9.260  71.259  1.00  0.00    -0.342 A  
ENDBRANCH  31  39
ENDBRANCH  23  26
ENDBRANCH  22  23
ENDBRANCH  12  22
ENDBRANCH   6   9
TORSDOF 8
ENDMDL
MODEL      186
REMARK 921   NORMALIZED FREE ENERGY PREDICTED BY IDOCK:    3.22 KCAL/MOL
REMARK 922        TOTAL FREE ENERGY PREDICTED BY IDOCK:    2.75 KCAL/MOL
REMARK 923 INTER-LIGAND FREE ENERGY PREDICTED BY IDOCK:    1.29 KCAL/MOL
REMARK 924 INTRA-LIGAND FREE ENERGY PREDICTED BY IDOCK:    1.47 KCAL/MOL
REMARK 927      BINDING AFFINITY PREDICTED BY RF-SCORE:    0.00 PKD
ROOT
HETATM    1  C   UNL     1     -13.738  10.499  70.462  1.00  0.00     0.786 C  
HETATM    2  C   UNL     1     -13.148   9.101  70.671  1.00  0.00     0.358 C  
HETATM    3  N   UNL     1     -12.475   8.520  69.466  1.00  0.00     1.529 N  
HETATM    4  C   UNL     1     -14.346   8.170  71.016  1.00  0.00    -0.126 C  
HETATM    5  C   UNL     1     -12.233   9.104  71.905  1.00  0.00    -0.449 C  
HETATM    6  C   UNL     1     -11.395   8.760  68.659  1.00  0.00     0.664 C  
HETATM    7  H   UNL     1     -12.976   7.690  69.148  1.00  0.00     0.000 HD 
HETATM    8  O   UNL     1     -11.061   7.805  67.942  1.00  0.00     0.045 OA 
ENDROOT
BRANCH   6   9
HETATM    9  C   UNL     1     -10.649  10.101  68.540  1.00  0.00    -0.216 C  
HETATM   10  C   UNL     1      -9.299  10.132  67.719  1.00  0.00    -0.141 C  
HETATM   11  N   UNL     1      -8.944  11.533  67.322  1.00  0.00    -0.159 NA 
HETATM   12  N   UNL     1     -10.519  10.829  69.834  1.00  0.00    -0.105 NA 
HETATM   13  C   UNL     1      -9.101  12.471  68.469  1.00  0.00    -0.061 C  
HETATM   14  C   UNL     1     -10.327  12.241  69.396  1.00  0.00     0.430 C  
BRANCH  11  15
HETATM   15  C   UNL     1      -7.560  11.679  66.810  1.00  0.00    -0.104 C  
BRANCH  15  16
HETATM   16  C   UNL     1      -6.631  12.608  67.552  1.00  0.00    -0.156 A  
HETATM   17  C   UNL     1      -5.999  12.189  68.720  1.00  0.00    -0.057 A  
HETATM   18  N   UNL     1      -5.269  12.992  69.532  1.00  0.00    -0.076 NA 
HETATM   19  C   UNL     1      -5.745  14.809  68.023  1.00  0.00    -0.146 A  
HETATM   20  C   UNL     1      -5.163  14.285  69.166  1.00  0.00    -0.078 A  
HETATM   21  C   UNL     1      -6.492  13.955  67.208  1.00  0.00     0.312 A  
ENDBRANCH  15  16
ENDBRANCH  11  15
BRANCH  12  22
HETATM   22  C   UNL     1      -9.395  10.444  70.766  1.00  0.00     1.688 C  
BRANCH  22  23
HETATM   23  C   UNL     1      -8.989   8.949  70.927  1.00  0.00    -0.222 C  
HETATM   24  O   UNL     1     -10.040   8.129  70.390  1.00  0.00    -0.191 OA 
HETATM   25  H   UNL     1      -9.793   7.217  70.488  1.00  0.00     0.000 HD 
BRANCH  23  26
HETATM   26  C   UNL     1      -7.754   8.449  70.122  1.00  0.00    -0.083 C  
HETATM   27  C   UNL     1      -7.593   6.956  69.739  1.00  0.00    -0.104 C  
HETATM   28  C   UNL     1      -6.527   6.826  68.596  1.00  0.00    -0.040 C  
HETATM   29  C   UNL     1      -7.139   6.128  70.959  1.00  0.00    -0.070 C  
HETATM   30  O   UNL     1      -6.524   6.623  71.900  1.00  0.00    -0.048 OA 
HETATM   31  N   UNL     1      -7.470   4.785  70.944  1.00  0.00    -0.062 N  
HETATM   32  H   UNL     1      -7.798   4.361  70.076  1.00  0.00     0.000 HD 
BRANCH  28  33
HETATM   33  C   UNL     1      -6.859   7.481  67.255  1.00  0.00    -0.071 A  
HETATM   34  C   UNL     1      -7.996   7.109  66.526  1.00  0.00    -0.112 A  
HETATM   35  C   UNL     1      -6.006   8.446  66.697  1.00  0.00    -0.049 A  
HETATM   36  C   UNL     1      -6.291   9.038  65.451  1.00  0.00    -0.064 A  
HETATM   37  C   UNL     1      -8.281   7.700  65.281  1.00  0.00    -0.136 A  
HETATM   38  C   UNL     1      -7.430   8.666  64.747  1.00  0.00    -0.097 A  
ENDBRANCH  28  33
BRANCH  31  39
HETATM   39  C   UNL     1      -7.358   3.954  72.161  1.00  0.00    -0.056 C  
HETATM   40  C   UNL     1      -7.803   1.469  72.194  1.00  0.00    -0.041 C  
HETATM   41  C   UNL     1      -8.959   2.249  72.719  1.00  0.00    -0.089 A  
HETATM   42  H   UNL     1      -5.818   1.484  70.484  1.00  0.00     0.000 HD 
HETATM   43  C   UNL     1      -6.723   2.541  71.935  1.00  0.00    -0.018 C  
HETATM   44  O   UNL     1      -6.203   2.342  70.621  1.00  0.00    -0.022 OA 
HETATM   45  C   UNL     1     -10.162   1.725  73.194  1.00  0.00    -0.182 A  
HETATM   46  C   UNL     1     -11.115   2.606  73.704  1.00  0.00    -0.319 A  
HETATM   47  C   UNL     1     -10.854   3.979  73.749  1.00  0.00    -0.333 A  
HETATM   48  C   UNL     1      -9.655   4.499  73.253  1.00  0.00    -0.144 A  
HETATM   49  C   UNL     1      -8.710   3.615  72.724  1.00  0.00    -0.100 A  
ENDBRANCH  31  39
ENDBRANCH  23  26
ENDBRANCH  22  23
ENDBRANCH  12  22
ENDBRANCH   6   9
TORSDOF 8
ENDMDL
MODEL      187
REMARK 921   NORMALIZED FREE ENERGY PREDICTED BY IDOCK:    3.33 KCAL/MOL
REMARK 922        TOTAL FREE ENERGY PREDICTED BY IDOCK:    2.92 KCAL/MOL
REMARK 923 INTER-LIGAND FREE ENERGY PREDICTED BY IDOCK:   -5.30 KCAL/MOL
REMARK 924 INTRA-LIGAND FREE ENERGY PREDICTED BY IDOCK:    8.22 KCAL/MOL
REMARK 927      BINDING AFFINITY PREDICTED BY RF-SCORE:    0.00 PKD
ROOT
HETATM    1  C   UNL     1      -8.185   6.046  72.317  1.00  0.00    -0.110 C  
HETATM    2  C   UNL     1      -7.534   6.834  73.459  1.00  0.00    -0.082 C  
HETATM    3  N   UNL     1      -6.424   7.745  73.035  1.00  0.00    -0.063 N  
HETATM    4  C   UNL     1      -6.915   5.779  74.420  1.00  0.00    -0.081 C  
HETATM    5  C   UNL     1      -8.617   7.569  74.263  1.00  0.00    -0.270 C  
HETATM    6  C   UNL     1      -6.229   8.863  72.269  1.00  0.00    -0.031 C  
HETATM    7  H   UNL     1      -5.541   7.439  73.444  1.00  0.00     0.000 HD 
HETATM    8  O   UNL     1      -5.151   9.444  72.464  1.00  0.00    -0.070 OA 
ENDROOT
BRANCH   6   9
HETATM    9  C   UNL     1      -7.186   9.377  71.179  1.00  0.00     0.026 C  
HETATM   10  C   UNL     1      -8.599   8.684  71.040  1.00  0.00    -0.173 C  
HETATM   11  N   UNL     1      -9.552   9.554  70.277  1.00  0.00    -0.250 NA 
HETATM   12  N   UNL     1      -6.534   9.562  69.851  1.00  0.00    -0.048 NA 
HETATM   13  C   UNL     1      -8.909  10.109  69.053  1.00  0.00    -0.166 C  
HETATM   14  C   UNL     1      -7.425  10.555  69.185  1.00  0.00    -0.114 C  
BRANCH  11  15
HETATM   15  C   UNL     1     -10.792   8.860  69.856  1.00  0.00    -0.211 C  
BRANCH  15  16
HETATM   16  C   UNL     1     -11.939   8.814  70.835  1.00  0.00    -0.235 A  
HETATM   17  C   UNL     1     -12.469   7.593  71.243  1.00  0.00    -0.298 A  
HETATM   18  N   UNL     1     -13.587   7.450  71.998  1.00  0.00    -0.184 NA 
HETATM   19  C   UNL     1     -13.774   9.852  72.021  1.00  0.00    -0.298 A  
HETATM   20  C   UNL     1     -14.214   8.585  72.366  1.00  0.00    -0.325 A  
HETATM   21  C   UNL     1     -12.620   9.964  71.242  1.00  0.00    -0.480 A  
ENDBRANCH  15  16
ENDBRANCH  11  15
BRANCH  12  22
HETATM   22  C   UNL     1      -6.379   8.357  68.953  1.00  0.00    -0.045 C  
BRANCH  22  23
HETATM   23  C   UNL     1      -7.309   7.121  69.134  1.00  0.00    -0.092 C  
HETATM   24  O   UNL     1      -8.495   7.539  69.832  1.00  0.00    -0.135 OA 
HETATM   25  H   UNL     1      -9.062   6.785  69.943  1.00  0.00     0.000 HD 
BRANCH  23  26
HETATM   26  C   UNL     1      -7.908   6.479  67.849  1.00  0.00    -0.108 C  
HETATM   27  C   UNL     1      -7.271   6.718  66.456  1.00  0.00    -0.073 C  
HETATM   28  C   UNL     1      -7.797   5.634  65.452  1.00  0.00    -0.102 C  
HETATM   29  C   UNL     1      -7.632   8.123  65.928  1.00  0.00    -0.082 C  
HETATM   30  O   UNL     1      -8.641   8.723  66.288  1.00  0.00    -0.120 OA 
HETATM   31  N   UNL     1      -6.748   8.681  65.023  1.00  0.00    -0.068 N  
HETATM   32  H   UNL     1      -6.036   8.092  64.592  1.00  0.00     0.000 HD 
BRANCH  28  33
HETATM   33  C   UNL     1      -7.428   4.179  65.742  1.00  0.00    -0.081 A  
HETATM   34  C   UNL     1      -6.107   3.806  66.024  1.00  0.00    -0.028 A  
HETATM   35  C   UNL     1      -8.400   3.168  65.690  1.00  0.00    -0.100 A  
HETATM   36  C   UNL     1      -8.066   1.822  65.932  1.00  0.00    -0.080 A  
HETATM   37  C   UNL     1      -5.773   2.461  66.266  1.00  0.00    -0.021 A  
HETATM   38  C   UNL     1      -6.753   1.470  66.223  1.00  0.00    -0.027 A  
ENDBRANCH  28  33
BRANCH  31  39
HETATM   39  C   UNL     1      -6.816  10.115  64.669  1.00  0.00    -0.117 C  
HETATM   40  C   UNL     1      -7.441  11.925  66.315  1.00  0.00     0.397 C  
HETATM   41  C   UNL     1      -8.582  11.556  65.432  1.00  0.00     0.247 A  
HETATM   42  H   UNL     1      -5.302  11.020  67.528  1.00  0.00     0.000 HD 
HETATM   43  C   UNL     1      -6.266  11.088  65.765  1.00  0.00     0.004 C  
HETATM   44  O   UNL     1      -5.636  10.429  66.863  1.00  0.00    -0.044 OA 
HETATM   45  C   UNL     1      -9.861  12.115  65.458  1.00  0.00    -0.240 A  
HETATM   46  C   UNL     1     -10.793  11.686  64.513  1.00  0.00    -0.383 A  
HETATM   47  C   UNL     1     -10.439  10.729  63.557  1.00  0.00    -0.141 A  
HETATM   48  C   UNL     1      -9.163  10.159  63.549  1.00  0.00    -0.322 A  
HETATM   49  C   UNL     1      -8.238  10.577  64.510  1.00  0.00    -0.077 A  
ENDBRANCH  31  39
ENDBRANCH  23  26
ENDBRANCH  22  23
ENDBRANCH  12  22
ENDBRANCH   6   9
TORSDOF 8
ENDMDL
MODEL      188
REMARK 921   NORMALIZED FREE ENERGY PREDICTED BY IDOCK:    3.43 KCAL/MOL
REMARK 922        TOTAL FREE ENERGY PREDICTED BY IDOCK:    3.07 KCAL/MOL
REMARK 923 INTER-LIGAND FREE ENERGY PREDICTED BY IDOCK:    1.93 KCAL/MOL
REMARK 924 INTRA-LIGAND FREE ENERGY PREDICTED BY IDOCK:    1.14 KCAL/MOL
REMARK 927      BINDING AFFINITY PREDICTED BY RF-SCORE:    0.00 PKD
ROOT
HETATM    1  C   UNL     1     -13.901  13.175  70.488  1.00  0.00     1.924 C  
HETATM    2  C   UNL     1     -12.630  13.046  71.333  1.00  0.00    -0.232 C  
HETATM    3  N   UNL     1     -11.833  11.805  71.076  1.00  0.00    -0.204 N  
HETATM    4  C   UNL     1     -13.097  12.987  72.816  1.00  0.00     0.189 C  
HETATM    5  C   UNL     1     -11.785  14.321  71.196  1.00  0.00    -0.154 C  
HETATM    6  C   UNL     1     -11.117  11.217  70.068  1.00  0.00    -0.098 C  
HETATM    7  H   UNL     1     -11.818  11.216  71.909  1.00  0.00     0.000 HD 
HETATM    8  O   UNL     1     -10.365  10.301  70.432  1.00  0.00    -0.210 OA 
ENDROOT
BRANCH   6   9
HETATM    9  C   UNL     1     -11.236  11.557  68.572  1.00  0.00    -0.258 C  
HETATM   10  C   UNL     1     -10.185  10.921  67.577  1.00  0.00    -0.190 C  
HETATM   11  N   UNL     1     -10.682  10.974  66.164  1.00  0.00    -0.231 NA 
HETATM   12  N   UNL     1     -11.433  13.011  68.304  1.00  0.00    -0.290 NA 
HETATM   13  C   UNL     1     -11.244  12.316  65.843  1.00  0.00    -0.340 C  
HETATM   14  C   UNL     1     -12.076  13.010  66.959  1.00  0.00    -0.267 C  
BRANCH  11  15
HETATM   15  C   UNL     1      -9.645  10.669  65.151  1.00  0.00    -0.251 C  
BRANCH  15  16
HETATM   16  C   UNL     1      -8.817   9.423  65.345  1.00  0.00    -0.220 A  
HETATM   17  C   UNL     1      -7.476   9.402  64.973  1.00  0.00    -0.106 A  
HETATM   18  N   UNL     1      -6.693   8.294  64.969  1.00  0.00    -0.062 NA 
HETATM   19  C   UNL     1      -8.602   7.048  65.749  1.00  0.00    -0.138 A  
HETATM   20  C   UNL     1      -7.277   7.142  65.355  1.00  0.00    -0.070 A  
HETATM   21  C   UNL     1      -9.381   8.207  65.740  1.00  0.00    -0.053 A  
ENDBRANCH  15  16
ENDBRANCH  11  15
BRANCH  12  22
HETATM   22  C   UNL     1     -10.218  13.907  68.270  1.00  0.00    -0.247 C  
BRANCH  22  23
HETATM   23  C   UNL     1     -10.166  15.119  67.294  1.00  0.00    -0.243 C  
HETATM   24  O   UNL     1     -11.512  15.479  66.940  1.00  0.00    -0.176 OA 
HETATM   25  H   UNL     1     -11.481  16.218  66.344  1.00  0.00     0.000 HD 
BRANCH  23  26
HETATM   26  C   UNL     1      -9.614  16.464  67.848  1.00  0.00    -0.228 C  
HETATM   27  C   UNL     1      -8.112  16.828  67.730  1.00  0.00    -0.186 C  
HETATM   28  C   UNL     1      -7.931  18.369  67.964  1.00  0.00    -0.289 C  
HETATM   29  C   UNL     1      -7.281  16.051  68.774  1.00  0.00    -0.157 C  
HETATM   30  O   UNL     1      -7.764  15.635  69.823  1.00  0.00    -0.166 OA 
HETATM   31  N   UNL     1      -5.951  15.839  68.461  1.00  0.00    -0.100 N  
HETATM   32  H   UNL     1      -5.529  16.358  67.691  1.00  0.00     0.000 HD 
BRANCH  28  33
HETATM   33  C   UNL     1      -8.582  19.308  66.948  1.00  0.00    -0.318 A  
HETATM   34  C   UNL     1      -7.824  19.953  65.963  1.00  0.00    -0.335 A  
HETATM   35  C   UNL     1      -9.958  19.583  67.005  1.00  0.00    -0.489 A  
HETATM   36  C   UNL     1     -10.563  20.466  66.090  1.00  0.00    -0.060 A  
HETATM   37  C   UNL     1      -8.429  20.835  65.048  1.00  0.00     1.504 A  
HETATM   38  C   UNL     1      -9.799  21.088  65.111  1.00  0.00     2.026 A  
ENDBRANCH  28  33
BRANCH  31  39
HETATM   39  C   UNL     1      -5.130  14.872  69.220  1.00  0.00    -0.090 C  
HETATM   40  C   UNL     1      -6.038  12.711  70.159  1.00  0.00    -0.093 C  
HETATM   41  C   UNL     1      -5.927  13.768  71.201  1.00  0.00    -0.098 A  
HETATM   42  H   UNL     1      -6.504  12.258  67.620  1.00  0.00     0.000 HD 
HETATM   43  C   UNL     1      -5.426  13.368  68.902  1.00  0.00    -0.073 C  
HETATM   44  O   UNL     1      -6.325  13.171  67.813  1.00  0.00    -0.126 OA 
HETATM   45  C   UNL     1      -6.259  13.637  72.551  1.00  0.00     1.428 A  
HETATM   46  C   UNL     1      -6.033  14.720  73.399  1.00  0.00     0.513 A  
HETATM   47  C   UNL     1      -5.472  15.900  72.903  1.00  0.00     1.349 A  
HETATM   48  C   UNL     1      -5.160  16.033  71.547  1.00  0.00    -0.024 A  
HETATM   49  C   UNL     1      -5.406  14.953  70.695  1.00  0.00    -0.133 A  
ENDBRANCH  31  39
ENDBRANCH  23  26
ENDBRANCH  22  23
ENDBRANCH  12  22
ENDBRANCH   6   9
TORSDOF 8
ENDMDL
MODEL      189
REMARK 921   NORMALIZED FREE ENERGY PREDICTED BY IDOCK:    5.32 KCAL/MOL
REMARK 922        TOTAL FREE ENERGY PREDICTED BY IDOCK:    5.84 KCAL/MOL
REMARK 923 INTER-LIGAND FREE ENERGY PREDICTED BY IDOCK:    6.56 KCAL/MOL
REMARK 924 INTRA-LIGAND FREE ENERGY PREDICTED BY IDOCK:   -0.72 KCAL/MOL
REMARK 927      BINDING AFFINITY PREDICTED BY RF-SCORE:    0.00 PKD
ROOT
HETATM    1  C   UNL     1      -6.627   8.958  70.459  1.00  0.00    -0.049 C  
HETATM    2  C   UNL     1      -7.520   9.697  71.461  1.00  0.00     0.753 C  
HETATM    3  N   UNL     1      -7.066  11.084  71.798  1.00  0.00     3.568 N  
HETATM    4  C   UNL     1      -7.472   8.871  72.778  1.00  0.00     0.282 C  
HETATM    5  C   UNL     1      -8.978   9.661  70.980  1.00  0.00     0.269 C  
HETATM    6  C   UNL     1      -6.891  12.299  71.191  1.00  0.00     3.500 C  
HETATM    7  H   UNL     1      -6.808  11.141  72.783  1.00  0.00     0.000 HD 
HETATM    8  O   UNL     1      -6.773  13.255  71.971  1.00  0.00     2.103 OA 
ENDROOT
BRANCH   6   9
HETATM    9  C   UNL     1      -6.767  12.530  69.675  1.00  0.00     0.079 C  
HETATM   10  C   UNL     1      -6.009  13.825  69.178  1.00  0.00    -0.087 C  
HETATM   11  N   UNL     1      -5.588  13.686  67.747  1.00  0.00    -0.261 NA 
HETATM   12  N   UNL     1      -8.043  12.325  68.932  1.00  0.00     0.072 NA 
HETATM   13  C   UNL     1      -6.697  13.147  66.911  1.00  0.00     0.803 C  
HETATM   14  C   UNL     1      -7.572  12.031  67.548  1.00  0.00    -0.147 C  
BRANCH  11  15
HETATM   15  C   UNL     1      -5.137  14.956  67.128  1.00  0.00     0.817 C  
BRANCH  15  16
HETATM   16  C   UNL     1      -5.808  16.232  67.573  1.00  0.00    -0.183 A  
HETATM   17  C   UNL     1      -5.268  16.988  68.610  1.00  0.00    -0.132 A  
HETATM   18  N   UNL     1      -5.871  18.061  69.178  1.00  0.00    -0.208 NA 
HETATM   19  C   UNL     1      -7.710  17.724  67.658  1.00  0.00    -0.212 A  
HETATM   20  C   UNL     1      -7.081  18.401  68.689  1.00  0.00    -0.279 A  
HETATM   21  C   UNL     1      -7.062  16.621  67.096  1.00  0.00    -0.221 A  
ENDBRANCH  15  16
ENDBRANCH  11  15
BRANCH  12  22
HETATM   22  C   UNL     1      -9.038  13.460  68.884  1.00  0.00     0.254 C  
BRANCH  22  23
HETATM   23  C   UNL     1     -10.412  13.266  68.178  1.00  0.00    -0.245 C  
HETATM   24  O   UNL     1     -10.423  11.977  67.542  1.00  0.00    -0.207 OA 
HETATM   25  H   UNL     1     -11.261  11.859  67.111  1.00  0.00     0.000 HD 
BRANCH  23  26
HETATM   26  C   UNL     1     -11.678  13.185  69.081  1.00  0.00    -0.376 C  
HETATM   27  C   UNL     1     -11.810  12.109  70.189  1.00  0.00    -0.368 C  
HETATM   28  C   UNL     1     -12.943  12.529  71.189  1.00  0.00    -0.237 C  
HETATM   29  C   UNL     1     -12.153  10.735  69.574  1.00  0.00    -0.272 C  
HETATM   30  O   UNL     1     -12.723  10.621  68.493  1.00  0.00     0.433 OA 
HETATM   31  N   UNL     1     -11.775   9.626  70.309  1.00  0.00    -0.421 N  
HETATM   32  H   UNL     1     -11.489   9.743  71.281  1.00  0.00     0.000 HD 
BRANCH  28  33
HETATM   33  C   UNL     1     -12.722  13.811  71.992  1.00  0.00    -0.321 A  
HETATM   34  C   UNL     1     -12.717  15.067  71.371  1.00  0.00    -0.414 A  
HETATM   35  C   UNL     1     -12.474  13.759  73.373  1.00  0.00     0.993 A  
HETATM   36  C   UNL     1     -12.245  14.933  74.117  1.00  0.00    -0.457 A  
HETATM   37  C   UNL     1     -12.489  16.240  72.114  1.00  0.00    -0.308 A  
HETATM   38  C   UNL     1     -12.256  16.171  73.487  1.00  0.00    -0.630 A  
ENDBRANCH  28  33
BRANCH  31  39
HETATM   39  C   UNL     1     -11.777   8.274  69.711  1.00  0.00     0.553 C  
HETATM   40  C   UNL     1     -10.319   6.385  70.538  1.00  0.00    -0.247 C  
HETATM   41  C   UNL     1      -9.759   7.028  69.316  1.00  0.00    -0.158 A  
HETATM   42  H   UNL     1     -11.692   6.803  72.730  1.00  0.00     0.000 HD 
HETATM   43  C   UNL     1     -11.671   7.100  70.742  1.00  0.00    -0.323 C  
HETATM   44  O   UNL     1     -11.755   7.515  72.104  1.00  0.00    -0.284 OA 
HETATM   45  C   UNL     1      -8.582   6.667  68.657  1.00  0.00    -0.125 A  
HETATM   46  C   UNL     1      -8.241   7.344  67.488  1.00  0.00    -0.113 A  
HETATM   47  C   UNL     1      -9.073   8.350  66.986  1.00  0.00    -0.171 A  
HETATM   48  C   UNL     1     -10.240   8.720  67.660  1.00  0.00    -0.298 A  
HETATM   49  C   UNL     1     -10.569   8.053  68.844  1.00  0.00    -0.160 A  
ENDBRANCH  31  39
ENDBRANCH  23  26
ENDBRANCH  22  23
ENDBRANCH  12  22
ENDBRANCH   6   9
TORSDOF 8
ENDMDL
MODEL      190
REMARK 921   NORMALIZED FREE ENERGY PREDICTED BY IDOCK:    5.49 KCAL/MOL
REMARK 922        TOTAL FREE ENERGY PREDICTED BY IDOCK:    6.09 KCAL/MOL
REMARK 923 INTER-LIGAND FREE ENERGY PREDICTED BY IDOCK:    4.87 KCAL/MOL
REMARK 924 INTRA-LIGAND FREE ENERGY PREDICTED BY IDOCK:    1.22 KCAL/MOL
REMARK 927      BINDING AFFINITY PREDICTED BY RF-SCORE:    0.00 PKD
ROOT
HETATM    1  C   UNL     1     -12.088  17.575  67.365  1.00  0.00     2.775 C  
HETATM    2  C   UNL     1     -10.994  18.035  66.397  1.00  0.00     0.263 C  
HETATM    3  N   UNL     1      -9.698  17.295  66.522  1.00  0.00    -0.276 N  
HETATM    4  C   UNL     1     -10.702  19.523  66.744  1.00  0.00    -0.569 C  
HETATM    5  C   UNL     1     -11.535  18.025  64.959  1.00  0.00     2.099 C  
HETATM    6  C   UNL     1      -9.199  16.031  66.347  1.00  0.00    -0.305 C  
HETATM    7  H   UNL     1      -8.959  17.926  66.832  1.00  0.00     0.000 HD 
HETATM    8  O   UNL     1      -7.962  15.966  66.287  1.00  0.00    -0.200 OA 
ENDROOT
BRANCH   6   9
HETATM    9  C   UNL     1     -10.035  14.740  66.297  1.00  0.00    -0.291 C  
HETATM   10  C   UNL     1     -10.992  14.423  67.513  1.00  0.00    -0.293 C  
HETATM   11  N   UNL     1     -12.033  13.415  67.131  1.00  0.00    -0.379 NA 
HETATM   12  N   UNL     1      -9.252  13.538  65.890  1.00  0.00     0.088 NA 
HETATM   13  C   UNL     1     -11.427  12.275  66.387  1.00  0.00    -0.378 C  
HETATM   14  C   UNL     1     -10.307  12.624  65.366  1.00  0.00    -0.291 C  
BRANCH  11  15
HETATM   15  C   UNL     1     -12.777  12.853  68.283  1.00  0.00     1.353 C  
BRANCH  15  16
HETATM   16  C   UNL     1     -12.548  13.475  69.638  1.00  0.00     0.052 A  
HETATM   17  C   UNL     1     -12.293  12.674  70.748  1.00  0.00    -0.283 A  
HETATM   18  N   UNL     1     -12.222  13.124  72.025  1.00  0.00     0.494 NA 
HETATM   19  C   UNL     1     -12.674  15.335  71.180  1.00  0.00    -0.476 A  
HETATM   20  C   UNL     1     -12.418  14.445  72.210  1.00  0.00    -0.235 A  
HETATM   21  C   UNL     1     -12.742  14.838  69.876  1.00  0.00    -0.127 A  
ENDBRANCH  15  16
ENDBRANCH  11  15
BRANCH  12  22
HETATM   22  C   UNL     1      -8.448  12.813  66.942  1.00  0.00    -0.102 C  
BRANCH  22  23
HETATM   23  C   UNL     1      -8.117  11.301  66.771  1.00  0.00    -0.159 C  
HETATM   24  O   UNL     1      -7.033  11.173  65.836  1.00  0.00    -0.350 OA 
HETATM   25  H   UNL     1      -6.831  10.251  65.731  1.00  0.00     0.000 HD 
BRANCH  23  26
HETATM   26  C   UNL     1      -7.557  10.544  68.010  1.00  0.00    -0.091 C  
HETATM   27  C   UNL     1      -7.448  11.232  69.394  1.00  0.00     0.014 C  
HETATM   28  C   UNL     1      -7.276  10.140  70.506  1.00  0.00     0.036 C  
HETATM   29  C   UNL     1      -6.241  12.193  69.429  1.00  0.00    -0.106 C  
HETATM   30  O   UNL     1      -5.263  12.049  68.702  1.00  0.00    -0.050 OA 
HETATM   31  N   UNL     1      -6.320  13.242  70.328  1.00  0.00    -0.374 N  
HETATM   32  H   UNL     1      -7.039  13.226  71.052  1.00  0.00     0.000 HD 
BRANCH  28  33
HETATM   33  C   UNL     1      -8.436   9.164  70.709  1.00  0.00    -0.256 A  
HETATM   34  C   UNL     1      -8.214   7.850  71.141  1.00  0.00    -0.109 A  
HETATM   35  C   UNL     1      -9.756   9.549  70.423  1.00  0.00    -0.328 A  
HETATM   36  C   UNL     1     -10.828   8.650  70.583  1.00  0.00    -0.265 A  
HETATM   37  C   UNL     1      -9.285   6.951  71.301  1.00  0.00    -0.157 A  
HETATM   38  C   UNL     1     -10.591   7.354  71.025  1.00  0.00    -0.234 A  
ENDBRANCH  28  33
BRANCH  31  39
HETATM   39  C   UNL     1      -5.384  14.383  70.259  1.00  0.00    -0.104 C  
HETATM   40  C   UNL     1      -6.106  16.791  70.492  1.00  0.00     0.357 C  
HETATM   41  C   UNL     1      -5.894  16.409  69.069  1.00  0.00    -0.136 A  
HETATM   42  H   UNL     1      -6.875  15.926  72.843  1.00  0.00     0.000 HD 
HETATM   43  C   UNL     1      -5.675  15.534  71.279  1.00  0.00     0.287 C  
HETATM   44  O   UNL     1      -6.699  15.227  72.224  1.00  0.00     1.929 OA 
HETATM   45  C   UNL     1      -6.050  17.239  67.958  1.00  0.00    -0.138 A  
HETATM   46  C   UNL     1      -5.749  16.725  66.697  1.00  0.00    -0.043 A  
HETATM   47  C   UNL     1      -5.288  15.412  66.561  1.00  0.00     2.214 A  
HETATM   48  C   UNL     1      -5.153  14.580  67.675  1.00  0.00     0.108 A  
HETATM   49  C   UNL     1      -5.474  15.091  68.936  1.00  0.00    -0.095 A  
ENDBRANCH  31  39
ENDBRANCH  23  26
ENDBRANCH  22  23
ENDBRANCH  12  22
ENDBRANCH   6   9
TORSDOF 8
ENDMDL
MODEL      191
REMARK 921   NORMALIZED FREE ENERGY PREDICTED BY IDOCK:    5.57 KCAL/MOL
REMARK 922        TOTAL FREE ENERGY PREDICTED BY IDOCK:    6.21 KCAL/MOL
REMARK 923 INTER-LIGAND FREE ENERGY PREDICTED BY IDOCK:   -3.07 KCAL/MOL
REMARK 924 INTRA-LIGAND FREE ENERGY PREDICTED BY IDOCK:    9.28 KCAL/MOL
REMARK 927      BINDING AFFINITY PREDICTED BY RF-SCORE:    0.00 PKD
ROOT
HETATM    1  C   UNL     1      -5.292  10.394  65.698  1.00  0.00    -0.089 C  
HETATM    2  C   UNL     1      -6.020   9.776  64.500  1.00  0.00    -0.094 C  
HETATM    3  N   UNL     1      -5.656   8.352  64.214  1.00  0.00    -0.058 N  
HETATM    4  C   UNL     1      -5.599  10.611  63.256  1.00  0.00    -0.127 C  
HETATM    5  C   UNL     1      -7.536   9.971  64.657  1.00  0.00    -0.143 C  
HETATM    6  C   UNL     1      -5.750   7.116  64.797  1.00  0.00    -0.033 C  
HETATM    7  H   UNL     1      -5.198   8.280  63.306  1.00  0.00     0.000 HD 
HETATM    8  O   UNL     1      -5.569   6.164  64.024  1.00  0.00    -0.017 OA 
ENDROOT
BRANCH   6   9
HETATM    9  C   UNL     1      -5.983   6.850  66.294  1.00  0.00    -0.034 C  
HETATM   10  C   UNL     1      -7.467   6.625  66.789  1.00  0.00    -0.079 C  
HETATM   11  N   UNL     1      -7.492   5.953  68.128  1.00  0.00    -0.080 NA 
HETATM   12  N   UNL     1      -5.244   7.785  67.189  1.00  0.00    -0.029 NA 
HETATM   13  C   UNL     1      -6.518   6.585  69.063  1.00  0.00    -0.043 C  
HETATM   14  C   UNL     1      -5.150   7.013  68.461  1.00  0.00    -0.016 C  
BRANCH  11  15
HETATM   15  C   UNL     1      -8.820   5.972  68.785  1.00  0.00    -0.116 C  
BRANCH  15  16
HETATM   16  C   UNL     1      -9.170   4.822  69.697  1.00  0.00    -0.180 A  
HETATM   17  C   UNL     1      -9.560   5.058  71.012  1.00  0.00    -0.170 A  
HETATM   18  N   UNL     1      -9.749   4.093  71.946  1.00  0.00    -0.159 NA 
HETATM   19  C   UNL     1      -9.153   2.471  70.267  1.00  0.00    -0.180 A  
HETATM   20  C   UNL     1      -9.537   2.822  71.551  1.00  0.00    -0.151 A  
HETATM   21  C   UNL     1      -8.965   3.489  69.330  1.00  0.00    -0.179 A  
ENDBRANCH  15  16
ENDBRANCH  11  15
BRANCH  12  22
HETATM   22  C   UNL     1      -5.852   9.137  67.476  1.00  0.00    -0.046 C  
BRANCH  22  23
HETATM   23  C   UNL     1      -7.393   9.340  67.374  1.00  0.00    -0.087 C  
HETATM   24  O   UNL     1      -8.005   8.067  67.104  1.00  0.00    -0.109 OA 
HETATM   25  H   UNL     1      -8.945   8.191  67.042  1.00  0.00     0.000 HD 
BRANCH  23  26
HETATM   26  C   UNL     1      -8.146   9.787  68.661  1.00  0.00    -0.105 C  
HETATM   27  C   UNL     1      -9.283  10.838  68.605  1.00  0.00    -0.184 C  
HETATM   28  C   UNL     1     -10.123  10.766  69.927  1.00  0.00     0.176 C  
HETATM   29  C   UNL     1      -8.702  12.259  68.444  1.00  0.00    -0.139 C  
HETATM   30  O   UNL     1      -7.569  12.553  68.814  1.00  0.00    -0.102 OA 
HETATM   31  N   UNL     1      -9.530  13.194  67.849  1.00  0.00    -0.211 N  
HETATM   32  H   UNL     1     -10.521  12.984  67.735  1.00  0.00     0.000 HD 
BRANCH  28  33
HETATM   33  C   UNL     1     -10.882   9.467  70.200  1.00  0.00    -0.287 A  
HETATM   34  C   UNL     1     -11.421   8.706  69.154  1.00  0.00     0.643 A  
HETATM   35  C   UNL     1     -11.097   9.023  71.514  1.00  0.00    -0.419 A  
HETATM   36  C   UNL     1     -11.815   7.841  71.777  1.00  0.00    -0.328 A  
HETATM   37  C   UNL     1     -12.139   7.524  69.416  1.00  0.00     1.290 A  
HETATM   38  C   UNL     1     -12.333   7.092  70.727  1.00  0.00    -0.307 A  
ENDBRANCH  28  33
BRANCH  31  39
HETATM   39  C   UNL     1      -9.004  14.491  67.375  1.00  0.00    -0.200 C  
HETATM   40  C   UNL     1     -10.009  16.718  68.013  1.00  0.00    -0.272 C  
HETATM   41  C   UNL     1     -10.433  16.285  66.653  1.00  0.00    -0.290 A  
HETATM   42  H   UNL     1      -9.354  15.886  70.410  1.00  0.00     0.000 HD 
HETATM   43  C   UNL     1      -9.002  15.631  68.448  1.00  0.00    -0.185 C  
HETATM   44  O   UNL     1      -9.356  15.194  69.759  1.00  0.00    -0.157 OA 
HETATM   45  C   UNL     1     -11.273  16.986  65.786  1.00  0.00     0.495 A  
HETATM   46  C   UNL     1     -11.516  16.454  64.521  1.00  0.00    -0.074 A  
HETATM   47  C   UNL     1     -10.915  15.253  64.133  1.00  0.00     0.438 A  
HETATM   48  C   UNL     1     -10.090  14.545  65.012  1.00  0.00    -0.325 A  
HETATM   49  C   UNL     1      -9.865  15.071  66.287  1.00  0.00    -0.307 A  
ENDBRANCH  31  39
ENDBRANCH  23  26
ENDBRANCH  22  23
ENDBRANCH  12  22
ENDBRANCH   6   9
TORSDOF 8
ENDMDL
MODEL      192
REMARK 921   NORMALIZED FREE ENERGY PREDICTED BY IDOCK:    6.76 KCAL/MOL
REMARK 922        TOTAL FREE ENERGY PREDICTED BY IDOCK:    7.95 KCAL/MOL
REMARK 923 INTER-LIGAND FREE ENERGY PREDICTED BY IDOCK:   -3.93 KCAL/MOL
REMARK 924 INTRA-LIGAND FREE ENERGY PREDICTED BY IDOCK:   11.88 KCAL/MOL
REMARK 927      BINDING AFFINITY PREDICTED BY RF-SCORE:    0.00 PKD
ROOT
HETATM    1  C   UNL     1      -7.636  11.411  66.031  1.00  0.00     0.187 C  
HETATM    2  C   UNL     1      -6.510  10.392  66.235  1.00  0.00    -0.102 C  
HETATM    3  N   UNL     1      -6.320   9.947  67.652  1.00  0.00    -0.059 N  
HETATM    4  C   UNL     1      -5.196  11.102  65.801  1.00  0.00    -0.077 C  
HETATM    5  C   UNL     1      -6.701   9.210  65.272  1.00  0.00    -0.069 C  
HETATM    6  C   UNL     1      -6.995   9.266  68.629  1.00  0.00    -0.062 C  
HETATM    7  H   UNL     1      -5.405  10.241  67.994  1.00  0.00     0.000 HD 
HETATM    8  O   UNL     1      -6.290   8.877  69.572  1.00  0.00    -0.042 OA 
ENDROOT
BRANCH   6   9
HETATM    9  C   UNL     1      -8.515   9.027  68.665  1.00  0.00    -0.128 C  
HETATM   10  C   UNL     1      -9.056   7.783  69.476  1.00  0.00    -0.146 C  
HETATM   11  N   UNL     1     -10.514   7.936  69.786  1.00  0.00    -0.230 NA 
HETATM   12  N   UNL     1      -9.167   9.133  67.328  1.00  0.00    -0.132 NA 
HETATM   13  C   UNL     1     -11.273   8.386  68.586  1.00  0.00     0.546 C  
HETATM   14  C   UNL     1     -10.583   9.445  67.680  1.00  0.00    -0.271 C  
BRANCH  11  15
HETATM   15  C   UNL     1     -11.155   6.695  70.282  1.00  0.00    -0.326 C  
BRANCH  15  16
HETATM   16  C   UNL     1     -11.034   6.380  71.752  1.00  0.00    -0.298 A  
HETATM   17  C   UNL     1     -10.744   7.389  72.668  1.00  0.00    -0.288 A  
HETATM   18  N   UNL     1     -10.470   7.185  73.980  1.00  0.00    -0.283 NA 
HETATM   19  C   UNL     1     -10.764   4.826  73.586  1.00  0.00    -0.350 A  
HETATM   20  C   UNL     1     -10.483   5.906  74.406  1.00  0.00    -0.163 A  
HETATM   21  C   UNL     1     -11.040   5.071  72.239  1.00  0.00    -0.116 A  
ENDBRANCH  15  16
ENDBRANCH  11  15
BRANCH  12  22
HETATM   22  C   UNL     1      -9.138   7.930  66.416  1.00  0.00    -0.179 C  
BRANCH  22  23
HETATM   23  C   UNL     1      -9.790   6.590  66.868  1.00  0.00    -0.164 C  
HETATM   24  O   UNL     1      -9.850   5.706  65.736  1.00  0.00    -0.362 OA 
HETATM   25  H   UNL     1     -10.248   4.888  66.011  1.00  0.00     0.000 HD 
BRANCH  23  26
HETATM   26  C   UNL     1      -9.012   5.727  67.903  1.00  0.00    -0.111 C  
HETATM   27  C   UNL     1      -7.618   5.135  67.574  1.00  0.00    -0.088 C  
HETATM   28  C   UNL     1      -6.909   4.703  68.905  1.00  0.00    -0.051 C  
HETATM   29  C   UNL     1      -7.755   3.909  66.646  1.00  0.00    -0.089 C  
HETATM   30  O   UNL     1      -8.773   3.224  66.603  1.00  0.00    -0.114 OA 
HETATM   31  N   UNL     1      -6.661   3.620  65.850  1.00  0.00    -0.040 N  
HETATM   32  H   UNL     1      -5.767   4.073  66.045  1.00  0.00     0.000 HD 
BRANCH  28  33
HETATM   33  C   UNL     1      -6.574   5.810  69.905  1.00  0.00    -0.046 A  
HETATM   34  C   UNL     1      -7.398   6.067  71.009  1.00  0.00    -0.080 A  
HETATM   35  C   UNL     1      -5.450   6.630  69.718  1.00  0.00    -0.014 A  
HETATM   36  C   UNL     1      -5.147   7.668  70.621  1.00  0.00    -0.023 A  
HETATM   37  C   UNL     1      -7.096   7.104  71.910  1.00  0.00    -0.071 A  
HETATM   38  C   UNL     1      -5.968   7.901  71.717  1.00  0.00    -0.035 A  
ENDBRANCH  28  33
BRANCH  31  39
HETATM   39  C   UNL     1      -6.763   2.670  64.722  1.00  0.00    -0.039 C  
HETATM   40  C   UNL     1      -7.266   3.374  62.350  1.00  0.00    -0.040 C  
HETATM   41  C   UNL     1      -8.471   2.834  63.039  1.00  0.00    -0.085 A  
HETATM   42  H   UNL     1      -5.035   4.707  62.686  1.00  0.00     0.000 HD 
HETATM   43  C   UNL     1      -6.133   3.174  63.380  1.00  0.00    -0.014 C  
HETATM   44  O   UNL     1      -5.417   4.402  63.500  1.00  0.00    -0.012 OA 
HETATM   45  C   UNL     1      -9.746   2.699  62.488  1.00  0.00    -0.091 A  
HETATM   46  C   UNL     1     -10.747   2.114  63.264  1.00  0.00    -0.212 A  
HETATM   47  C   UNL     1     -10.464   1.663  64.557  1.00  0.00     0.602 A  
HETATM   48  C   UNL     1      -9.190   1.819  65.110  1.00  0.00    -0.075 A  
HETATM   49  C   UNL     1      -8.194   2.423  64.337  1.00  0.00    -0.082 A  
ENDBRANCH  31  39
ENDBRANCH  23  26
ENDBRANCH  22  23
ENDBRANCH  12  22
ENDBRANCH   6   9
TORSDOF 8
ENDMDL
MODEL      193
REMARK 921   NORMALIZED FREE ENERGY PREDICTED BY IDOCK:    6.82 KCAL/MOL
REMARK 922        TOTAL FREE ENERGY PREDICTED BY IDOCK:    8.04 KCAL/MOL
REMARK 923 INTER-LIGAND FREE ENERGY PREDICTED BY IDOCK:   -0.33 KCAL/MOL
REMARK 924 INTRA-LIGAND FREE ENERGY PREDICTED BY IDOCK:    8.38 KCAL/MOL
REMARK 927      BINDING AFFINITY PREDICTED BY RF-SCORE:    0.00 PKD
ROOT
HETATM    1  C   UNL     1     -11.050  10.461  69.394  1.00  0.00    -0.304 C  
HETATM    2  C   UNL     1     -12.177  11.439  69.743  1.00  0.00    -0.265 C  
HETATM    3  N   UNL     1     -11.727  12.692  70.428  1.00  0.00    -0.542 N  
HETATM    4  C   UNL     1     -13.114  10.690  70.734  1.00  0.00    -0.299 C  
HETATM    5  C   UNL     1     -13.018  11.729  68.490  1.00  0.00     2.726 C  
HETATM    6  C   UNL     1     -10.962  13.799  70.177  1.00  0.00     0.441 C  
HETATM    7  H   UNL     1     -12.108  12.733  71.373  1.00  0.00     0.000 HD 
HETATM    8  O   UNL     1     -11.130  14.737  70.971  1.00  0.00    -0.153 OA 
ENDROOT
BRANCH   6   9
HETATM    9  C   UNL     1      -9.904  13.921  69.066  1.00  0.00     0.059 C  
HETATM   10  C   UNL     1     -10.403  14.074  67.574  1.00  0.00    -0.245 C  
HETATM   11  N   UNL     1      -9.317  14.617  66.696  1.00  0.00    -0.259 NA 
HETATM   12  N   UNL     1      -8.806  12.918  69.175  1.00  0.00     0.562 NA 
HETATM   13  C   UNL     1      -8.026  13.916  66.946  1.00  0.00     0.219 C  
HETATM   14  C   UNL     1      -7.694  13.569  68.425  1.00  0.00    -0.135 C  
BRANCH  11  15
HETATM   15  C   UNL     1      -9.609  14.515  65.247  1.00  0.00     0.123 C  
BRANCH  15  16
HETATM   16  C   UNL     1     -10.510  13.395  64.789  1.00  0.00    -0.419 A  
HETATM   17  C   UNL     1     -11.685  13.674  64.095  1.00  0.00    -0.386 A  
HETATM   18  N   UNL     1     -12.628  12.755  63.774  1.00  0.00    -0.715 NA 
HETATM   19  C   UNL     1     -11.257  11.095  64.856  1.00  0.00    -0.027 A  
HETATM   20  C   UNL     1     -12.392  11.486  64.165  1.00  0.00     0.175 A  
HETATM   21  C   UNL     1     -10.305  12.067  65.172  1.00  0.00    -0.313 A  
ENDBRANCH  15  16
ENDBRANCH  11  15
BRANCH  12  22
HETATM   22  C   UNL     1      -9.037  11.535  68.613  1.00  0.00    -0.120 C  
BRANCH  22  23
HETATM   23  C   UNL     1      -9.299  10.335  69.571  1.00  0.00    -0.178 C  
HETATM   24  O   UNL     1     -10.047   9.336  68.859  1.00  0.00    -0.183 OA 
HETATM   25  H   UNL     1     -10.207   8.604  69.443  1.00  0.00     0.000 HD 
BRANCH  23  26
HETATM   26  C   UNL     1      -8.064   9.521  70.056  1.00  0.00    -0.176 C  
HETATM   27  C   UNL     1      -6.658   9.749  69.446  1.00  0.00    -0.049 C  
HETATM   28  C   UNL     1      -5.573   9.133  70.396  1.00  0.00    -0.034 C  
HETATM   29  C   UNL     1      -6.555   9.088  68.055  1.00  0.00    -0.061 C  
HETATM   30  O   UNL     1      -7.254   8.133  67.726  1.00  0.00    -0.087 OA 
HETATM   31  N   UNL     1      -5.630   9.635  67.185  1.00  0.00    -0.046 N  
HETATM   32  H   UNL     1      -4.931  10.286  67.543  1.00  0.00     0.000 HD 
BRANCH  28  33
HETATM   33  C   UNL     1      -5.437   9.750  71.789  1.00  0.00    -0.041 A  
HETATM   34  C   UNL     1      -5.329  11.135  71.964  1.00  0.00     0.351 A  
HETATM   35  C   UNL     1      -5.373   8.935  72.931  1.00  0.00    -0.074 A  
HETATM   36  C   UNL     1      -5.223   9.492  74.216  1.00  0.00    -0.123 A  
HETATM   37  C   UNL     1      -5.180  11.692  73.248  1.00  0.00     0.700 A  
HETATM   38  C   UNL     1      -5.130  10.869  74.373  1.00  0.00     0.149 A  
ENDBRANCH  28  33
BRANCH  31  39
HETATM   39  C   UNL     1      -5.635   9.294  65.747  1.00  0.00    -0.045 C  
HETATM   40  C   UNL     1      -7.747   8.947  64.407  1.00  0.00    -0.120 C  
HETATM   41  C   UNL     1      -7.123   7.656  64.808  1.00  0.00    -0.064 A  
HETATM   42  H   UNL     1      -8.145  11.437  65.121  1.00  0.00     0.000 HD 
HETATM   43  C   UNL     1      -6.745  10.011  64.907  1.00  0.00    -0.126 C  
HETATM   44  O   UNL     1      -7.471  11.002  65.631  1.00  0.00    -0.025 OA 
HETATM   45  C   UNL     1      -7.596   6.379  64.501  1.00  0.00    -0.100 A  
HETATM   46  C   UNL     1      -6.846   5.277  64.910  1.00  0.00    -0.049 A  
HETATM   47  C   UNL     1      -5.643   5.458  65.598  1.00  0.00    -0.013 A  
HETATM   48  C   UNL     1      -5.184   6.738  65.919  1.00  0.00    -0.022 A  
HETATM   49  C   UNL     1      -5.948   7.841  65.525  1.00  0.00    -0.038 A  
ENDBRANCH  31  39
ENDBRANCH  23  26
ENDBRANCH  22  23
ENDBRANCH  12  22
ENDBRANCH   6   9
TORSDOF 8
ENDMDL
MODEL      194
REMARK 921   NORMALIZED FREE ENERGY PREDICTED BY IDOCK:    7.04 KCAL/MOL
REMARK 922        TOTAL FREE ENERGY PREDICTED BY IDOCK:    8.37 KCAL/MOL
REMARK 923 INTER-LIGAND FREE ENERGY PREDICTED BY IDOCK:    6.31 KCAL/MOL
REMARK 924 INTRA-LIGAND FREE ENERGY PREDICTED BY IDOCK:    2.06 KCAL/MOL
REMARK 927      BINDING AFFINITY PREDICTED BY RF-SCORE:    0.00 PKD
ROOT
HETATM    1  C   UNL     1      -7.914  16.131  68.363  1.00  0.00    -0.162 C  
HETATM    2  C   UNL     1      -8.928  15.732  69.439  1.00  0.00    -0.247 C  
HETATM    3  N   UNL     1      -9.518  14.366  69.266  1.00  0.00    -0.405 N  
HETATM    4  C   UNL     1     -10.100  16.750  69.332  1.00  0.00    -0.177 C  
HETATM    5  C   UNL     1      -8.311  15.928  70.832  1.00  0.00     3.298 C  
HETATM    6  C   UNL     1      -9.126  13.054  69.272  1.00  0.00     0.956 C  
HETATM    7  H   UNL     1     -10.520  14.434  69.089  1.00  0.00     0.000 HD 
HETATM    8  O   UNL     1     -10.053  12.237  69.381  1.00  0.00     0.310 OA 
ENDROOT
BRANCH   6   9
HETATM    9  C   UNL     1      -7.684  12.551  69.090  1.00  0.00     0.306 C  
HETATM   10  C   UNL     1      -7.176  12.260  67.622  1.00  0.00    -0.128 C  
HETATM   11  N   UNL     1      -5.679  12.218  67.569  1.00  0.00    -0.114 NA 
HETATM   12  N   UNL     1      -7.312  11.452  70.026  1.00  0.00     0.306 NA 
HETATM   13  C   UNL     1      -5.125  11.405  68.688  1.00  0.00    -0.043 C  
HETATM   14  C   UNL     1      -5.824  11.550  70.069  1.00  0.00    -0.134 C  
BRANCH  11  15
HETATM   15  C   UNL     1      -5.138  11.667  66.304  1.00  0.00     0.054 C  
BRANCH  15  16
HETATM   16  C   UNL     1      -5.863  10.500  65.679  1.00  0.00    -0.127 A  
HETATM   17  C   UNL     1      -5.345   9.212  65.782  1.00  0.00    -0.040 A  
HETATM   18  N   UNL     1      -5.839   8.128  65.134  1.00  0.00    -0.044 NA 
HETATM   19  C   UNL     1      -7.505   9.573  64.164  1.00  0.00    -0.122 A  
HETATM   20  C   UNL     1      -6.906   8.336  64.337  1.00  0.00    -0.069 A  
HETATM   21  C   UNL     1      -6.970  10.670  64.845  1.00  0.00     0.122 A  
ENDBRANCH  15  16
ENDBRANCH  11  15
BRANCH  12  22
HETATM   22  C   UNL     1      -7.704  10.038  69.666  1.00  0.00    -0.156 C  
BRANCH  22  23
HETATM   23  C   UNL     1      -8.253   9.716  68.245  1.00  0.00    -0.106 C  
HETATM   24  O   UNL     1      -7.274   8.931  67.544  1.00  0.00    -0.079 OA 
HETATM   25  H   UNL     1      -7.609   8.734  66.676  1.00  0.00     0.000 HD 
BRANCH  23  26
HETATM   26  C   UNL     1      -9.513   8.807  68.152  1.00  0.00    -0.152 C  
HETATM   27  C   UNL     1     -10.373   8.752  66.863  1.00  0.00    -0.344 C  
HETATM   28  C   UNL     1     -11.280   7.473  66.899  1.00  0.00     0.555 C  
HETATM   29  C   UNL     1     -11.263  10.007  66.749  1.00  0.00     0.417 C  
HETATM   30  O   UNL     1     -11.611  10.660  67.729  1.00  0.00    -0.501 OA 
HETATM   31  N   UNL     1     -11.648  10.370  65.471  1.00  0.00     1.590 N  
HETATM   32  H   UNL     1     -11.517   9.710  64.704  1.00  0.00     0.000 HD 
BRANCH  28  33
HETATM   33  C   UNL     1     -10.573   6.117  66.888  1.00  0.00    -0.380 A  
HETATM   34  C   UNL     1     -10.041   5.583  65.706  1.00  0.00     0.106 A  
HETATM   35  C   UNL     1     -10.476   5.349  68.059  1.00  0.00    -0.192 A  
HETATM   36  C   UNL     1      -9.848   4.088  68.053  1.00  0.00    -0.068 A  
HETATM   37  C   UNL     1      -9.413   4.324  65.701  1.00  0.00    -0.176 A  
HETATM   38  C   UNL     1      -9.315   3.579  66.875  1.00  0.00    -0.212 A  
ENDBRANCH  28  33
BRANCH  31  39
HETATM   39  C   UNL     1     -12.243  11.694  65.196  1.00  0.00     0.592 C  
HETATM   40  C   UNL     1     -11.860  12.975  63.055  1.00  0.00     0.053 C  
HETATM   41  C   UNL     1     -11.010  13.483  64.167  1.00  0.00    -0.274 A  
HETATM   42  H   UNL     1     -12.989  10.842  62.034  1.00  0.00     0.000 HD 
HETATM   43  C   UNL     1     -12.739  11.899  63.726  1.00  0.00    -0.350 C  
HETATM   44  O   UNL     1     -12.687  10.718  62.926  1.00  0.00     1.467 OA 
HETATM   45  C   UNL     1     -10.102  14.541  64.098  1.00  0.00     1.665 A  
HETATM   46  C   UNL     1      -9.432  14.919  65.261  1.00  0.00     0.236 A  
HETATM   47  C   UNL     1      -9.683  14.258  66.466  1.00  0.00    -0.304 A  
HETATM   48  C   UNL     1     -10.579  13.187  66.526  1.00  0.00    -0.290 A  
HETATM   49  C   UNL     1     -11.234  12.797  65.354  1.00  0.00    -0.327 A  
ENDBRANCH  31  39
ENDBRANCH  23  26
ENDBRANCH  22  23
ENDBRANCH  12  22
ENDBRANCH   6   9
TORSDOF 8
ENDMDL
MODEL      195
REMARK 921   NORMALIZED FREE ENERGY PREDICTED BY IDOCK:    7.87 KCAL/MOL
REMARK 922        TOTAL FREE ENERGY PREDICTED BY IDOCK:    9.58 KCAL/MOL
REMARK 923 INTER-LIGAND FREE ENERGY PREDICTED BY IDOCK:    4.75 KCAL/MOL
REMARK 924 INTRA-LIGAND FREE ENERGY PREDICTED BY IDOCK:    4.83 KCAL/MOL
REMARK 927      BINDING AFFINITY PREDICTED BY RF-SCORE:    0.00 PKD
ROOT
HETATM    1  C   UNL     1     -12.040   9.707  69.966  1.00  0.00     0.143 C  
HETATM    2  C   UNL     1     -12.728  11.075  69.934  1.00  0.00    -0.038 C  
HETATM    3  N   UNL     1     -11.892  12.208  70.445  1.00  0.00    -0.525 N  
HETATM    4  C   UNL     1     -13.965  10.964  70.871  1.00  0.00     1.662 C  
HETATM    5  C   UNL     1     -13.277  11.346  68.524  1.00  0.00     4.169 C  
HETATM    6  C   UNL     1     -10.739  12.876  70.130  1.00  0.00     1.409 C  
HETATM    7  H   UNL     1     -12.309  12.602  71.288  1.00  0.00     0.000 HD 
HETATM    8  O   UNL     1     -10.602  13.969  70.699  1.00  0.00     0.929 OA 
ENDROOT
BRANCH   6   9
HETATM    9  C   UNL     1      -9.623  12.349  69.212  1.00  0.00     0.769 C  
HETATM   10  C   UNL     1      -9.872  12.360  67.651  1.00  0.00    -0.198 C  
HETATM   11  N   UNL     1      -8.581  12.251  66.899  1.00  0.00    -0.196 NA 
HETATM   12  N   UNL     1      -9.042  11.052  69.663  1.00  0.00     0.377 NA 
HETATM   13  C   UNL     1      -7.715  11.182  67.473  1.00  0.00    -0.116 C  
HETATM   14  C   UNL     1      -7.695  11.058  69.023  1.00  0.00    -0.132 C  
BRANCH  11  15
HETATM   15  C   UNL     1      -8.750  11.962  65.455  1.00  0.00     0.382 C  
BRANCH  15  16
HETATM   16  C   UNL     1     -10.115  12.178  64.850  1.00  0.00    -0.280 A  
HETATM   17  C   UNL     1     -10.513  11.452  63.731  1.00  0.00    -0.399 A  
HETATM   18  N   UNL     1     -11.652  11.677  63.030  1.00  0.00     0.000 NA 
HETATM   19  C   UNL     1     -12.144  13.465  64.568  1.00  0.00    -0.457 A  
HETATM   20  C   UNL     1     -12.439  12.682  63.465  1.00  0.00    -0.418 A  
HETATM   21  C   UNL     1     -10.962  13.208  65.267  1.00  0.00    -0.304 A  
ENDBRANCH  15  16
ENDBRANCH  11  15
BRANCH  12  22
HETATM   22  C   UNL     1      -9.759   9.776  69.294  1.00  0.00    -0.196 C  
BRANCH  22  23
HETATM   23  C   UNL     1      -9.991   8.670  70.367  1.00  0.00    -0.187 C  
HETATM   24  O   UNL     1     -10.953   7.732  69.856  1.00  0.00    -0.295 OA 
HETATM   25  H   UNL     1     -11.094   7.058  70.510  1.00  0.00     0.000 HD 
BRANCH  23  26
HETATM   26  C   UNL     1      -8.791   7.739  70.709  1.00  0.00    -0.139 C  
HETATM   27  C   UNL     1      -7.483   7.771  69.878  1.00  0.00    -0.081 C  
HETATM   28  C   UNL     1      -6.335   7.077  70.690  1.00  0.00    -0.043 C  
HETATM   29  C   UNL     1      -7.676   7.037  68.534  1.00  0.00    -0.120 C  
HETATM   30  O   UNL     1      -8.518   6.158  68.378  1.00  0.00    -0.113 OA 
HETATM   31  N   UNL     1      -6.846   7.430  67.500  1.00  0.00    -0.075 N  
HETATM   32  H   UNL     1      -6.032   8.010  67.704  1.00  0.00     0.000 HD 
BRANCH  28  33
HETATM   33  C   UNL     1      -5.913   7.738  72.003  1.00  0.00    -0.036 A  
HETATM   34  C   UNL     1      -5.787   6.995  73.184  1.00  0.00    -0.049 A  
HETATM   35  C   UNL     1      -5.682   9.121  72.069  1.00  0.00    -0.069 A  
HETATM   36  C   UNL     1      -5.317   9.743  73.278  1.00  0.00     0.080 A  
HETATM   37  C   UNL     1      -5.422   7.616  74.393  1.00  0.00    -0.065 A  
HETATM   38  C   UNL     1      -5.185   8.989  74.438  1.00  0.00    -0.112 A  
ENDBRANCH  28  33
BRANCH  31  39
HETATM   39  C   UNL     1      -7.117   7.025  66.104  1.00  0.00    -0.073 C  
HETATM   40  C   UNL     1      -9.327   6.078  65.335  1.00  0.00     0.255 C  
HETATM   41  C   UNL     1      -8.308   5.012  65.546  1.00  0.00    -0.126 A  
HETATM   42  H   UNL     1     -10.174   8.415  66.162  1.00  0.00     0.000 HD 
HETATM   43  C   UNL     1      -8.548   7.387  65.582  1.00  0.00    -0.112 C  
HETATM   44  O   UNL     1      -9.306   8.195  66.480  1.00  0.00    -0.179 OA 
HETATM   45  C   UNL     1      -8.490   3.643  65.349  1.00  0.00    -0.106 A  
HETATM   46  C   UNL     1      -7.401   2.793  65.540  1.00  0.00    -0.071 A  
HETATM   47  C   UNL     1      -6.156   3.313  65.905  1.00  0.00    -0.024 A  
HETATM   48  C   UNL     1      -5.984   4.683  66.120  1.00  0.00    -0.023 A  
HETATM   49  C   UNL     1      -7.083   5.530  65.947  1.00  0.00    -0.068 A  
ENDBRANCH  31  39
ENDBRANCH  23  26
ENDBRANCH  22  23
ENDBRANCH  12  22
ENDBRANCH   6   9
TORSDOF 8
ENDMDL
MODEL      196
REMARK 921   NORMALIZED FREE ENERGY PREDICTED BY IDOCK:    7.95 KCAL/MOL
REMARK 922        TOTAL FREE ENERGY PREDICTED BY IDOCK:    9.70 KCAL/MOL
REMARK 923 INTER-LIGAND FREE ENERGY PREDICTED BY IDOCK:    0.56 KCAL/MOL
REMARK 924 INTRA-LIGAND FREE ENERGY PREDICTED BY IDOCK:    9.14 KCAL/MOL
REMARK 927      BINDING AFFINITY PREDICTED BY RF-SCORE:    0.00 PKD
ROOT
HETATM    1  C   UNL     1      -5.261  10.739  65.187  1.00  0.00    -0.141 C  
HETATM    2  C   UNL     1      -6.120  10.222  64.028  1.00  0.00    -0.120 C  
HETATM    3  N   UNL     1      -5.888   8.787  63.669  1.00  0.00    -0.072 N  
HETATM    4  C   UNL     1      -5.730  11.071  62.784  1.00  0.00     0.008 C  
HETATM    5  C   UNL     1      -7.601  10.521  64.308  1.00  0.00     0.068 C  
HETATM    6  C   UNL     1      -6.032   7.540  64.217  1.00  0.00    -0.037 C  
HETATM    7  H   UNL     1      -5.504   8.717  62.727  1.00  0.00     0.000 HD 
HETATM    8  O   UNL     1      -5.981   6.607  63.401  1.00  0.00    -0.033 OA 
ENDROOT
BRANCH   6   9
HETATM    9  C   UNL     1      -6.173   7.234  65.718  1.00  0.00    -0.038 C  
HETATM   10  C   UNL     1      -7.628   7.176  66.333  1.00  0.00    -0.092 C  
HETATM   11  N   UNL     1      -7.629   6.450  67.644  1.00  0.00    -0.099 NA 
HETATM   12  N   UNL     1      -5.247   8.025  66.578  1.00  0.00    -0.024 NA 
HETATM   13  C   UNL     1      -6.508   6.908  68.512  1.00  0.00    -0.036 C  
HETATM   14  C   UNL     1      -5.149   7.187  67.808  1.00  0.00    -0.019 C  
BRANCH  11  15
HETATM   15  C   UNL     1      -8.885   6.606  68.416  1.00  0.00    -0.121 C  
BRANCH  15  16
HETATM   16  C   UNL     1      -9.290   5.481  69.335  1.00  0.00    -0.154 A  
HETATM   17  C   UNL     1      -9.772   5.752  70.613  1.00  0.00    -0.178 A  
HETATM   18  N   UNL     1     -10.019   4.814  71.560  1.00  0.00    -0.186 NA 
HETATM   19  C   UNL     1      -9.297   3.148  69.976  1.00  0.00    -0.226 A  
HETATM   20  C   UNL     1      -9.772   3.533  71.218  1.00  0.00    -0.166 A  
HETATM   21  C   UNL     1      -9.051   4.140  69.023  1.00  0.00    -0.187 A  
ENDBRANCH  15  16
ENDBRANCH  11  15
BRANCH  12  22
HETATM   22  C   UNL     1      -5.647   9.428  66.967  1.00  0.00    -0.040 C  
BRANCH  22  23
HETATM   23  C   UNL     1      -7.152   9.797  67.122  1.00  0.00    -0.086 C  
HETATM   24  O   UNL     1      -7.944   8.737  66.561  1.00  0.00    -0.101 OA 
HETATM   25  H   UNL     1      -8.862   8.962  66.655  1.00  0.00     0.000 HD 
BRANCH  23  26
HETATM   26  C   UNL     1      -7.724   9.889  68.567  1.00  0.00    -0.081 C  
HETATM   27  C   UNL     1      -8.064  11.255  69.214  1.00  0.00     0.103 C  
HETATM   28  C   UNL     1      -9.000  11.026  70.452  1.00  0.00     2.533 C  
HETATM   29  C   UNL     1      -6.777  11.974  69.673  1.00  0.00     0.016 C  
HETATM   30  O   UNL     1      -5.746  11.367  69.949  1.00  0.00    -0.074 OA 
HETATM   31  N   UNL     1      -6.842  13.353  69.750  1.00  0.00    -0.339 N  
HETATM   32  H   UNL     1      -7.751  13.814  69.711  1.00  0.00     0.000 HD 
BRANCH  28  33
HETATM   33  C   UNL     1     -10.382  10.433  70.178  1.00  0.00    -0.114 A  
HETATM   34  C   UNL     1     -11.406  11.206  69.614  1.00  0.00    -0.366 A  
HETATM   35  C   UNL     1     -10.676   9.106  70.527  1.00  0.00    -0.289 A  
HETATM   36  C   UNL     1     -11.954   8.558  70.301  1.00  0.00     0.293 A  
HETATM   37  C   UNL     1     -12.683  10.659  69.388  1.00  0.00     0.426 A  
HETATM   38  C   UNL     1     -12.954   9.335  69.729  1.00  0.00     1.926 A  
ENDBRANCH  28  33
BRANCH  31  39
HETATM   39  C   UNL     1      -5.618  14.172  69.887  1.00  0.00    -0.105 C  
HETATM   40  C   UNL     1      -5.293  15.894  71.705  1.00  0.00     0.182 C  
HETATM   41  C   UNL     1      -5.679  16.518  70.409  1.00  0.00    -0.107 A  
HETATM   42  H   UNL     1      -5.577  13.776  73.223  1.00  0.00     0.000 HD 
HETATM   43  C   UNL     1      -5.141  14.396  71.361  1.00  0.00    -0.143 C  
HETATM   44  O   UNL     1      -5.868  13.640  72.328  1.00  0.00    -0.418 OA 
HETATM   45  C   UNL     1      -5.846  17.882  70.166  1.00  0.00    -0.186 A  
HETATM   46  C   UNL     1      -6.153  18.293  68.869  1.00  0.00    -0.217 A  
HETATM   47  C   UNL     1      -6.274  17.354  67.841  1.00  0.00    -0.156 A  
HETATM   48  C   UNL     1      -6.125  15.987  68.095  1.00  0.00    -0.126 A  
HETATM   49  C   UNL     1      -5.837  15.577  69.400  1.00  0.00    -0.115 A  
ENDBRANCH  31  39
ENDBRANCH  23  26
ENDBRANCH  22  23
ENDBRANCH  12  22
ENDBRANCH   6   9
TORSDOF 8
ENDMDL
MODEL      197
REMARK 921   NORMALIZED FREE ENERGY PREDICTED BY IDOCK:    8.23 KCAL/MOL
REMARK 922        TOTAL FREE ENERGY PREDICTED BY IDOCK:   10.11 KCAL/MOL
REMARK 923 INTER-LIGAND FREE ENERGY PREDICTED BY IDOCK:    7.78 KCAL/MOL
REMARK 924 INTRA-LIGAND FREE ENERGY PREDICTED BY IDOCK:    2.34 KCAL/MOL
REMARK 927      BINDING AFFINITY PREDICTED BY RF-SCORE:    0.00 PKD
ROOT
HETATM    1  C   UNL     1     -11.554  14.177  63.029  1.00  0.00     1.820 C  
HETATM    2  C   UNL     1     -12.099  14.352  64.450  1.00  0.00    -0.470 C  
HETATM    3  N   UNL     1     -12.600  13.093  65.087  1.00  0.00    -0.590 N  
HETATM    4  C   UNL     1     -13.313  15.319  64.335  1.00  0.00     1.852 C  
HETATM    5  C   UNL     1     -11.056  15.071  65.320  1.00  0.00    -0.391 C  
HETATM    6  C   UNL     1     -12.126  11.881  65.512  1.00  0.00     0.182 C  
HETATM    7  H   UNL     1     -13.604  13.159  65.256  1.00  0.00     0.000 HD 
HETATM    8  O   UNL     1     -12.889  11.262  66.268  1.00  0.00     3.129 OA 
ENDROOT
BRANCH   6   9
HETATM    9  C   UNL     1     -10.800  11.236  65.072  1.00  0.00    -0.216 C  
HETATM   10  C   UNL     1     -10.351   9.896  65.780  1.00  0.00    -0.084 C  
HETATM   11  N   UNL     1      -9.319   9.177  64.966  1.00  0.00    -0.139 NA 
HETATM   12  N   UNL     1      -9.671  12.204  64.969  1.00  0.00    -0.155 NA 
HETATM   13  C   UNL     1      -8.266  10.115  64.487  1.00  0.00    -0.162 C  
HETATM   14  C   UNL     1      -8.741  11.521  64.024  1.00  0.00     0.546 C  
BRANCH  11  15
HETATM   15  C   UNL     1      -8.642   8.076  65.692  1.00  0.00    -0.145 C  
BRANCH  15  16
HETATM   16  C   UNL     1      -9.449   7.301  66.704  1.00  0.00    -0.228 A  
HETATM   17  C   UNL     1     -10.202   7.969  67.667  1.00  0.00    -0.228 A  
HETATM   18  N   UNL     1     -10.837   7.369  68.703  1.00  0.00    -0.099 NA 
HETATM   19  C   UNL     1      -9.995   5.264  67.888  1.00  0.00    -0.206 A  
HETATM   20  C   UNL     1     -10.715   6.029  68.791  1.00  0.00    -0.308 A  
HETATM   21  C   UNL     1      -9.352   5.913  66.832  1.00  0.00    -0.136 A  
ENDBRANCH  15  16
ENDBRANCH  11  15
BRANCH  12  22
HETATM   22  C   UNL     1      -8.918  12.568  66.227  1.00  0.00    -0.003 C  
BRANCH  22  23
HETATM   23  C   UNL     1      -7.542  13.291  66.134  1.00  0.00     2.476 C  
HETATM   24  O   UNL     1      -7.754  14.702  66.308  1.00  0.00     0.240 OA 
HETATM   25  H   UNL     1      -6.914  15.144  66.251  1.00  0.00     0.000 HD 
BRANCH  23  26
HETATM   26  C   UNL     1      -6.495  12.989  67.246  1.00  0.00     0.013 C  
HETATM   27  C   UNL     1      -6.509  13.752  68.595  1.00  0.00    -0.093 C  
HETATM   28  C   UNL     1      -5.656  12.962  69.647  1.00  0.00    -0.096 C  
HETATM   29  C   UNL     1      -5.924  15.170  68.422  1.00  0.00    -0.105 C  
HETATM   30  O   UNL     1      -5.129  15.450  67.530  1.00  0.00    -0.301 OA 
HETATM   31  N   UNL     1      -6.350  16.121  69.331  1.00  0.00    -0.167 N  
HETATM   32  H   UNL     1      -6.846  15.824  70.171  1.00  0.00     0.000 HD 
BRANCH  28  33
HETATM   33  C   UNL     1      -6.155  11.572  70.045  1.00  0.00    -0.151 A  
HETATM   34  C   UNL     1      -5.527  10.836  71.059  1.00  0.00    -0.081 A  
HETATM   35  C   UNL     1      -7.232  10.976  69.371  1.00  0.00    -0.114 A  
HETATM   36  C   UNL     1      -7.683   9.686  69.713  1.00  0.00    -0.133 A  
HETATM   37  C   UNL     1      -5.978   9.548  71.401  1.00  0.00    -0.052 A  
HETATM   38  C   UNL     1      -7.057   8.976  70.730  1.00  0.00    -0.092 A  
ENDBRANCH  28  33
BRANCH  31  39
HETATM   39  C   UNL     1      -6.102  17.561  69.105  1.00  0.00    -0.218 C  
HETATM   40  C   UNL     1      -7.937  19.233  68.644  1.00  0.00    -0.405 C  
HETATM   41  C   UNL     1      -7.233  18.821  67.398  1.00  0.00    -0.215 A  
HETATM   42  H   UNL     1      -8.723  18.439  71.014  1.00  0.00     0.000 HD 
HETATM   43  C   UNL     1      -7.151  18.519  69.764  1.00  0.00     0.298 C  
HETATM   44  O   UNL     1      -8.087  17.858  70.614  1.00  0.00     3.636 OA 
HETATM   45  C   UNL     1      -7.504  19.276  66.107  1.00  0.00    -0.294 A  
HETATM   46  C   UNL     1      -6.700  18.823  65.061  1.00  0.00     0.061 A  
HETATM   47  C   UNL     1      -5.642  17.945  65.313  1.00  0.00    -0.018 A  
HETATM   48  C   UNL     1      -5.388  17.478  66.606  1.00  0.00    -0.211 A  
HETATM   49  C   UNL     1      -6.208  17.918  67.649  1.00  0.00    -0.171 A  
ENDBRANCH  31  39
ENDBRANCH  23  26
ENDBRANCH  22  23
ENDBRANCH  12  22
ENDBRANCH   6   9
TORSDOF 8
ENDMDL
MODEL      198
REMARK 921   NORMALIZED FREE ENERGY PREDICTED BY IDOCK:    8.32 KCAL/MOL
REMARK 922        TOTAL FREE ENERGY PREDICTED BY IDOCK:   10.25 KCAL/MOL
REMARK 923 INTER-LIGAND FREE ENERGY PREDICTED BY IDOCK:   -2.07 KCAL/MOL
REMARK 924 INTRA-LIGAND FREE ENERGY PREDICTED BY IDOCK:   12.32 KCAL/MOL
REMARK 927      BINDING AFFINITY PREDICTED BY RF-SCORE:    0.00 PKD
ROOT
HETATM    1  C   UNL     1      -8.124   6.757  72.202  1.00  0.00    -0.100 C  
HETATM    2  C   UNL     1      -7.575   7.666  73.306  1.00  0.00    -0.104 C  
HETATM    3  N   UNL     1      -6.445   8.553  72.882  1.00  0.00    -0.095 N  
HETATM    4  C   UNL     1      -7.021   6.723  74.412  1.00  0.00    -0.091 C  
HETATM    5  C   UNL     1      -8.726   8.455  73.948  1.00  0.00    -0.034 C  
HETATM    6  C   UNL     1      -6.204   9.594  72.025  1.00  0.00     0.334 C  
HETATM    7  H   UNL     1      -5.594   8.305  73.385  1.00  0.00     0.000 HD 
HETATM    8  O   UNL     1      -5.151  10.212  72.245  1.00  0.00    -0.169 OA 
ENDROOT
BRANCH   6   9
HETATM    9  C   UNL     1      -7.078   9.981  70.820  1.00  0.00     0.128 C  
HETATM   10  C   UNL     1      -8.644   9.812  70.949  1.00  0.00     0.506 C  
HETATM   11  N   UNL     1      -9.360  10.622  69.912  1.00  0.00     0.248 NA 
HETATM   12  N   UNL     1      -6.576   9.445  69.522  1.00  0.00    -0.043 NA 
HETATM   13  C   UNL     1      -8.735  10.449  68.571  1.00  0.00    -0.135 C  
HETATM   14  C   UNL     1      -7.182  10.377  68.528  1.00  0.00    -0.084 C  
BRANCH  11  15
HETATM   15  C   UNL     1     -10.799  10.292  69.781  1.00  0.00    -0.287 C  
BRANCH  15  16
HETATM   16  C   UNL     1     -11.798  11.399  70.013  1.00  0.00    -0.440 A  
HETATM   17  C   UNL     1     -12.142  12.267  68.980  1.00  0.00    -0.145 A  
HETATM   18  N   UNL     1     -12.909  13.375  69.126  1.00  0.00     0.766 NA 
HETATM   19  C   UNL     1     -13.084  12.841  71.469  1.00  0.00    -0.380 A  
HETATM   20  C   UNL     1     -13.360  13.637  70.369  1.00  0.00     0.539 A  
HETATM   21  C   UNL     1     -12.289  11.707  71.285  1.00  0.00    -0.286 A  
ENDBRANCH  15  16
ENDBRANCH  11  15
BRANCH  12  22
HETATM   22  C   UNL     1      -6.927   8.026  69.146  1.00  0.00    -0.057 C  
BRANCH  22  23
HETATM   23  C   UNL     1      -8.372   7.491  69.371  1.00  0.00    -0.132 C  
HETATM   24  O   UNL     1      -9.243   8.610  69.601  1.00  0.00    -0.153 OA 
HETATM   25  H   UNL     1     -10.125   8.284  69.738  1.00  0.00     0.000 HD 
BRANCH  23  26
HETATM   26  C   UNL     1      -9.071   6.785  68.173  1.00  0.00    -0.123 C  
HETATM   27  C   UNL     1      -8.443   6.791  66.756  1.00  0.00    -0.117 C  
HETATM   28  C   UNL     1      -9.115   5.672  65.886  1.00  0.00    -0.158 C  
HETATM   29  C   UNL     1      -8.650   8.161  66.076  1.00  0.00    -0.147 C  
HETATM   30  O   UNL     1      -9.572   8.913  66.376  1.00  0.00    -0.197 OA 
HETATM   31  N   UNL     1      -7.727   8.507  65.105  1.00  0.00    -0.097 N  
HETATM   32  H   UNL     1      -7.099   7.793  64.736  1.00  0.00     0.000 HD 
BRANCH  28  33
HETATM   33  C   UNL     1      -8.912   4.225  66.335  1.00  0.00    -0.120 A  
HETATM   34  C   UNL     1      -9.612   3.697  67.427  1.00  0.00    -0.197 A  
HETATM   35  C   UNL     1      -7.980   3.397  65.689  1.00  0.00    -0.089 A  
HETATM   36  C   UNL     1      -7.768   2.070  66.110  1.00  0.00    -0.074 A  
HETATM   37  C   UNL     1      -9.401   2.371  67.849  1.00  0.00    -0.237 A  
HETATM   38  C   UNL     1      -8.481   1.558  67.188  1.00  0.00    -0.093 A  
ENDBRANCH  28  33
BRANCH  31  39
HETATM   39  C   UNL     1      -7.636   9.890  64.592  1.00  0.00    -0.139 C  
HETATM   40  C   UNL     1      -7.199  11.893  66.066  1.00  0.00     0.846 C  
HETATM   41  C   UNL     1      -8.641  11.760  65.720  1.00  0.00     0.214 A  
HETATM   42  H   UNL     1      -4.988  10.570  66.544  1.00  0.00     0.000 HD 
HETATM   43  C   UNL     1      -6.522  10.764  65.259  1.00  0.00     0.072 C  
HETATM   44  O   UNL     1      -5.664  10.040  66.139  1.00  0.00    -0.054 OA 
HETATM   45  C   UNL     1      -9.670  12.613  66.123  1.00  0.00    -0.253 A  
HETATM   46  C   UNL     1     -10.960  12.367  65.653  1.00  0.00    -0.321 A  
HETATM   47  C   UNL     1     -11.203  11.298  64.786  1.00  0.00    -0.128 A  
HETATM   48  C   UNL     1     -10.172  10.436  64.402  1.00  0.00    -0.245 A  
HETATM   49  C   UNL     1      -8.884  10.673  64.891  1.00  0.00    -0.204 A  
ENDBRANCH  31  39
ENDBRANCH  23  26
ENDBRANCH  22  23
ENDBRANCH  12  22
ENDBRANCH   6   9
TORSDOF 8
ENDMDL
MODEL      199
REMARK 921   NORMALIZED FREE ENERGY PREDICTED BY IDOCK:    8.69 KCAL/MOL
REMARK 922        TOTAL FREE ENERGY PREDICTED BY IDOCK:   10.78 KCAL/MOL
REMARK 923 INTER-LIGAND FREE ENERGY PREDICTED BY IDOCK:    5.97 KCAL/MOL
REMARK 924 INTRA-LIGAND FREE ENERGY PREDICTED BY IDOCK:    4.81 KCAL/MOL
REMARK 927      BINDING AFFINITY PREDICTED BY RF-SCORE:    0.00 PKD
ROOT
HETATM    1  C   UNL     1     -12.034   9.708  69.964  1.00  0.00     0.065 C  
HETATM    2  C   UNL     1     -12.651  11.110  69.941  1.00  0.00    -0.105 C  
HETATM    3  N   UNL     1     -11.754  12.197  70.447  1.00  0.00    -0.532 N  
HETATM    4  C   UNL     1     -13.883  11.059  70.890  1.00  0.00     1.409 C  
HETATM    5  C   UNL     1     -13.199  11.412  68.538  1.00  0.00     4.169 C  
HETATM    6  C   UNL     1     -10.572  12.807  70.122  1.00  0.00     1.726 C  
HETATM    7  H   UNL     1     -12.143  12.609  71.295  1.00  0.00     0.000 HD 
HETATM    8  O   UNL     1     -10.374  13.890  70.693  1.00  0.00     1.597 OA 
ENDROOT
BRANCH   6   9
HETATM    9  C   UNL     1      -9.492  12.226  69.192  1.00  0.00     0.551 C  
HETATM   10  C   UNL     1      -9.760  12.246  67.635  1.00  0.00    -0.194 C  
HETATM   11  N   UNL     1      -8.484  12.075  66.867  1.00  0.00    -0.178 NA 
HETATM   12  N   UNL     1      -8.967  10.904  69.640  1.00  0.00     0.257 NA 
HETATM   13  C   UNL     1      -7.663  10.968  67.433  1.00  0.00    -0.114 C  
HETATM   14  C   UNL     1      -7.630  10.846  68.983  1.00  0.00    -0.135 C  
BRANCH  11  15
HETATM   15  C   UNL     1      -8.684  11.792  65.426  1.00  0.00     0.359 C  
BRANCH  15  16
HETATM   16  C   UNL     1     -10.042  12.080  64.835  1.00  0.00    -0.289 A  
HETATM   17  C   UNL     1     -10.993  11.068  64.727  1.00  0.00    -0.072 A  
HETATM   18  N   UNL     1     -12.178  11.188  64.081  1.00  0.00     0.732 NA 
HETATM   19  C   UNL     1     -11.563  13.457  63.555  1.00  0.00    -0.198 A  
HETATM   20  C   UNL     1     -12.434  12.381  63.507  1.00  0.00    -0.500 A  
HETATM   21  C   UNL     1     -10.350  13.300  64.228  1.00  0.00    -0.315 A  
ENDBRANCH  15  16
ENDBRANCH  11  15
BRANCH  12  22
HETATM   22  C   UNL     1      -9.748   9.662  69.282  1.00  0.00    -0.185 C  
BRANCH  22  23
HETATM   23  C   UNL     1     -10.032   8.578  70.364  1.00  0.00    -0.183 C  
HETATM   24  O   UNL     1     -11.035   7.681  69.859  1.00  0.00    -0.279 OA 
HETATM   25  H   UNL     1     -11.208   7.019  70.519  1.00  0.00     0.000 HD 
BRANCH  23  26
HETATM   26  C   UNL     1      -8.877   7.596  70.716  1.00  0.00    -0.144 C  
HETATM   27  C   UNL     1      -7.569   7.559  69.885  1.00  0.00    -0.093 C  
HETATM   28  C   UNL     1      -6.454   6.820  70.704  1.00  0.00    -0.051 C  
HETATM   29  C   UNL     1      -7.795   6.821  68.549  1.00  0.00    -0.118 C  
HETATM   30  O   UNL     1      -8.677   5.980  68.401  1.00  0.00    -0.114 OA 
HETATM   31  N   UNL     1      -6.948   7.164  67.510  1.00  0.00    -0.076 N  
HETATM   32  H   UNL     1      -6.108   7.708  67.709  1.00  0.00     0.000 HD 
BRANCH  28  33
HETATM   33  C   UNL     1      -6.001   7.473  72.011  1.00  0.00    -0.036 A  
HETATM   34  C   UNL     1      -5.905   6.736  73.198  1.00  0.00    -0.046 A  
HETATM   35  C   UNL     1      -5.712   8.846  72.064  1.00  0.00    -0.063 A  
HETATM   36  C   UNL     1      -5.318   9.462  73.267  1.00  0.00    -0.054 A  
HETATM   37  C   UNL     1      -5.512   7.351  74.401  1.00  0.00    -0.058 A  
HETATM   38  C   UNL     1      -5.216   8.713  74.433  1.00  0.00    -0.095 A  
ENDBRANCH  28  33
BRANCH  31  39
HETATM   39  C   UNL     1      -7.238   6.758  66.119  1.00  0.00    -0.067 C  
HETATM   40  C   UNL     1      -5.445   6.273  64.409  1.00  0.00    -0.018 C  
HETATM   41  C   UNL     1      -6.028   7.632  64.234  1.00  0.00    -0.048 A  
HETATM   42  H   UNL     1      -4.819   4.428  66.162  1.00  0.00     0.000 HD 
HETATM   43  C   UNL     1      -6.287   5.655  65.545  1.00  0.00    -0.038 C  
HETATM   44  O   UNL     1      -5.396   5.099  66.510  1.00  0.00    -0.008 OA 
HETATM   45  C   UNL     1      -5.674   8.564  63.257  1.00  0.00    -0.072 A  
HETATM   46  C   UNL     1      -6.371   9.770  63.206  1.00  0.00    -0.116 A  
HETATM   47  C   UNL     1      -7.408  10.025  64.108  1.00  0.00    -0.132 A  
HETATM   48  C   UNL     1      -7.745   9.096  65.097  1.00  0.00    -0.104 A  
HETATM   49  C   UNL     1      -7.031   7.896  65.158  1.00  0.00    -0.059 A  
ENDBRANCH  31  39
ENDBRANCH  23  26
ENDBRANCH  22  23
ENDBRANCH  12  22
ENDBRANCH   6   9
TORSDOF 8
ENDMDL
MODEL      200
REMARK 921   NORMALIZED FREE ENERGY PREDICTED BY IDOCK:    8.99 KCAL/MOL
REMARK 922        TOTAL FREE ENERGY PREDICTED BY IDOCK:   11.23 KCAL/MOL
REMARK 923 INTER-LIGAND FREE ENERGY PREDICTED BY IDOCK:    7.29 KCAL/MOL
REMARK 924 INTRA-LIGAND FREE ENERGY PREDICTED BY IDOCK:    3.94 KCAL/MOL
REMARK 927      BINDING AFFINITY PREDICTED BY RF-SCORE:    0.00 PKD
ROOT
HETATM    1  C   UNL     1      -8.868  16.603  68.893  1.00  0.00    -0.238 C  
HETATM    2  C   UNL     1      -9.512  15.910  67.688  1.00  0.00    -0.219 C  
HETATM    3  N   UNL     1      -8.554  15.171  66.806  1.00  0.00    -0.274 N  
HETATM    4  C   UNL     1     -10.149  17.037  66.825  1.00  0.00    -0.300 C  
HETATM    5  C   UNL     1     -10.673  15.021  68.162  1.00  0.00    -0.256 C  
HETATM    6  C   UNL     1      -7.704  14.099  66.859  1.00  0.00     0.363 C  
HETATM    7  H   UNL     1      -8.525  15.599  65.881  1.00  0.00     0.000 HD 
HETATM    8  O   UNL     1      -7.331  13.678  65.754  1.00  0.00     3.495 OA 
ENDROOT
BRANCH   6   9
HETATM    9  C   UNL     1      -7.153  13.458  68.145  1.00  0.00    -0.116 C  
HETATM   10  C   UNL     1      -6.610  11.976  68.066  1.00  0.00    -0.069 C  
HETATM   11  N   UNL     1      -5.725  11.665  69.235  1.00  0.00    -0.054 NA 
HETATM   12  N   UNL     1      -8.029  13.657  69.334  1.00  0.00     0.434 NA 
HETATM   13  C   UNL     1      -6.338  12.131  70.511  1.00  0.00     0.428 C  
HETATM   14  C   UNL     1      -7.078  13.498  70.471  1.00  0.00     1.441 C  
BRANCH  11  15
HETATM   15  C   UNL     1      -5.417  10.223  69.387  1.00  0.00    -0.038 C  
BRANCH  15  16
HETATM   16  C   UNL     1      -6.221   9.434  70.390  1.00  0.00    -0.061 A  
HETATM   17  C   UNL     1      -6.836  10.076  71.462  1.00  0.00     0.860 A  
HETATM   18  N   UNL     1      -7.451   9.443  72.491  1.00  0.00     0.381 NA 
HETATM   19  C   UNL     1      -6.877   7.354  71.436  1.00  0.00    -0.050 A  
HETATM   20  C   UNL     1      -7.454   8.095  72.454  1.00  0.00    -0.116 A  
HETATM   21  C   UNL     1      -6.250   8.037  70.392  1.00  0.00    -0.036 A  
ENDBRANCH  15  16
ENDBRANCH  11  15
BRANCH  12  22
HETATM   22  C   UNL     1      -9.196  12.719  69.532  1.00  0.00     1.626 C  
BRANCH  22  23
HETATM   23  C   UNL     1      -8.967  11.179  69.561  1.00  0.00     0.510 C  
HETATM   24  O   UNL     1      -9.764  10.618  70.617  1.00  0.00     0.338 OA 
HETATM   25  H   UNL     1      -9.623   9.678  70.634  1.00  0.00     0.000 HD 
BRANCH  23  26
HETATM   26  C   UNL     1      -9.448  10.359  68.329  1.00  0.00    -0.153 C  
HETATM   27  C   UNL     1     -10.837   9.671  68.312  1.00  0.00    -0.230 C  
HETATM   28  C   UNL     1     -11.218   9.307  66.835  1.00  0.00     0.767 C  
HETATM   29  C   UNL     1     -10.817   8.386  69.167  1.00  0.00    -0.023 C  
HETATM   30  O   UNL     1      -9.786   7.754  69.384  1.00  0.00    -0.171 OA 
HETATM   31  N   UNL     1     -12.032   7.980  69.689  1.00  0.00     0.245 N  
HETATM   32  H   UNL     1     -12.892   8.398  69.336  1.00  0.00     0.000 HD 
BRANCH  28  33
HETATM   33  C   UNL     1     -11.409  10.468  65.859  1.00  0.00     0.745 A  
HETATM   34  C   UNL     1     -10.991  10.374  64.525  1.00  0.00     1.002 A  
HETATM   35  C   UNL     1     -11.972  11.681  66.288  1.00  0.00     0.406 A  
HETATM   36  C   UNL     1     -12.129  12.765  65.403  1.00  0.00    -0.512 A  
HETATM   37  C   UNL     1     -11.148  11.457  63.641  1.00  0.00    -0.411 A  
HETATM   38  C   UNL     1     -11.720  12.650  64.080  1.00  0.00    -0.496 A  
ENDBRANCH  28  33
BRANCH  31  39
HETATM   39  C   UNL     1     -12.106   6.952  70.749  1.00  0.00    -0.349 C  
HETATM   40  C   UNL     1     -10.581   6.916  72.761  1.00  0.00    -0.270 C  
HETATM   41  C   UNL     1     -10.149   5.945  71.717  1.00  0.00    -0.228 A  
HETATM   42  H   UNL     1     -11.712   9.244  73.173  1.00  0.00     0.000 HD 
HETATM   43  C   UNL     1     -11.900   7.493  72.203  1.00  0.00    -0.298 C  
HETATM   44  O   UNL     1     -11.836   8.916  72.290  1.00  0.00    -0.353 OA 
HETATM   45  C   UNL     1      -9.051   5.086  71.791  1.00  0.00    -0.160 A  
HETATM   46  C   UNL     1      -8.832   4.198  70.739  1.00  0.00    -0.134 A  
HETATM   47  C   UNL     1      -9.705   4.165  69.648  1.00  0.00    -0.269 A  
HETATM   48  C   UNL     1     -10.792   5.041  69.572  1.00  0.00     0.487 A  
HETATM   49  C   UNL     1     -10.998   5.944  70.618  1.00  0.00    -0.357 A  
ENDBRANCH  31  39
ENDBRANCH  23  26
ENDBRANCH  22  23
ENDBRANCH  12  22
ENDBRANCH   6   9
TORSDOF 8
ENDMDL
MODEL      201
REMARK 921   NORMALIZED FREE ENERGY PREDICTED BY IDOCK:   10.48 KCAL/MOL
REMARK 922        TOTAL FREE ENERGY PREDICTED BY IDOCK:   13.42 KCAL/MOL
REMARK 923 INTER-LIGAND FREE ENERGY PREDICTED BY IDOCK:   10.98 KCAL/MOL
REMARK 924 INTRA-LIGAND FREE ENERGY PREDICTED BY IDOCK:    2.44 KCAL/MOL
REMARK 927      BINDING AFFINITY PREDICTED BY RF-SCORE:    0.00 PKD
ROOT
HETATM    1  C   UNL     1      -7.507   9.963  64.643  1.00  0.00    -0.140 C  
HETATM    2  C   UNL     1      -6.447   9.022  65.224  1.00  0.00    -0.068 C  
HETATM    3  N   UNL     1      -5.792   9.516  66.476  1.00  0.00    -0.054 N  
HETATM    4  C   UNL     1      -5.332   8.903  64.144  1.00  0.00    -0.056 C  
HETATM    5  C   UNL     1      -7.039   7.615  65.391  1.00  0.00    -0.063 C  
HETATM    6  C   UNL     1      -6.115   9.811  67.774  1.00  0.00    -0.051 C  
HETATM    7  H   UNL     1      -4.799   9.685  66.312  1.00  0.00     0.000 HD 
HETATM    8  O   UNL     1      -5.145   9.908  68.540  1.00  0.00    -0.033 OA 
ENDROOT
BRANCH   6   9
HETATM    9  C   UNL     1      -7.534  10.089  68.300  1.00  0.00    -0.079 C  
HETATM   10  C   UNL     1      -8.661  10.448  67.253  1.00  0.00    -0.125 C  
HETATM   11  N   UNL     1     -10.025  10.250  67.841  1.00  0.00    -0.160 NA 
HETATM   12  N   UNL     1      -7.566  11.007  69.475  1.00  0.00    -0.058 NA 
HETATM   13  C   UNL     1     -10.110  10.839  69.207  1.00  0.00    -0.177 C  
HETATM   14  C   UNL     1      -8.865  10.664  70.122  1.00  0.00     0.946 C  
BRANCH  11  15
HETATM   15  C   UNL     1     -11.119  10.838  67.032  1.00  0.00    -0.174 C  
BRANCH  15  16
HETATM   16  C   UNL     1     -10.818  11.193  65.597  1.00  0.00    -0.206 A  
HETATM   17  C   UNL     1      -9.555  11.653  65.234  1.00  0.00    -0.197 A  
HETATM   18  N   UNL     1      -9.231  12.135  64.009  1.00  0.00     0.349 NA 
HETATM   19  C   UNL     1     -11.511  11.731  63.342  1.00  0.00    -0.424 A  
HETATM   20  C   UNL     1     -10.220  12.166  63.093  1.00  0.00    -0.147 A  
HETATM   21  C   UNL     1     -11.812  11.241  64.615  1.00  0.00     0.360 A  
ENDBRANCH  15  16
ENDBRANCH  11  15
BRANCH  12  22
HETATM   22  C   UNL     1      -7.516  12.495  69.225  1.00  0.00     0.293 C  
BRANCH  22  23
HETATM   23  C   UNL     1      -6.425  13.368  69.912  1.00  0.00     0.003 C  
HETATM   24  O   UNL     1      -5.161  12.692  69.801  1.00  0.00    -0.073 OA 
HETATM   25  H   UNL     1      -4.495  13.224  70.220  1.00  0.00     0.000 HD 
BRANCH  23  26
HETATM   26  C   UNL     1      -6.102  14.750  69.272  1.00  0.00    -0.106 C  
HETATM   27  C   UNL     1      -7.223  15.657  68.705  1.00  0.00    -0.133 C  
HETATM   28  C   UNL     1      -6.675  17.117  68.536  1.00  0.00    -0.178 C  
HETATM   29  C   UNL     1      -7.708  15.131  67.338  1.00  0.00    -0.197 C  
HETATM   30  O   UNL     1      -6.999  14.448  66.605  1.00  0.00     0.597 OA 
HETATM   31  N   UNL     1      -9.002  15.466  66.978  1.00  0.00    -0.215 N  
HETATM   32  H   UNL     1      -9.495  16.190  67.501  1.00  0.00     0.000 HD 
BRANCH  28  33
HETATM   33  C   UNL     1      -6.258  17.856  69.808  1.00  0.00    -0.172 A  
HETATM   34  C   UNL     1      -6.508  19.224  69.969  1.00  0.00    -0.143 A  
HETATM   35  C   UNL     1      -5.570  17.187  70.833  1.00  0.00     0.109 A  
HETATM   36  C   UNL     1      -5.160  17.865  71.998  1.00  0.00     0.780 A  
HETATM   37  C   UNL     1      -6.099  19.902  71.133  1.00  0.00    -0.216 A  
HETATM   38  C   UNL     1      -5.428  19.220  72.147  1.00  0.00     0.085 A  
ENDBRANCH  28  33
BRANCH  31  39
HETATM   39  C   UNL     1      -9.682  14.794  65.851  1.00  0.00    -0.323 C  
HETATM   40  C   UNL     1     -11.254  15.978  64.269  1.00  0.00    -0.079 C  
HETATM   41  C   UNL     1     -11.988  15.196  65.302  1.00  0.00     0.009 A  
HETATM   42  H   UNL     1      -9.092  17.379  63.790  1.00  0.00     0.000 HD 
HETATM   43  C   UNL     1      -9.771  15.642  64.538  1.00  0.00     2.093 C  
HETATM   44  O   UNL     1      -9.038  16.865  64.587  1.00  0.00     2.706 OA 
HETATM   45  C   UNL     1     -13.374  15.085  65.425  1.00  0.00     1.237 A  
HETATM   46  C   UNL     1     -13.889  14.258  66.422  1.00  0.00     4.493 A  
HETATM   47  C   UNL     1     -13.028  13.548  67.264  1.00  0.00     1.699 A  
HETATM   48  C   UNL     1     -11.641  13.678  67.149  1.00  0.00    -0.392 A  
HETATM   49  C   UNL     1     -11.128  14.524  66.162  1.00  0.00    -0.334 A  
ENDBRANCH  31  39
ENDBRANCH  23  26
ENDBRANCH  22  23
ENDBRANCH  12  22
ENDBRANCH   6   9
TORSDOF 8
ENDMDL
MODEL      202
REMARK 921   NORMALIZED FREE ENERGY PREDICTED BY IDOCK:   10.90 KCAL/MOL
REMARK 922        TOTAL FREE ENERGY PREDICTED BY IDOCK:   14.03 KCAL/MOL
REMARK 923 INTER-LIGAND FREE ENERGY PREDICTED BY IDOCK:   10.32 KCAL/MOL
REMARK 924 INTRA-LIGAND FREE ENERGY PREDICTED BY IDOCK:    3.71 KCAL/MOL
REMARK 927      BINDING AFFINITY PREDICTED BY RF-SCORE:    0.00 PKD
ROOT
HETATM    1  C   UNL     1     -11.004  14.896  68.520  1.00  0.00    -0.260 C  
HETATM    2  C   UNL     1     -10.837  16.166  67.679  1.00  0.00    -0.297 C  
HETATM    3  N   UNL     1      -9.420  16.619  67.506  1.00  0.00    -0.227 N  
HETATM    4  C   UNL     1     -11.585  17.296  68.443  1.00  0.00     0.802 C  
HETATM    5  C   UNL     1     -11.564  15.997  66.336  1.00  0.00     0.626 C  
HETATM    6  C   UNL     1      -8.252  16.190  66.933  1.00  0.00    -0.238 C  
HETATM    7  H   UNL     1      -9.282  17.525  67.952  1.00  0.00     0.000 HD 
HETATM    8  O   UNL     1      -7.391  17.071  66.790  1.00  0.00    -0.180 OA 
ENDROOT
BRANCH   6   9
HETATM    9  C   UNL     1      -7.930  14.738  66.540  1.00  0.00     0.565 C  
HETATM   10  C   UNL     1      -9.036  13.910  65.773  1.00  0.00     0.713 C  
HETATM   11  N   UNL     1      -8.437  12.721  65.085  1.00  0.00     2.102 NA 
HETATM   12  N   UNL     1      -7.320  13.942  67.644  1.00  0.00    -0.163 NA 
HETATM   13  C   UNL     1      -7.504  11.992  65.990  1.00  0.00     0.952 C  
HETATM   14  C   UNL     1      -6.600  12.863  66.908  1.00  0.00     0.621 C  
BRANCH  11  15
HETATM   15  C   UNL     1      -9.438  11.744  64.594  1.00  0.00     0.012 C  
BRANCH  15  16
HETATM   16  C   UNL     1      -9.004  10.306  64.447  1.00  0.00    -0.255 A  
HETATM   17  C   UNL     1      -8.705   9.785  63.191  1.00  0.00    -0.225 A  
HETATM   18  N   UNL     1      -8.453   8.477  62.938  1.00  0.00    -0.141 NA 
HETATM   19  C   UNL     1      -8.784   8.048  65.286  1.00  0.00    -0.062 A  
HETATM   20  C   UNL     1      -8.502   7.639  63.993  1.00  0.00     0.251 A  
HETATM   21  C   UNL     1      -9.041   9.403  65.512  1.00  0.00    -0.270 A  
ENDBRANCH  15  16
ENDBRANCH  11  15
BRANCH  12  22
HETATM   22  C   UNL     1      -8.234  13.317  68.670  1.00  0.00    -0.014 C  
BRANCH  22  23
HETATM   23  C   UNL     1      -8.707  14.142  69.903  1.00  0.00     1.339 C  
HETATM   24  O   UNL     1      -8.430  15.531  69.657  1.00  0.00    -0.244 OA 
HETATM   25  H   UNL     1      -8.719  16.035  70.410  1.00  0.00     0.000 HD 
BRANCH  23  26
HETATM   26  C   UNL     1     -10.234  14.171  70.204  1.00  0.00     0.996 C  
HETATM   27  C   UNL     1     -10.920  13.033  71.001  1.00  0.00     3.169 C  
HETATM   28  C   UNL     1     -12.317  13.527  71.515  1.00  0.00    -0.186 C  
HETATM   29  C   UNL     1     -11.115  11.788  70.109  1.00  0.00     0.399 C  
HETATM   30  O   UNL     1     -11.194  11.858  68.886  1.00  0.00    -0.218 OA 
HETATM   31  N   UNL     1     -11.189  10.572  70.765  1.00  0.00    -0.387 N  
HETATM   32  H   UNL     1     -11.321  10.557  71.777  1.00  0.00     0.000 HD 
BRANCH  28  33
HETATM   33  C   UNL     1     -12.320  14.683  72.516  1.00  0.00    -0.342 A  
HETATM   34  C   UNL     1     -13.322  15.662  72.493  1.00  0.00    -0.604 A  
HETATM   35  C   UNL     1     -11.290  14.819  73.460  1.00  0.00     0.708 A  
HETATM   36  C   UNL     1     -11.271  15.894  74.369  1.00  0.00     2.457 A  
HETATM   37  C   UNL     1     -13.304  16.737  73.401  1.00  0.00     0.814 A  
HETATM   38  C   UNL     1     -12.280  16.849  74.341  1.00  0.00    -0.175 A  
ENDBRANCH  28  33
BRANCH  31  39
HETATM   39  C   UNL     1     -11.080   9.295  70.028  1.00  0.00    -0.205 C  
HETATM   40  C   UNL     1     -10.419   7.114  71.115  1.00  0.00    -0.225 C  
HETATM   41  C   UNL     1      -9.281   7.741  70.387  1.00  0.00    -0.156 A  
HETATM   42  H   UNL     1     -12.591   7.595  72.499  1.00  0.00     0.000 HD 
HETATM   43  C   UNL     1     -11.612   8.043  70.802  1.00  0.00    -0.242 C  
HETATM   44  O   UNL     1     -12.268   8.355  72.030  1.00  0.00    -0.319 OA 
HETATM   45  C   UNL     1      -7.988   7.227  70.275  1.00  0.00    -0.115 A  
HETATM   46  C   UNL     1      -7.061   7.924  69.501  1.00  0.00    -0.059 A  
HETATM   47  C   UNL     1      -7.433   9.100  68.843  1.00  0.00    -0.075 A  
HETATM   48  C   UNL     1      -8.724   9.620  68.975  1.00  0.00    -0.142 A  
HETATM   49  C   UNL     1      -9.645   8.930  69.768  1.00  0.00    -0.175 A  
ENDBRANCH  31  39
ENDBRANCH  23  26
ENDBRANCH  22  23
ENDBRANCH  12  22
ENDBRANCH   6   9
TORSDOF 8
ENDMDL
MODEL      203
REMARK 921   NORMALIZED FREE ENERGY PREDICTED BY IDOCK:   11.10 KCAL/MOL
REMARK 922        TOTAL FREE ENERGY PREDICTED BY IDOCK:   14.33 KCAL/MOL
REMARK 923 INTER-LIGAND FREE ENERGY PREDICTED BY IDOCK:   12.64 KCAL/MOL
REMARK 924 INTRA-LIGAND FREE ENERGY PREDICTED BY IDOCK:    1.69 KCAL/MOL
REMARK 927      BINDING AFFINITY PREDICTED BY RF-SCORE:    0.00 PKD
ROOT
HETATM    1  C   UNL     1      -7.655   4.695  66.057  1.00  0.00    -0.090 C  
HETATM    2  C   UNL     1      -7.210   5.795  65.088  1.00  0.00    -0.070 C  
HETATM    3  N   UNL     1      -8.054   7.032  65.116  1.00  0.00    -0.125 N  
HETATM    4  C   UNL     1      -7.333   5.194  63.659  1.00  0.00    -0.051 C  
HETATM    5  C   UNL     1      -5.720   6.102  65.301  1.00  0.00    -0.024 C  
HETATM    6  C   UNL     1      -8.390   8.045  65.975  1.00  0.00    -0.126 C  
HETATM    7  H   UNL     1      -8.524   7.159  64.220  1.00  0.00     0.000 HD 
HETATM    8  O   UNL     1      -8.906   9.033  65.434  1.00  0.00    -0.178 OA 
ENDROOT
BRANCH   6   9
HETATM    9  C   UNL     1      -8.239   8.005  67.506  1.00  0.00    -0.123 C  
HETATM   10  C   UNL     1      -9.522   7.689  68.373  1.00  0.00    -0.150 C  
HETATM   11  N   UNL     1      -9.143   7.251  69.756  1.00  0.00    -0.142 NA 
HETATM   12  N   UNL     1      -7.474   9.158  68.061  1.00  0.00    -0.084 NA 
HETATM   13  C   UNL     1      -8.097   8.143  70.332  1.00  0.00    -0.108 C  
HETATM   14  C   UNL     1      -6.980   8.625  69.363  1.00  0.00    -0.053 C  
BRANCH  11  15
HETATM   15  C   UNL     1     -10.278   7.220  70.708  1.00  0.00    -0.197 C  
BRANCH  15  16
HETATM   16  C   UNL     1     -11.274   8.351  70.652  1.00  0.00    -0.275 A  
HETATM   17  C   UNL     1     -10.968   9.589  71.211  1.00  0.00    -0.370 A  
HETATM   18  N   UNL     1     -11.845  10.615  71.343  1.00  0.00    -0.185 NA 
HETATM   19  C   UNL     1     -13.511   9.209  70.316  1.00  0.00     1.165 A  
HETATM   20  C   UNL     1     -13.098  10.398  70.894  1.00  0.00    -0.330 A  
HETATM   21  C   UNL     1     -12.583   8.171  70.197  1.00  0.00     1.156 A  
ENDBRANCH  15  16
ENDBRANCH  11  15
BRANCH  12  22
HETATM   22  C   UNL     1      -8.207  10.456  68.305  1.00  0.00    -0.114 C  
BRANCH  22  23
HETATM   23  C   UNL     1      -8.720  11.302  67.102  1.00  0.00    -0.151 C  
HETATM   24  O   UNL     1      -8.492  10.562  65.892  1.00  0.00    -0.150 OA 
HETATM   25  H   UNL     1      -8.805  11.079  65.158  1.00  0.00     0.000 HD 
BRANCH  23  26
HETATM   26  C   UNL     1     -10.250  11.580  67.021  1.00  0.00    -0.244 C  
HETATM   27  C   UNL     1     -10.799  13.017  66.837  1.00  0.00    -0.282 C  
HETATM   28  C   UNL     1     -12.292  12.945  66.360  1.00  0.00    -0.145 C  
HETATM   29  C   UNL     1     -10.722  13.802  68.163  1.00  0.00    -0.248 C  
HETATM   30  O   UNL     1     -10.721  13.247  69.258  1.00  0.00    -0.109 OA 
HETATM   31  N   UNL     1     -10.647  15.179  68.055  1.00  0.00    -0.253 N  
HETATM   32  H   UNL     1     -10.850  15.622  67.159  1.00  0.00     0.000 HD 
BRANCH  28  33
HETATM   33  C   UNL     1     -12.558  12.309  64.996  1.00  0.00    -0.157 A  
HETATM   34  C   UNL     1     -11.871  12.731  63.850  1.00  0.00    -0.541 A  
HETATM   35  C   UNL     1     -13.533  11.310  64.848  1.00  0.00     4.928 A  
HETATM   36  C   UNL     1     -13.802  10.735  63.591  1.00  0.00     5.148 A  
HETATM   37  C   UNL     1     -12.139  12.156  62.594  1.00  0.00     0.939 A  
HETATM   38  C   UNL     1     -13.103  11.156  62.467  1.00  0.00     2.821 A  
ENDBRANCH  28  33
BRANCH  31  39
HETATM   39  C   UNL     1     -10.277  16.019  69.213  1.00  0.00    -0.249 C  
HETATM   40  C   UNL     1     -10.891  18.460  69.413  1.00  0.00     1.218 C  
HETATM   41  C   UNL     1      -9.479  18.275  68.977  1.00  0.00    -0.148 A  
HETATM   42  H   UNL     1     -13.311  17.460  69.294  1.00  0.00     0.000 HD 
HETATM   43  C   UNL     1     -11.387  17.022  69.677  1.00  0.00     0.643 C  
HETATM   44  O   UNL     1     -12.637  16.852  69.012  1.00  0.00     1.407 OA 
HETATM   45  C   UNL     1      -8.558  19.288  68.707  1.00  0.00    -0.375 A  
HETATM   46  C   UNL     1      -7.255  18.927  68.365  1.00  0.00    -0.309 A  
HETATM   47  C   UNL     1      -6.887  17.580  68.313  1.00  0.00    -0.200 A  
HETATM   48  C   UNL     1      -7.819  16.569  68.565  1.00  0.00    -0.210 A  
HETATM   49  C   UNL     1      -9.129  16.934  68.888  1.00  0.00    -0.223 A  
ENDBRANCH  31  39
ENDBRANCH  23  26
ENDBRANCH  22  23
ENDBRANCH  12  22
ENDBRANCH   6   9
TORSDOF 8
ENDMDL
MODEL      204
REMARK 921   NORMALIZED FREE ENERGY PREDICTED BY IDOCK:   11.64 KCAL/MOL
REMARK 922        TOTAL FREE ENERGY PREDICTED BY IDOCK:   15.11 KCAL/MOL
REMARK 923 INTER-LIGAND FREE ENERGY PREDICTED BY IDOCK:   13.19 KCAL/MOL
REMARK 924 INTRA-LIGAND FREE ENERGY PREDICTED BY IDOCK:    1.92 KCAL/MOL
REMARK 927      BINDING AFFINITY PREDICTED BY RF-SCORE:    0.00 PKD
ROOT
HETATM    1  C   UNL     1     -14.014  15.394  71.130  1.00  0.00    -0.410 C  
HETATM    2  C   UNL     1     -12.556  15.544  71.575  1.00  0.00    -0.418 C  
HETATM    3  N   UNL     1     -12.143  14.628  72.686  1.00  0.00    -0.185 N  
HETATM    4  C   UNL     1     -12.410  16.999  72.108  1.00  0.00     1.762 C  
HETATM    5  C   UNL     1     -11.628  15.436  70.356  1.00  0.00    -0.352 C  
HETATM    6  C   UNL     1     -11.988  13.289  72.929  1.00  0.00     2.779 C  
HETATM    7  H   UNL     1     -11.905  15.168  73.518  1.00  0.00     0.000 HD 
HETATM    8  O   UNL     1     -11.320  13.020  73.938  1.00  0.00     6.937 OA 
ENDROOT
BRANCH   6   9
HETATM    9  C   UNL     1     -12.621  12.153  72.107  1.00  0.00     0.379 C  
HETATM   10  C   UNL     1     -11.818  10.799  71.964  1.00  0.00     1.385 C  
HETATM   11  N   UNL     1     -12.721   9.680  71.542  1.00  0.00    -0.359 NA 
HETATM   12  N   UNL     1     -13.175  12.601  70.797  1.00  0.00     0.254 NA 
HETATM   13  C   UNL     1     -13.609  10.102  70.422  1.00  0.00     0.484 C  
HETATM   14  C   UNL     1     -14.183  11.545  70.491  1.00  0.00     4.447 C  
BRANCH  11  15
HETATM   15  C   UNL     1     -12.001   8.459  71.107  1.00  0.00    -0.272 C  
BRANCH  15  16
HETATM   16  C   UNL     1     -10.858   7.975  71.965  1.00  0.00    -0.333 A  
HETATM   17  C   UNL     1     -10.985   6.810  72.716  1.00  0.00    -0.270 A  
HETATM   18  N   UNL     1     -10.077   6.375  73.625  1.00  0.00    -0.215 NA 
HETATM   19  C   UNL     1      -8.752   8.318  73.103  1.00  0.00    -0.291 A  
HETATM   20  C   UNL     1      -8.983   7.143  73.799  1.00  0.00    -0.190 A  
HETATM   21  C   UNL     1      -9.707   8.739  72.175  1.00  0.00    -0.335 A  
ENDBRANCH  15  16
ENDBRANCH  11  15
BRANCH  12  22
HETATM   22  C   UNL     1     -12.231  12.736  69.626  1.00  0.00    -0.126 C  
BRANCH  22  23
HETATM   23  C   UNL     1     -12.773  13.160  68.229  1.00  0.00     1.198 C  
HETATM   24  O   UNL     1     -13.033  14.574  68.249  1.00  0.00     0.372 OA 
HETATM   25  H   UNL     1     -13.364  14.833  67.396  1.00  0.00     0.000 HD 
BRANCH  23  26
HETATM   26  C   UNL     1     -11.807  13.033  67.015  1.00  0.00    -0.437 C  
HETATM   27  C   UNL     1     -10.358  13.580  67.077  1.00  0.00    -0.252 C  
HETATM   28  C   UNL     1      -9.512  12.941  65.921  1.00  0.00    -0.061 C  
HETATM   29  C   UNL     1     -10.351  15.116  66.929  1.00  0.00    -0.272 C  
HETATM   30  O   UNL     1     -11.247  15.727  66.353  1.00  0.00    -0.148 OA 
HETATM   31  N   UNL     1      -9.274  15.779  67.489  1.00  0.00    -0.203 N  
HETATM   32  H   UNL     1      -8.455  15.245  67.780  1.00  0.00     0.000 HD 
BRANCH  28  33
HETATM   33  C   UNL     1      -9.300  11.428  65.967  1.00  0.00    -0.235 A  
HETATM   34  C   UNL     1      -9.637  10.612  64.879  1.00  0.00    -0.323 A  
HETATM   35  C   UNL     1      -8.801  10.808  67.124  1.00  0.00    -0.135 A  
HETATM   36  C   UNL     1      -8.626   9.412  67.185  1.00  0.00    -0.130 A  
HETATM   37  C   UNL     1      -9.462   9.217  64.940  1.00  0.00    -0.051 A  
HETATM   38  C   UNL     1      -8.953   8.619  66.092  1.00  0.00    -0.221 A  
ENDBRANCH  28  33
BRANCH  31  39
HETATM   39  C   UNL     1      -9.288  17.245  67.675  1.00  0.00    -0.237 C  
HETATM   40  C   UNL     1      -7.973  18.844  66.230  1.00  0.00    -0.291 C  
HETATM   41  C   UNL     1      -7.301  18.590  67.534  1.00  0.00    -0.223 A  
HETATM   42  H   UNL     1      -9.482  17.788  64.366  1.00  0.00     0.000 HD 
HETATM   43  C   UNL     1      -9.306  18.075  66.348  1.00  0.00    -0.255 C  
HETATM   44  O   UNL     1      -9.471  17.284  65.172  1.00  0.00     0.386 OA 
HETATM   45  C   UNL     1      -6.095  19.147  67.965  1.00  0.00    -0.225 A  
HETATM   46  C   UNL     1      -5.643  18.841  69.248  1.00  0.00    -0.216 A  
HETATM   47  C   UNL     1      -6.394  18.007  70.081  1.00  0.00     0.183 A  
HETATM   48  C   UNL     1      -7.591  17.436  69.637  1.00  0.00     0.589 A  
HETATM   49  C   UNL     1      -8.031  17.729  68.343  1.00  0.00    -0.293 A  
ENDBRANCH  31  39
ENDBRANCH  23  26
ENDBRANCH  22  23
ENDBRANCH  12  22
ENDBRANCH   6   9
TORSDOF 8
ENDMDL
MODEL      205
REMARK 921   NORMALIZED FREE ENERGY PREDICTED BY IDOCK:   11.83 KCAL/MOL
REMARK 922        TOTAL FREE ENERGY PREDICTED BY IDOCK:   15.40 KCAL/MOL
REMARK 923 INTER-LIGAND FREE ENERGY PREDICTED BY IDOCK:    3.85 KCAL/MOL
REMARK 924 INTRA-LIGAND FREE ENERGY PREDICTED BY IDOCK:   11.55 KCAL/MOL
REMARK 927      BINDING AFFINITY PREDICTED BY RF-SCORE:    0.00 PKD
ROOT
HETATM    1  C   UNL     1      -8.013   7.077  68.143  1.00  0.00    -0.119 C  
HETATM    2  C   UNL     1      -6.535   6.967  67.757  1.00  0.00    -0.051 C  
HETATM    3  N   UNL     1      -6.047   8.045  66.838  1.00  0.00    -0.052 N  
HETATM    4  C   UNL     1      -6.381   5.618  66.998  1.00  0.00    -0.039 C  
HETATM    5  C   UNL     1      -5.676   6.850  69.026  1.00  0.00    -0.018 C  
HETATM    6  C   UNL     1      -5.858   9.401  66.831  1.00  0.00    -0.055 C  
HETATM    7  H   UNL     1      -5.770   7.645  65.942  1.00  0.00     0.000 HD 
HETATM    8  O   UNL     1      -5.130   9.818  65.918  1.00  0.00    -0.034 OA 
ENDROOT
BRANCH   6   9
HETATM    9  C   UNL     1      -6.520  10.400  67.796  1.00  0.00    -0.061 C  
HETATM   10  C   UNL     1      -8.031  10.789  67.546  1.00  0.00    -0.110 C  
HETATM   11  N   UNL     1      -8.643  11.388  68.776  1.00  0.00    -0.127 NA 
HETATM   12  N   UNL     1      -5.685  11.603  68.075  1.00  0.00    -0.043 NA 
HETATM   13  C   UNL     1      -7.739  12.405  69.384  1.00  0.00     0.598 C  
HETATM   14  C   UNL     1      -6.219  12.075  69.385  1.00  0.00    -0.109 C  
BRANCH  11  15
HETATM   15  C   UNL     1      -9.953  12.040  68.538  1.00  0.00    -0.184 C  
BRANCH  15  16
HETATM   16  C   UNL     1     -10.852  12.266  69.728  1.00  0.00     0.368 A  
HETATM   17  C   UNL     1     -11.179  11.211  70.575  1.00  0.00     0.245 A  
HETATM   18  N   UNL     1     -12.090  11.279  71.577  1.00  0.00     0.040 NA 
HETATM   19  C   UNL     1     -12.464  13.579  70.965  1.00  0.00    -0.451 A  
HETATM   20  C   UNL     1     -12.714  12.462  71.745  1.00  0.00    -0.144 A  
HETATM   21  C   UNL     1     -11.520  13.475  69.940  1.00  0.00    -0.194 A  
ENDBRANCH  15  16
ENDBRANCH  11  15
BRANCH  12  22
HETATM   22  C   UNL     1      -5.717  12.746  67.088  1.00  0.00     0.136 C  
BRANCH  22  23
HETATM   23  C   UNL     1      -5.531  14.211  67.581  1.00  0.00     0.071 C  
HETATM   24  O   UNL     1      -6.771  14.915  67.401  1.00  0.00    -0.236 OA 
HETATM   25  H   UNL     1      -6.658  15.810  67.701  1.00  0.00     0.000 HD 
BRANCH  23  26
HETATM   26  C   UNL     1      -5.260  14.430  69.098  1.00  0.00    -0.078 C  
HETATM   27  C   UNL     1      -6.399  14.829  70.071  1.00  0.00    -0.164 C  
HETATM   28  C   UNL     1      -5.942  14.555  71.546  1.00  0.00     0.046 C  
HETATM   29  C   UNL     1      -6.748  16.324  69.912  1.00  0.00     0.035 C  
HETATM   30  O   UNL     1      -5.943  17.148  69.489  1.00  0.00    -0.208 OA 
HETATM   31  N   UNL     1      -8.033  16.693  70.270  1.00  0.00     1.848 N  
HETATM   32  H   UNL     1      -8.610  16.041  70.801  1.00  0.00     0.000 HD 
BRANCH  28  33
HETATM   33  C   UNL     1      -5.669  13.101  71.931  1.00  0.00     0.398 A  
HETATM   34  C   UNL     1      -5.640  12.086  70.966  1.00  0.00    -0.019 A  
HETATM   35  C   UNL     1      -5.483  12.737  73.274  1.00  0.00     0.759 A  
HETATM   36  C   UNL     1      -5.255  11.397  73.641  1.00  0.00     0.640 A  
HETATM   37  C   UNL     1      -5.412  10.747  71.332  1.00  0.00     0.046 A  
HETATM   38  C   UNL     1      -5.217  10.404  72.670  1.00  0.00     0.224 A  
ENDBRANCH  28  33
BRANCH  31  39
HETATM   39  C   UNL     1      -8.583  18.013  69.897  1.00  0.00     1.699 C  
HETATM   40  C   UNL     1     -10.600  18.309  68.407  1.00  0.00    -0.194 C  
HETATM   41  C   UNL     1      -9.325  18.527  67.669  1.00  0.00    -0.295 A  
HETATM   42  H   UNL     1     -11.742  16.961  70.343  1.00  0.00     0.000 HD 
HETATM   43  C   UNL     1     -10.147  18.087  69.866  1.00  0.00     0.769 C  
HETATM   44  O   UNL     1     -10.793  16.916  70.361  1.00  0.00    -0.071 OA 
HETATM   45  C   UNL     1      -9.198  18.865  66.321  1.00  0.00    -0.278 A  
HETATM   46  C   UNL     1      -7.920  19.089  65.809  1.00  0.00     0.055 A  
HETATM   47  C   UNL     1      -6.800  18.989  66.640  1.00  0.00    -0.209 A  
HETATM   48  C   UNL     1      -6.932  18.631  67.985  1.00  0.00    -0.247 A  
HETATM   49  C   UNL     1      -8.213  18.388  68.489  1.00  0.00    -0.338 A  
ENDBRANCH  31  39
ENDBRANCH  23  26
ENDBRANCH  22  23
ENDBRANCH  12  22
ENDBRANCH   6   9
TORSDOF 8
ENDMDL
MODEL      206
REMARK 921   NORMALIZED FREE ENERGY PREDICTED BY IDOCK:   11.99 KCAL/MOL
REMARK 922        TOTAL FREE ENERGY PREDICTED BY IDOCK:   15.63 KCAL/MOL
REMARK 923 INTER-LIGAND FREE ENERGY PREDICTED BY IDOCK:   -0.16 KCAL/MOL
REMARK 924 INTRA-LIGAND FREE ENERGY PREDICTED BY IDOCK:   15.80 KCAL/MOL
REMARK 927      BINDING AFFINITY PREDICTED BY RF-SCORE:    0.00 PKD
ROOT
HETATM    1  C   UNL     1     -10.814  12.566  68.965  1.00  0.00    -0.183 C  
HETATM    2  C   UNL     1     -11.812  13.618  69.459  1.00  0.00    -0.337 C  
HETATM    3  N   UNL     1     -11.269  14.562  70.487  1.00  0.00    -0.491 N  
HETATM    4  C   UNL     1     -12.975  12.834  70.133  1.00  0.00     0.552 C  
HETATM    5  C   UNL     1     -12.426  14.354  68.258  1.00  0.00     0.200 C  
HETATM    6  C   UNL     1     -10.315  15.538  70.603  1.00  0.00     0.118 C  
HETATM    7  H   UNL     1     -11.759  14.440  71.373  1.00  0.00     0.000 HD 
HETATM    8  O   UNL     1     -10.439  16.267  71.598  1.00  0.00     1.269 OA 
ENDROOT
BRANCH   6   9
HETATM    9  C   UNL     1      -9.115  15.732  69.660  1.00  0.00    -0.109 C  
HETATM   10  C   UNL     1      -9.370  15.658  68.103  1.00  0.00    -0.194 C  
HETATM   11  N   UNL     1      -8.246  16.292  67.342  1.00  0.00    -0.154 NA 
HETATM   12  N   UNL     1      -7.912  14.943  70.055  1.00  0.00     0.186 NA 
HETATM   13  C   UNL     1      -6.925  15.845  67.868  1.00  0.00    -0.139 C  
HETATM   14  C   UNL     1      -6.800  15.700  69.411  1.00  0.00    -0.186 C  
BRANCH  11  15
HETATM   15  C   UNL     1      -8.268  16.006  65.888  1.00  0.00     0.495 C  
BRANCH  15  16
HETATM   16  C   UNL     1      -9.544  15.457  65.299  1.00  0.00    -0.026 A  
HETATM   17  C   UNL     1     -10.326  16.242  64.455  1.00  0.00     1.479 A  
HETATM   18  N   UNL     1     -11.554  15.895  63.998  1.00  0.00    -0.518 NA 
HETATM   19  C   UNL     1     -11.343  13.841  65.239  1.00  0.00    -0.310 A  
HETATM   20  C   UNL     1     -12.035  14.703  64.405  1.00  0.00    -0.437 A  
HETATM   21  C   UNL     1     -10.080  14.228  65.693  1.00  0.00    -0.364 A  
ENDBRANCH  15  16
ENDBRANCH  11  15
BRANCH  12  22
HETATM   22  C   UNL     1      -7.832  13.495  69.635  1.00  0.00     0.945 C  
BRANCH  22  23
HETATM   23  C   UNL     1      -8.942  12.880  68.732  1.00  0.00     0.182 C  
HETATM   24  O   UNL     1      -9.527  13.931  67.946  1.00  0.00    -0.198 OA 
HETATM   25  H   UNL     1     -10.205  13.556  67.395  1.00  0.00     0.000 HD 
BRANCH  23  26
HETATM   26  C   UNL     1      -8.496  11.872  67.633  1.00  0.00    -0.156 C  
HETATM   27  C   UNL     1      -9.124  10.459  67.532  1.00  0.00    -0.142 C  
HETATM   28  C   UNL     1      -8.817   9.853  66.118  1.00  0.00    -0.163 C  
HETATM   29  C   UNL     1      -8.549   9.531  68.623  1.00  0.00    -0.119 C  
HETATM   30  O   UNL     1      -7.445   9.711  69.127  1.00  0.00    -0.073 OA 
HETATM   31  N   UNL     1      -9.354   8.475  69.013  1.00  0.00    -0.146 N  
HETATM   32  H   UNL     1     -10.167   8.230  68.448  1.00  0.00     0.000 HD 
BRANCH  28  33
HETATM   33  C   UNL     1      -9.415  10.571  64.908  1.00  0.00    -0.304 A  
HETATM   34  C   UNL     1      -8.615  10.965  63.827  1.00  0.00     0.039 A  
HETATM   35  C   UNL     1     -10.780  10.895  64.869  1.00  0.00    -0.240 A  
HETATM   36  C   UNL     1     -11.336  11.578  63.770  1.00  0.00    -0.420 A  
HETATM   37  C   UNL     1      -9.170  11.647  62.729  1.00  0.00    -0.024 A  
HETATM   38  C   UNL     1     -10.531  11.950  62.700  1.00  0.00     0.739 A  
ENDBRANCH  28  33
BRANCH  31  39
HETATM   39  C   UNL     1      -9.058   7.696  70.234  1.00  0.00    -0.149 C  
HETATM   40  C   UNL     1      -8.916   8.721  72.537  1.00  0.00    -0.000 C  
HETATM   41  C   UNL     1      -7.569   8.488  71.948  1.00  0.00    -0.139 A  
HETATM   42  H   UNL     1     -11.407   9.328  71.995  1.00  0.00     0.000 HD 
HETATM   43  C   UNL     1      -9.883   8.117  71.497  1.00  0.00    -0.179 C  
HETATM   44  O   UNL     1     -10.906   9.074  71.229  1.00  0.00    -0.261 OA 
HETATM   45  C   UNL     1      -6.342   8.771  72.550  1.00  0.00    -0.037 A  
HETATM   46  C   UNL     1      -5.173   8.429  71.871  1.00  0.00    -0.035 A  
HETATM   47  C   UNL     1      -5.240   7.804  70.623  1.00  0.00    -0.023 A  
HETATM   48  C   UNL     1      -6.471   7.541  70.015  1.00  0.00    -0.034 A  
HETATM   49  C   UNL     1      -7.640   7.903  70.690  1.00  0.00    -0.077 A  
ENDBRANCH  31  39
ENDBRANCH  23  26
ENDBRANCH  22  23
ENDBRANCH  12  22
ENDBRANCH   6   9
TORSDOF 8
ENDMDL
MODEL      207
REMARK 921   NORMALIZED FREE ENERGY PREDICTED BY IDOCK:   12.24 KCAL/MOL
REMARK 922        TOTAL FREE ENERGY PREDICTED BY IDOCK:   16.00 KCAL/MOL
REMARK 923 INTER-LIGAND FREE ENERGY PREDICTED BY IDOCK:    4.59 KCAL/MOL
REMARK 924 INTRA-LIGAND FREE ENERGY PREDICTED BY IDOCK:   11.41 KCAL/MOL
REMARK 927      BINDING AFFINITY PREDICTED BY RF-SCORE:    0.00 PKD
ROOT
HETATM    1  C   UNL     1      -8.019  16.193  67.972  1.00  0.00    -0.150 C  
HETATM    2  C   UNL     1      -7.763  16.385  66.474  1.00  0.00    -0.260 C  
HETATM    3  N   UNL     1      -7.864  15.134  65.657  1.00  0.00     2.516 N  
HETATM    4  C   UNL     1      -6.299  16.895  66.345  1.00  0.00    -0.043 C  
HETATM    5  C   UNL     1      -8.661  17.509  65.934  1.00  0.00     0.046 C  
HETATM    6  C   UNL     1      -8.799  14.204  65.289  1.00  0.00     2.135 C  
HETATM    7  H   UNL     1      -6.958  14.905  65.250  1.00  0.00     0.000 HD 
HETATM    8  O   UNL     1      -8.469  13.489  64.330  1.00  0.00     4.244 OA 
ENDROOT
BRANCH   6   9
HETATM    9  C   UNL     1     -10.139  13.953  66.001  1.00  0.00    -0.313 C  
HETATM   10  C   UNL     1     -10.130  13.796  67.574  1.00  0.00    -0.241 C  
HETATM   11  N   UNL     1     -11.500  14.005  68.144  1.00  0.00    -0.290 NA 
HETATM   12  N   UNL     1     -10.973  12.902  65.352  1.00  0.00    -0.275 NA 
HETATM   13  C   UNL     1     -12.526  13.260  67.361  1.00  0.00     0.209 C  
HETATM   14  C   UNL     1     -12.349  13.244  65.816  1.00  0.00    -0.447 C  
BRANCH  11  15
HETATM   15  C   UNL     1     -11.631  13.591  69.561  1.00  0.00    -0.294 C  
BRANCH  15  16
HETATM   16  C   UNL     1     -12.000  14.648  70.571  1.00  0.00    -0.376 A  
HETATM   17  C   UNL     1     -11.078  15.058  71.532  1.00  0.00    -0.061 A  
HETATM   18  N   UNL     1     -11.360  15.886  72.567  1.00  0.00    -0.127 NA 
HETATM   19  C   UNL     1     -13.625  15.994  71.753  1.00  0.00     0.196 A  
HETATM   20  C   UNL     1     -12.630  16.332  72.655  1.00  0.00    -0.311 A  
HETATM   21  C   UNL     1     -13.302  15.137  70.699  1.00  0.00    -0.304 A  
ENDBRANCH  15  16
ENDBRANCH  11  15
BRANCH  12  22
HETATM   22  C   UNL     1     -10.688  11.455  65.676  1.00  0.00    -0.242 C  
BRANCH  22  23
HETATM   23  C   UNL     1     -10.436  11.019  67.150  1.00  0.00    -0.232 C  
HETATM   24  O   UNL     1     -10.805   9.636  67.287  1.00  0.00    -0.254 OA 
HETATM   25  H   UNL     1     -10.651   9.370  68.186  1.00  0.00     0.000 HD 
BRANCH  23  26
HETATM   26  C   UNL     1      -8.962  11.004  67.652  1.00  0.00    -0.142 C  
HETATM   27  C   UNL     1      -7.773  10.956  66.660  1.00  0.00    -0.146 C  
HETATM   28  C   UNL     1      -6.459  11.384  67.402  1.00  0.00    -0.083 C  
HETATM   29  C   UNL     1      -7.598   9.532  66.091  1.00  0.00    -0.100 C  
HETATM   30  O   UNL     1      -7.979   8.531  66.691  1.00  0.00    -0.098 OA 
HETATM   31  N   UNL     1      -6.990   9.439  64.852  1.00  0.00    -0.094 N  
HETATM   32  H   UNL     1      -6.508  10.253  64.470  1.00  0.00     0.000 HD 
BRANCH  28  33
HETATM   33  C   UNL     1      -6.395  12.817  67.931  1.00  0.00    -0.118 A  
HETATM   34  C   UNL     1      -5.184  13.521  67.979  1.00  0.00    -0.110 A  
HETATM   35  C   UNL     1      -7.545  13.452  68.426  1.00  0.00    -0.133 A  
HETATM   36  C   UNL     1      -7.491  14.763  68.938  1.00  0.00    -0.137 A  
HETATM   37  C   UNL     1      -5.130  14.831  68.491  1.00  0.00    -0.103 A  
HETATM   38  C   UNL     1      -6.284  15.451  68.967  1.00  0.00    -0.105 A  
ENDBRANCH  28  33
BRANCH  31  39
HETATM   39  C   UNL     1      -7.025   8.184  64.073  1.00  0.00    -0.071 C  
HETATM   40  C   UNL     1      -9.158   6.949  63.520  1.00  0.00     1.586 C  
HETATM   41  C   UNL     1      -8.436   6.329  64.666  1.00  0.00     0.047 A  
HETATM   42  H   UNL     1      -9.692   9.209  62.307  1.00  0.00     0.000 HD 
HETATM   43  C   UNL     1      -8.211   8.076  63.055  1.00  0.00    -0.073 C  
HETATM   44  O   UNL     1      -8.973   9.275  62.924  1.00  0.00    -0.221 OA 
HETATM   45  C   UNL     1      -8.834   5.197  65.379  1.00  0.00    -0.153 A  
HETATM   46  C   UNL     1      -7.999   4.720  66.388  1.00  0.00    -0.103 A  
HETATM   47  C   UNL     1      -6.786   5.358  66.662  1.00  0.00    -0.058 A  
HETATM   48  C   UNL     1      -6.401   6.502  65.957  1.00  0.00    -0.042 A  
HETATM   49  C   UNL     1      -7.250   6.990  64.959  1.00  0.00    -0.078 A  
ENDBRANCH  31  39
ENDBRANCH  23  26
ENDBRANCH  22  23
ENDBRANCH  12  22
ENDBRANCH   6   9
TORSDOF 8
ENDMDL
MODEL      208
REMARK 921   NORMALIZED FREE ENERGY PREDICTED BY IDOCK:   12.63 KCAL/MOL
REMARK 922        TOTAL FREE ENERGY PREDICTED BY IDOCK:   16.57 KCAL/MOL
REMARK 923 INTER-LIGAND FREE ENERGY PREDICTED BY IDOCK:    8.79 KCAL/MOL
REMARK 924 INTRA-LIGAND FREE ENERGY PREDICTED BY IDOCK:    7.77 KCAL/MOL
REMARK 927      BINDING AFFINITY PREDICTED BY RF-SCORE:    0.00 PKD
ROOT
HETATM    1  C   UNL     1     -11.273  11.999  66.363  1.00  0.00    -0.389 C  
HETATM    2  C   UNL     1     -11.769  11.761  64.933  1.00  0.00    -0.118 C  
HETATM    3  N   UNL     1     -10.710  11.867  63.879  1.00  0.00    -0.352 N  
HETATM    4  C   UNL     1     -12.813  12.877  64.642  1.00  0.00    -0.323 C  
HETATM    5  C   UNL     1     -12.530  10.429  64.864  1.00  0.00     6.408 C  
HETATM    6  C   UNL     1      -9.559  11.234  63.492  1.00  0.00    -0.303 C  
HETATM    7  H   UNL     1     -10.908  12.651  63.258  1.00  0.00     0.000 HD 
HETATM    8  O   UNL     1      -9.176  11.511  62.345  1.00  0.00    -0.241 OA 
ENDROOT
BRANCH   6   9
HETATM    9  C   UNL     1      -8.712  10.301  64.374  1.00  0.00    -0.198 C  
HETATM   10  C   UNL     1      -9.436   9.092  65.091  1.00  0.00    -0.027 C  
HETATM   11  N   UNL     1      -8.447   8.054  65.525  1.00  0.00    -0.146 NA 
HETATM   12  N   UNL     1      -7.803  11.025  65.308  1.00  0.00     0.138 NA 
HETATM   13  C   UNL     1      -7.273   8.679  66.197  1.00  0.00    -0.085 C  
HETATM   14  C   UNL     1      -6.747  10.009  65.588  1.00  0.00    -0.105 C  
BRANCH  11  15
HETATM   15  C   UNL     1      -9.007   7.042  66.453  1.00  0.00    -0.154 C  
BRANCH  15  16
HETATM   16  C   UNL     1      -9.890   7.530  67.575  1.00  0.00    -0.209 A  
HETATM   17  C   UNL     1      -9.853   6.910  68.821  1.00  0.00    -0.149 A  
HETATM   18  N   UNL     1     -10.707   7.175  69.841  1.00  0.00    -0.233 NA 
HETATM   19  C   UNL     1     -11.778   8.790  68.409  1.00  0.00     1.728 A  
HETATM   20  C   UNL     1     -11.652   8.108  69.608  1.00  0.00     0.506 A  
HETATM   21  C   UNL     1     -10.883   8.492  67.379  1.00  0.00    -0.082 A  
ENDBRANCH  15  16
ENDBRANCH  11  15
BRANCH  12  22
HETATM   22  C   UNL     1      -8.366  11.526  66.617  1.00  0.00    -0.167 C  
BRANCH  22  23
HETATM   23  C   UNL     1      -8.465  10.570  67.843  1.00  0.00    -0.119 C  
HETATM   24  O   UNL     1      -7.134  10.209  68.250  1.00  0.00    -0.074 OA 
HETATM   25  H   UNL     1      -7.195   9.626  68.998  1.00  0.00     0.000 HD 
BRANCH  23  26
HETATM   26  C   UNL     1      -9.052  11.153  69.161  1.00  0.00     0.048 C  
HETATM   27  C   UNL     1      -9.845  12.485  69.171  1.00  0.00     0.422 C  
HETATM   28  C   UNL     1     -10.663  12.592  70.504  1.00  0.00     2.558 C  
HETATM   29  C   UNL     1      -8.884  13.688  69.061  1.00  0.00     0.333 C  
HETATM   30  O   UNL     1      -7.712  13.631  69.423  1.00  0.00     0.203 OA 
HETATM   31  N   UNL     1      -9.415  14.846  68.522  1.00  0.00    -0.204 N  
HETATM   32  H   UNL     1     -10.426  14.931  68.417  1.00  0.00     0.000 HD 
BRANCH  28  33
HETATM   33  C   UNL     1     -11.759  11.551  70.734  1.00  0.00     0.008 A  
HETATM   34  C   UNL     1     -11.865  10.863  71.950  1.00  0.00     1.116 A  
HETATM   35  C   UNL     1     -12.664  11.223  69.713  1.00  0.00     0.029 A  
HETATM   36  C   UNL     1     -13.661  10.248  69.906  1.00  0.00     1.294 A  
HETATM   37  C   UNL     1     -12.861   9.888  72.145  1.00  0.00    -0.435 A  
HETATM   38  C   UNL     1     -13.760   9.584  71.123  1.00  0.00    -0.161 A  
ENDBRANCH  28  33
BRANCH  31  39
HETATM   39  C   UNL     1      -8.544  15.961  68.094  1.00  0.00    -0.169 C  
HETATM   40  C   UNL     1      -7.544  17.638  69.695  1.00  0.00     0.609 C  
HETATM   41  C   UNL     1      -8.742  18.181  68.997  1.00  0.00    -0.018 A  
HETATM   42  H   UNL     1      -6.439  15.469  70.665  1.00  0.00     0.000 HD 
HETATM   43  C   UNL     1      -7.336  16.253  69.046  1.00  0.00    -0.214 C  
HETATM   44  O   UNL     1      -7.173  15.292  70.087  1.00  0.00    -0.075 OA 
HETATM   45  C   UNL     1      -9.286  19.456  69.159  1.00  0.00    -0.271 A  
HETATM   46  C   UNL     1     -10.382  19.815  68.375  1.00  0.00    -0.513 A  
HETATM   47  C   UNL     1     -10.906  18.918  67.440  1.00  0.00    -0.449 A  
HETATM   48  C   UNL     1     -10.369  17.635  67.296  1.00  0.00    -0.354 A  
HETATM   49  C   UNL     1      -9.283  17.271  68.098  1.00  0.00    -0.267 A  
ENDBRANCH  31  39
ENDBRANCH  23  26
ENDBRANCH  22  23
ENDBRANCH  12  22
ENDBRANCH   6   9
TORSDOF 8
ENDMDL
MODEL      209
REMARK 921   NORMALIZED FREE ENERGY PREDICTED BY IDOCK:   13.82 KCAL/MOL
REMARK 922        TOTAL FREE ENERGY PREDICTED BY IDOCK:   18.32 KCAL/MOL
REMARK 923 INTER-LIGAND FREE ENERGY PREDICTED BY IDOCK:    9.30 KCAL/MOL
REMARK 924 INTRA-LIGAND FREE ENERGY PREDICTED BY IDOCK:    9.02 KCAL/MOL
REMARK 927      BINDING AFFINITY PREDICTED BY RF-SCORE:    0.00 PKD
ROOT
HETATM    1  C   UNL     1     -10.345  11.696  69.673  1.00  0.00     0.451 C  
HETATM    2  C   UNL     1     -11.047  11.033  70.862  1.00  0.00     0.925 C  
HETATM    3  N   UNL     1     -12.282  10.263  70.508  1.00  0.00    -0.346 N  
HETATM    4  C   UNL     1     -11.486  12.187  71.808  1.00  0.00     3.641 C  
HETATM    5  C   UNL     1     -10.038  10.186  71.652  1.00  0.00     2.334 C  
HETATM    6  C   UNL     1     -12.650   9.159  69.786  1.00  0.00     1.577 C  
HETATM    7  H   UNL     1     -13.101  10.694  70.936  1.00  0.00     0.000 HD 
HETATM    8  O   UNL     1     -13.786   8.730  70.039  1.00  0.00     1.865 OA 
ENDROOT
BRANCH   6   9
HETATM    9  C   UNL     1     -11.811   8.492  68.682  1.00  0.00     2.122 C  
HETATM   10  C   UNL     1     -11.377   6.986  68.882  1.00  0.00     0.132 C  
HETATM   11  N   UNL     1     -10.975   6.364  67.579  1.00  0.00    -0.355 NA 
HETATM   12  N   UNL     1     -10.673   9.331  68.209  1.00  0.00    -0.185 NA 
HETATM   13  C   UNL     1     -10.074   7.268  66.810  1.00  0.00    -0.221 C  
HETATM   14  C   UNL     1     -10.410   8.786  66.846  1.00  0.00    -0.274 C  
BRANCH  11  15
HETATM   15  C   UNL     1     -10.285   5.061  67.724  1.00  0.00    -0.096 C  
BRANCH  15  16
HETATM   16  C   UNL     1      -9.542   4.522  66.526  1.00  0.00    -0.200 A  
HETATM   17  C   UNL     1     -10.126   4.550  65.263  1.00  0.00    -0.159 A  
HETATM   18  N   UNL     1      -9.605   3.961  64.159  1.00  0.00    -0.156 NA 
HETATM   19  C   UNL     1      -7.767   3.217  65.527  1.00  0.00    -0.081 A  
HETATM   20  C   UNL     1      -8.438   3.305  64.319  1.00  0.00    -0.089 A  
HETATM   21  C   UNL     1      -8.332   3.834  66.646  1.00  0.00    -0.104 A  
ENDBRANCH  15  16
ENDBRANCH  11  15
BRANCH  12  22
HETATM   22  C   UNL     1      -9.389   9.315  69.004  1.00  0.00    -0.151 C  
BRANCH  22  23
HETATM   23  C   UNL     1      -8.740  10.652  69.470  1.00  0.00     0.051 C  
HETATM   24  O   UNL     1      -7.481  10.355  70.098  1.00  0.00    -0.277 OA 
HETATM   25  H   UNL     1      -7.085  11.170  70.382  1.00  0.00     0.000 HD 
BRANCH  23  26
HETATM   26  C   UNL     1      -8.313  11.665  68.368  1.00  0.00    -0.157 C  
HETATM   27  C   UNL     1      -8.042  11.206  66.913  1.00  0.00    -0.150 C  
HETATM   28  C   UNL     1      -8.063  12.454  65.962  1.00  0.00     0.904 C  
HETATM   29  C   UNL     1      -6.669  10.508  66.810  1.00  0.00    -0.091 C  
HETATM   30  O   UNL     1      -5.754  10.736  67.596  1.00  0.00    -0.043 OA 
HETATM   31  N   UNL     1      -6.522   9.598  65.779  1.00  0.00    -0.076 N  
HETATM   32  H   UNL     1      -7.214   9.574  65.030  1.00  0.00     0.000 HD 
BRANCH  28  33
HETATM   33  C   UNL     1      -9.387  13.208  65.834  1.00  0.00     0.062 A  
HETATM   34  C   UNL     1      -9.426  14.543  65.410  1.00  0.00     0.167 A  
HETATM   35  C   UNL     1     -10.600  12.593  66.181  1.00  0.00    -0.280 A  
HETATM   36  C   UNL     1     -11.822  13.287  66.089  1.00  0.00    -0.437 A  
HETATM   37  C   UNL     1     -10.646  15.237  65.319  1.00  0.00    -0.438 A  
HETATM   38  C   UNL     1     -11.844  14.606  65.655  1.00  0.00    -0.273 A  
ENDBRANCH  28  33
BRANCH  31  39
HETATM   39  C   UNL     1      -5.382   8.658  65.744  1.00  0.00    -0.034 C  
HETATM   40  C   UNL     1      -5.459   6.420  64.577  1.00  0.00    -0.022 C  
HETATM   41  C   UNL     1      -5.644   6.287  66.048  1.00  0.00    -0.014 A  
HETATM   42  H   UNL     1      -5.899   7.957  62.500  1.00  0.00     0.000 HD 
HETATM   43  C   UNL     1      -5.178   7.925  64.376  1.00  0.00    -0.036 C  
HETATM   44  O   UNL     1      -6.023   8.401  63.330  1.00  0.00    -0.071 OA 
HETATM   45  C   UNL     1      -5.832   5.098  66.754  1.00  0.00    -0.022 A  
HETATM   46  C   UNL     1      -5.930   5.158  68.143  1.00  0.00    -0.022 A  
HETATM   47  C   UNL     1      -5.826   6.384  68.806  1.00  0.00    -0.020 A  
HETATM   48  C   UNL     1      -5.658   7.574  68.093  1.00  0.00    -0.027 A  
HETATM   49  C   UNL     1      -5.580   7.513  66.698  1.00  0.00    -0.024 A  
ENDBRANCH  31  39
ENDBRANCH  23  26
ENDBRANCH  22  23
ENDBRANCH  12  22
ENDBRANCH   6   9
TORSDOF 8
ENDMDL
MODEL      210
REMARK 921   NORMALIZED FREE ENERGY PREDICTED BY IDOCK:   14.18 KCAL/MOL
REMARK 922        TOTAL FREE ENERGY PREDICTED BY IDOCK:   18.84 KCAL/MOL
REMARK 923 INTER-LIGAND FREE ENERGY PREDICTED BY IDOCK:   10.66 KCAL/MOL
REMARK 924 INTRA-LIGAND FREE ENERGY PREDICTED BY IDOCK:    8.18 KCAL/MOL
REMARK 927      BINDING AFFINITY PREDICTED BY RF-SCORE:    0.00 PKD
ROOT
HETATM    1  C   UNL     1     -11.037  14.666  69.444  1.00  0.00    -0.293 C  
HETATM    2  C   UNL     1     -10.984  15.939  68.593  1.00  0.00    -0.320 C  
HETATM    3  N   UNL     1      -9.619  16.538  68.448  1.00  0.00    -0.226 N  
HETATM    4  C   UNL     1     -11.866  16.991  69.327  1.00  0.00     1.392 C  
HETATM    5  C   UNL     1     -11.656  15.684  67.236  1.00  0.00     0.065 C  
HETATM    6  C   UNL     1      -8.399  16.230  67.907  1.00  0.00    -0.166 C  
HETATM    7  H   UNL     1      -9.588  17.457  68.888  1.00  0.00     0.000 HD 
HETATM    8  O   UNL     1      -7.633  17.196  67.775  1.00  0.00    -0.170 OA 
ENDROOT
BRANCH   6   9
HETATM    9  C   UNL     1      -7.916  14.817  67.537  1.00  0.00    -0.188 C  
HETATM   10  C   UNL     1      -8.859  13.917  66.643  1.00  0.00    -0.081 C  
HETATM   11  N   UNL     1      -8.091  12.794  66.014  1.00  0.00     1.084 NA 
HETATM   12  N   UNL     1      -7.366  14.052  68.694  1.00  0.00    -0.115 NA 
HETATM   13  C   UNL     1      -7.206  12.126  67.009  1.00  0.00    -0.067 C  
HETATM   14  C   UNL     1      -6.484  13.049  68.031  1.00  0.00    -0.120 C  
BRANCH  11  15
HETATM   15  C   UNL     1      -8.948  11.748  65.405  1.00  0.00     0.158 C  
BRANCH  15  16
HETATM   16  C   UNL     1     -10.381  12.106  65.096  1.00  0.00    -0.311 A  
HETATM   17  C   UNL     1     -10.683  12.949  64.029  1.00  0.00    -0.399 A  
HETATM   18  N   UNL     1     -11.916  13.445  63.763  1.00  0.00    -0.476 NA 
HETATM   19  C   UNL     1     -12.720  12.249  65.694  1.00  0.00     0.788 A  
HETATM   20  C   UNL     1     -12.905  13.085  64.605  1.00  0.00    -0.207 A  
HETATM   21  C   UNL     1     -11.437  11.757  65.941  1.00  0.00    -0.273 A  
ENDBRANCH  15  16
ENDBRANCH  11  15
BRANCH  12  22
HETATM   22  C   UNL     1      -8.332  13.335  69.606  1.00  0.00     1.597 C  
BRANCH  22  23
HETATM   23  C   UNL     1      -9.060  14.112  70.742  1.00  0.00     3.978 C  
HETATM   24  O   UNL     1      -8.807  15.516  70.570  1.00  0.00     0.428 OA 
HETATM   25  H   UNL     1      -9.251  15.991  71.264  1.00  0.00     0.000 HD 
BRANCH  23  26
HETATM   26  C   UNL     1     -10.616  14.070  70.759  1.00  0.00     1.785 C  
HETATM   27  C   UNL     1     -11.384  12.970  71.535  1.00  0.00     3.081 C  
HETATM   28  C   UNL     1     -12.874  13.419  71.734  1.00  0.00    -0.385 C  
HETATM   29  C   UNL     1     -11.351  11.635  70.760  1.00  0.00     0.968 C  
HETATM   30  O   UNL     1     -11.205  11.583  69.542  1.00  0.00    -0.254 OA 
HETATM   31  N   UNL     1     -11.489  10.486  71.517  1.00  0.00     0.093 N  
HETATM   32  H   UNL     1     -11.806  10.559  72.484  1.00  0.00     0.000 HD 
BRANCH  28  33
HETATM   33  C   UNL     1     -13.117  14.663  72.589  1.00  0.00    -0.549 A  
HETATM   34  C   UNL     1     -14.130  15.577  72.271  1.00  0.00    -0.637 A  
HETATM   35  C   UNL     1     -12.300  14.945  73.695  1.00  0.00    -0.558 A  
HETATM   36  C   UNL     1     -12.500  16.101  74.474  1.00  0.00    -0.626 A  
HETATM   37  C   UNL     1     -14.331  16.732  73.049  1.00  0.00     1.976 A  
HETATM   38  C   UNL     1     -13.518  16.990  74.152  1.00  0.00     1.745 A  
ENDBRANCH  28  33
BRANCH  31  39
HETATM   39  C   UNL     1     -11.185   9.154  70.951  1.00  0.00    -0.295 C  
HETATM   40  C   UNL     1     -10.623   7.138  72.363  1.00  0.00    -0.257 C  
HETATM   41  C   UNL     1      -9.405   7.768  71.782  1.00  0.00    -0.179 A  
HETATM   42  H   UNL     1     -13.030   7.601  73.289  1.00  0.00     0.000 HD 
HETATM   43  C   UNL     1     -11.784   7.949  71.751  1.00  0.00    -0.287 C  
HETATM   44  O   UNL     1     -12.666   8.333  72.805  1.00  0.00    -0.190 OA 
HETATM   45  C   UNL     1      -8.089   7.336  71.953  1.00  0.00    -0.100 A  
HETATM   46  C   UNL     1      -7.073   8.016  71.282  1.00  0.00    -0.057 A  
HETATM   47  C   UNL     1      -7.379   9.095  70.448  1.00  0.00    -0.100 A  
HETATM   48  C   UNL     1      -8.697   9.536  70.296  1.00  0.00    -0.270 A  
HETATM   49  C   UNL     1      -9.710   8.864  70.985  1.00  0.00    -0.320 A  
ENDBRANCH  31  39
ENDBRANCH  23  26
ENDBRANCH  22  23
ENDBRANCH  12  22
ENDBRANCH   6   9
TORSDOF 8
ENDMDL
MODEL      211
REMARK 921   NORMALIZED FREE ENERGY PREDICTED BY IDOCK:   15.16 KCAL/MOL
REMARK 922        TOTAL FREE ENERGY PREDICTED BY IDOCK:   20.28 KCAL/MOL
REMARK 923 INTER-LIGAND FREE ENERGY PREDICTED BY IDOCK:   17.75 KCAL/MOL
REMARK 924 INTRA-LIGAND FREE ENERGY PREDICTED BY IDOCK:    2.54 KCAL/MOL
REMARK 927      BINDING AFFINITY PREDICTED BY RF-SCORE:    0.00 PKD
ROOT
HETATM    1  C   UNL     1     -13.843  15.171  71.328  1.00  0.00    -0.553 C  
HETATM    2  C   UNL     1     -12.431  15.320  71.905  1.00  0.00    -0.353 C  
HETATM    3  N   UNL     1     -12.140  14.440  73.081  1.00  0.00     0.030 N  
HETATM    4  C   UNL     1     -12.314  16.791  72.398  1.00  0.00     0.526 C  
HETATM    5  C   UNL     1     -11.394  15.157  70.783  1.00  0.00    -0.341 C  
HETATM    6  C   UNL     1     -12.029  13.109  73.383  1.00  0.00     4.823 C  
HETATM    7  H   UNL     1     -11.974  15.006  73.913  1.00  0.00     0.000 HD 
HETATM    8  O   UNL     1     -11.464  12.868  74.460  1.00  0.00     8.880 OA 
ENDROOT
BRANCH   6   9
HETATM    9  C   UNL     1     -12.599  11.952  72.545  1.00  0.00     1.625 C  
HETATM   10  C   UNL     1     -11.797  10.590  72.511  1.00  0.00     2.729 C  
HETATM   11  N   UNL     1     -12.669   9.463  72.047  1.00  0.00    -0.393 NA 
HETATM   12  N   UNL     1     -13.038  12.362  71.180  1.00  0.00    -0.135 NA 
HETATM   13  C   UNL     1     -13.457   9.855  70.844  1.00  0.00    -0.122 C  
HETATM   14  C   UNL     1     -14.024  11.303  70.822  1.00  0.00     2.397 C  
BRANCH  11  15
HETATM   15  C   UNL     1     -11.925   8.227  71.711  1.00  0.00    -0.316 C  
BRANCH  15  16
HETATM   16  C   UNL     1     -10.793   7.819  72.621  1.00  0.00    -0.413 A  
HETATM   17  C   UNL     1     -10.862   6.630  73.343  1.00  0.00    -0.236 A  
HETATM   18  N   UNL     1      -9.972   6.251  74.293  1.00  0.00    -0.276 NA 
HETATM   19  C   UNL     1      -8.787   8.308  73.881  1.00  0.00    -0.107 A  
HETATM   20  C   UNL     1      -8.956   7.102  74.541  1.00  0.00    -0.166 A  
HETATM   21  C   UNL     1      -9.722   8.669  72.909  1.00  0.00    -0.005 A  
ENDBRANCH  15  16
ENDBRANCH  11  15
BRANCH  12  22
HETATM   22  C   UNL     1     -11.998  12.458  70.089  1.00  0.00    -0.298 C  
BRANCH  22  23
HETATM   23  C   UNL     1     -12.399  12.952  68.668  1.00  0.00     0.234 C  
HETATM   24  O   UNL     1     -12.691  14.358  68.738  1.00  0.00    -0.406 OA 
HETATM   25  H   UNL     1     -12.936  14.659  67.870  1.00  0.00     0.000 HD 
BRANCH  23  26
HETATM   26  C   UNL     1     -11.307  12.910  67.559  1.00  0.00    -0.354 C  
HETATM   27  C   UNL     1     -10.664  11.573  67.112  1.00  0.00    -0.294 C  
HETATM   28  C   UNL     1      -9.951  11.776  65.729  1.00  0.00    -0.269 C  
HETATM   29  C   UNL     1      -9.631  11.093  68.154  1.00  0.00    -0.179 C  
HETATM   30  O   UNL     1      -9.054  11.864  68.914  1.00  0.00    -0.014 OA 
HETATM   31  N   UNL     1      -9.391   9.731  68.193  1.00  0.00    -0.129 N  
HETATM   32  H   UNL     1      -9.725   9.142  67.430  1.00  0.00     0.000 HD 
BRANCH  28  33
HETATM   33  C   UNL     1     -10.837  12.136  64.536  1.00  0.00    -0.356 A  
HETATM   34  C   UNL     1     -11.525  13.355  64.482  1.00  0.00    -0.402 A  
HETATM   35  C   UNL     1     -11.020  11.230  63.479  1.00  0.00    -0.329 A  
HETATM   36  C   UNL     1     -11.854  11.542  62.388  1.00  0.00     1.911 A  
HETATM   37  C   UNL     1     -12.358  13.667  63.391  1.00  0.00    -0.167 A  
HETATM   38  C   UNL     1     -12.518  12.761  62.344  1.00  0.00     2.332 A  
ENDBRANCH  28  33
BRANCH  31  39
HETATM   39  C   UNL     1      -8.661   9.113  69.320  1.00  0.00    -0.137 C  
HETATM   40  C   UNL     1      -6.425   7.967  69.068  1.00  0.00    -0.037 C  
HETATM   41  C   UNL     1      -7.548   6.990  69.137  1.00  0.00    -0.100 A  
HETATM   42  H   UNL     1      -5.726  10.361  68.265  1.00  0.00     0.000 HD 
HETATM   43  C   UNL     1      -7.111   9.331  69.295  1.00  0.00    -0.057 C  
HETATM   44  O   UNL     1      -6.667  10.229  68.279  1.00  0.00    -0.057 OA 
HETATM   45  C   UNL     1      -7.438   5.600  69.084  1.00  0.00    -0.083 A  
HETATM   46  C   UNL     1      -8.596   4.836  69.223  1.00  0.00    -0.098 A  
HETATM   47  C   UNL     1      -9.832   5.458  69.426  1.00  0.00    -0.252 A  
HETATM   48  C   UNL     1      -9.938   6.851  69.459  1.00  0.00    -0.171 A  
HETATM   49  C   UNL     1      -8.778   7.615  69.299  1.00  0.00    -0.136 A  
ENDBRANCH  31  39
ENDBRANCH  23  26
ENDBRANCH  22  23
ENDBRANCH  12  22
ENDBRANCH   6   9
TORSDOF 8
ENDMDL
MODEL      212
REMARK 921   NORMALIZED FREE ENERGY PREDICTED BY IDOCK:   15.79 KCAL/MOL
REMARK 922        TOTAL FREE ENERGY PREDICTED BY IDOCK:   21.20 KCAL/MOL
REMARK 923 INTER-LIGAND FREE ENERGY PREDICTED BY IDOCK:    0.31 KCAL/MOL
REMARK 924 INTRA-LIGAND FREE ENERGY PREDICTED BY IDOCK:   20.89 KCAL/MOL
REMARK 927      BINDING AFFINITY PREDICTED BY RF-SCORE:    0.00 PKD
ROOT
HETATM    1  C   UNL     1     -11.695  11.127  68.535  1.00  0.00    -0.368 C  
HETATM    2  C   UNL     1     -12.395  10.538  69.763  1.00  0.00    -0.130 C  
HETATM    3  N   UNL     1     -12.524   9.046  69.753  1.00  0.00     0.628 N  
HETATM    4  C   UNL     1     -13.838  11.119  69.763  1.00  0.00     3.509 C  
HETATM    5  C   UNL     1     -11.720  11.056  71.042  1.00  0.00    -0.064 C  
HETATM    6  C   UNL     1     -11.729   7.931  69.779  1.00  0.00     0.489 C  
HETATM    7  H   UNL     1     -13.507   8.777  69.714  1.00  0.00     0.000 HD 
HETATM    8  O   UNL     1     -12.321   6.879  70.063  1.00  0.00    -0.038 OA 
ENDROOT
BRANCH   6   9
HETATM    9  C   UNL     1     -10.232   7.893  69.426  1.00  0.00    -0.206 C  
HETATM   10  C   UNL     1      -9.186   8.166  70.579  1.00  0.00    -0.154 C  
HETATM   11  N   UNL     1      -7.826   7.665  70.200  1.00  0.00    -0.095 NA 
HETATM   12  N   UNL     1      -9.892   8.650  68.188  1.00  0.00    -0.160 NA 
HETATM   13  C   UNL     1      -7.473   8.070  68.810  1.00  0.00    -0.091 C  
HETATM   14  C   UNL     1      -8.615   8.013  67.756  1.00  0.00    -0.128 C  
BRANCH  11  15
HETATM   15  C   UNL     1      -6.742   8.140  71.093  1.00  0.00    -0.044 C  
BRANCH  15  16
HETATM   16  C   UNL     1      -6.184   7.166  72.101  1.00  0.00    -0.041 A  
HETATM   17  C   UNL     1      -5.781   5.894  71.704  1.00  0.00    -0.022 A  
HETATM   18  N   UNL     1      -5.409   4.903  72.551  1.00  0.00    -0.008 NA 
HETATM   19  C   UNL     1      -5.821   6.424  74.374  1.00  0.00    -0.063 A  
HETATM   20  C   UNL     1      -5.441   5.192  73.868  1.00  0.00    -0.018 A  
HETATM   21  C   UNL     1      -6.199   7.423  73.474  1.00  0.00    -0.060 A  
ENDBRANCH  15  16
ENDBRANCH  11  15
BRANCH  12  22
HETATM   22  C   UNL     1      -9.688  10.143  68.291  1.00  0.00    -0.141 C  
BRANCH  22  23
HETATM   23  C   UNL     1     -10.265  10.929  69.505  1.00  0.00    -0.062 C  
HETATM   24  O   UNL     1      -9.623  10.459  70.702  1.00  0.00    -0.078 OA 
HETATM   25  H   UNL     1      -9.975  10.939  71.443  1.00  0.00     0.000 HD 
BRANCH  23  26
HETATM   26  C   UNL     1      -9.980  12.458  69.572  1.00  0.00     1.013 C  
HETATM   27  C   UNL     1     -10.700  13.454  68.629  1.00  0.00    -0.275 C  
HETATM   28  C   UNL     1     -10.554  14.908  69.199  1.00  0.00    -0.248 C  
HETATM   29  C   UNL     1     -10.090  13.397  67.212  1.00  0.00    -0.238 C  
HETATM   30  O   UNL     1      -8.937  13.031  67.005  1.00  0.00    -0.214 OA 
HETATM   31  N   UNL     1     -10.921  13.778  66.173  1.00  0.00    -0.291 N  
HETATM   32  H   UNL     1     -11.793  14.263  66.383  1.00  0.00     0.000 HD 
BRANCH  28  33
HETATM   33  C   UNL     1     -11.210  15.194  70.550  1.00  0.00    -0.313 A  
HETATM   34  C   UNL     1     -11.412  16.506  70.998  1.00  0.00    -0.079 A  
HETATM   35  C   UNL     1     -11.590  14.144  71.401  1.00  0.00     0.324 A  
HETATM   36  C   UNL     1     -12.172  14.397  72.658  1.00  0.00    -0.120 A  
HETATM   37  C   UNL     1     -11.994  16.760  72.253  1.00  0.00     0.101 A  
HETATM   38  C   UNL     1     -12.376  15.705  73.081  1.00  0.00    -0.584 A  
ENDBRANCH  28  33
BRANCH  31  39
HETATM   39  C   UNL     1     -10.568  13.495  64.766  1.00  0.00    -0.417 C  
HETATM   40  C   UNL     1     -11.837  11.865  63.314  1.00  0.00    -0.418 C  
HETATM   41  C   UNL     1     -10.580  11.273  63.848  1.00  0.00    -0.455 A  
HETATM   42  H   UNL     1     -13.790  13.539  63.818  1.00  0.00     0.000 HD 
HETATM   43  C   UNL     1     -11.791  13.329  63.803  1.00  0.00    -0.467 C  
HETATM   44  O   UNL     1     -13.048  13.639  64.403  1.00  0.00    -0.372 OA 
HETATM   45  C   UNL     1     -10.103   9.984  63.602  1.00  0.00     0.566 A  
HETATM   46  C   UNL     1      -8.870   9.617  64.140  1.00  0.00    -0.257 A  
HETATM   47  C   UNL     1      -8.129  10.532  64.893  1.00  0.00    -0.086 A  
HETATM   48  C   UNL     1      -8.620  11.815  65.152  1.00  0.00     0.636 A  
HETATM   49  C   UNL     1      -9.866  12.173  64.629  1.00  0.00    -0.153 A  
ENDBRANCH  31  39
ENDBRANCH  23  26
ENDBRANCH  22  23
ENDBRANCH  12  22
ENDBRANCH   6   9
TORSDOF 8
ENDMDL
MODEL      213
REMARK 921   NORMALIZED FREE ENERGY PREDICTED BY IDOCK:   17.03 KCAL/MOL
REMARK 922        TOTAL FREE ENERGY PREDICTED BY IDOCK:   23.02 KCAL/MOL
REMARK 923 INTER-LIGAND FREE ENERGY PREDICTED BY IDOCK:   -1.35 KCAL/MOL
REMARK 924 INTRA-LIGAND FREE ENERGY PREDICTED BY IDOCK:   24.38 KCAL/MOL
REMARK 927      BINDING AFFINITY PREDICTED BY RF-SCORE:    0.00 PKD
ROOT
HETATM    1  C   UNL     1     -10.906  10.154  69.901  1.00  0.00    -0.347 C  
HETATM    2  C   UNL     1     -12.170  11.016  69.972  1.00  0.00    -0.343 C  
HETATM    3  N   UNL     1     -11.970  12.369  70.581  1.00  0.00    -0.506 N  
HETATM    4  C   UNL     1     -13.169  10.249  70.886  1.00  0.00    -0.351 C  
HETATM    5  C   UNL     1     -12.825  11.092  68.584  1.00  0.00     1.958 C  
HETATM    6  C   UNL     1     -11.295  13.534  70.331  1.00  0.00     0.321 C  
HETATM    7  H   UNL     1     -12.500  12.447  71.449  1.00  0.00     0.000 HD 
HETATM    8  O   UNL     1     -11.686  14.511  70.989  1.00  0.00    -0.300 OA 
ENDROOT
BRANCH   6   9
HETATM    9  C   UNL     1     -10.092  13.685  69.384  1.00  0.00     0.463 C  
HETATM   10  C   UNL     1     -10.320  14.406  67.997  1.00  0.00    -0.227 C  
HETATM   11  N   UNL     1      -9.021  14.864  67.408  1.00  0.00    -0.181 NA 
HETATM   12  N   UNL     1      -9.298  12.433  69.225  1.00  0.00     0.666 NA 
HETATM   13  C   UNL     1      -7.988  13.794  67.491  1.00  0.00    -0.181 C  
HETATM   14  C   UNL     1      -7.965  12.945  68.794  1.00  0.00     0.065 C  
BRANCH  11  15
HETATM   15  C   UNL     1      -9.118  15.283  65.990  1.00  0.00    -0.209 C  
BRANCH  15  16
HETATM   16  C   UNL     1     -10.444  15.101  65.293  1.00  0.00    -0.434 A  
HETATM   17  C   UNL     1     -10.929  16.082  64.432  1.00  0.00     0.014 A  
HETATM   18  N   UNL     1     -12.167  16.079  63.879  1.00  0.00    -0.803 NA 
HETATM   19  C   UNL     1     -12.589  14.012  65.042  1.00  0.00    -0.416 A  
HETATM   20  C   UNL     1     -12.969  15.045  64.200  1.00  0.00     0.980 A  
HETATM   21  C   UNL     1     -11.308  14.045  65.596  1.00  0.00    -0.313 A  
ENDBRANCH  15  16
ENDBRANCH  11  15
BRANCH  12  22
HETATM   22  C   UNL     1      -9.775  11.400  68.232  1.00  0.00    -0.202 C  
BRANCH  22  23
HETATM   23  C   UNL     1     -10.675  10.219  68.703  1.00  0.00    -0.224 C  
HETATM   24  O   UNL     1     -11.347   9.672  67.556  1.00  0.00    -0.385 OA 
HETATM   25  H   UNL     1     -11.896   8.951  67.844  1.00  0.00     0.000 HD 
BRANCH  23  26
HETATM   26  C   UNL     1      -9.965   8.962  69.285  1.00  0.00    -0.192 C  
HETATM   27  C   UNL     1      -8.441   8.956  69.567  1.00  0.00    -0.128 C  
HETATM   28  C   UNL     1      -8.095   7.764  70.526  1.00  0.00    -0.103 C  
HETATM   29  C   UNL     1      -7.646   8.803  68.253  1.00  0.00    -0.096 C  
HETATM   30  O   UNL     1      -8.119   8.268  67.255  1.00  0.00    -0.107 OA 
HETATM   31  N   UNL     1      -6.359   9.312  68.255  1.00  0.00    -0.054 N  
HETATM   32  H   UNL     1      -5.923   9.566  69.141  1.00  0.00     0.000 HD 
BRANCH  28  33
HETATM   33  C   UNL     1      -8.695   7.805  71.932  1.00  0.00    -0.150 A  
HETATM   34  C   UNL     1     -10.071   7.640  72.141  1.00  0.00    -0.246 A  
HETATM   35  C   UNL     1      -7.885   8.054  73.051  1.00  0.00    -0.199 A  
HETATM   36  C   UNL     1      -8.432   8.118  74.347  1.00  0.00    -0.129 A  
HETATM   37  C   UNL     1     -10.617   7.703  73.436  1.00  0.00    -0.353 A  
HETATM   38  C   UNL     1      -9.796   7.939  74.538  1.00  0.00     1.744 A  
ENDBRANCH  28  33
BRANCH  31  39
HETATM   39  C   UNL     1      -5.606   9.494  66.996  1.00  0.00    -0.047 C  
HETATM   40  C   UNL     1      -6.313  11.087  65.169  1.00  0.00     0.352 C  
HETATM   41  C   UNL     1      -6.683   9.679  64.855  1.00  0.00    -0.104 A  
HETATM   42  H   UNL     1      -5.993  12.829  67.101  1.00  0.00     0.000 HD 
HETATM   43  C   UNL     1      -5.522  10.973  66.490  1.00  0.00    -0.107 C  
HETATM   44  O   UNL     1      -6.045  11.931  67.408  1.00  0.00    -0.088 OA 
HETATM   45  C   UNL     1      -7.332   9.233  63.703  1.00  0.00    -0.101 A  
HETATM   46  C   UNL     1      -7.547   7.863  63.549  1.00  0.00    -0.130 A  
HETATM   47  C   UNL     1      -7.103   6.966  64.525  1.00  0.00    -0.061 A  
HETATM   48  C   UNL     1      -6.471   7.421  65.686  1.00  0.00    -0.045 A  
HETATM   49  C   UNL     1      -6.276   8.795  65.846  1.00  0.00    -0.056 A  
ENDBRANCH  31  39
ENDBRANCH  23  26
ENDBRANCH  22  23
ENDBRANCH  12  22
ENDBRANCH   6   9
TORSDOF 8
ENDMDL
MODEL      214
REMARK 921   NORMALIZED FREE ENERGY PREDICTED BY IDOCK:   20.37 KCAL/MOL
REMARK 922        TOTAL FREE ENERGY PREDICTED BY IDOCK:   27.93 KCAL/MOL
REMARK 923 INTER-LIGAND FREE ENERGY PREDICTED BY IDOCK:   13.98 KCAL/MOL
REMARK 924 INTRA-LIGAND FREE ENERGY PREDICTED BY IDOCK:   13.95 KCAL/MOL
REMARK 927      BINDING AFFINITY PREDICTED BY RF-SCORE:    0.00 PKD
ROOT
HETATM    1  C   UNL     1     -11.895  16.786  67.097  1.00  0.00     1.389 C  
HETATM    2  C   UNL     1     -11.051  17.737  66.242  1.00  0.00     0.533 C  
HETATM    3  N   UNL     1      -9.634  17.300  66.036  1.00  0.00    -0.192 N  
HETATM    4  C   UNL     1     -11.003  19.088  67.012  1.00  0.00    -0.303 C  
HETATM    5  C   UNL     1     -11.773  18.020  64.916  1.00  0.00     3.380 C  
HETATM    6  C   UNL     1      -8.933  16.284  65.442  1.00  0.00     0.875 C  
HETATM    7  H   UNL     1      -8.993  17.963  66.472  1.00  0.00     0.000 HD 
HETATM    8  O   UNL     1      -7.727  16.516  65.274  1.00  0.00     1.426 OA 
ENDROOT
BRANCH   6   9
HETATM    9  C   UNL     1      -9.507  14.910  65.055  1.00  0.00     0.669 C  
HETATM   10  C   UNL     1     -10.692  14.325  65.922  1.00  0.00    -0.303 C  
HETATM   11  N   UNL     1     -11.417  13.243  65.182  1.00  0.00    -0.290 NA 
HETATM   12  N   UNL     1      -8.462  13.879  64.792  1.00  0.00     4.511 NA 
HETATM   13  C   UNL     1     -10.459  12.290  64.552  1.00  0.00    -0.309 C  
HETATM   14  C   UNL     1      -9.178  12.904  63.921  1.00  0.00     1.920 C  
BRANCH  11  15
HETATM   15  C   UNL     1     -12.343  12.453  66.028  1.00  0.00     0.123 C  
BRANCH  15  16
HETATM   16  C   UNL     1     -12.229  12.604  67.525  1.00  0.00     0.049 A  
HETATM   17  C   UNL     1     -12.282  13.865  68.112  1.00  0.00    -0.150 A  
HETATM   18  N   UNL     1     -12.042  14.117  69.423  1.00  0.00    -0.330 NA 
HETATM   19  C   UNL     1     -11.651  11.758  69.716  1.00  0.00    -0.372 A  
HETATM   20  C   UNL     1     -11.729  13.056  70.193  1.00  0.00    -0.170 A  
HETATM   21  C   UNL     1     -11.903  11.533  68.361  1.00  0.00    -0.353 A  
ENDBRANCH  15  16
ENDBRANCH  11  15
BRANCH  12  22
HETATM   22  C   UNL     1      -7.864  13.145  65.969  1.00  0.00     2.248 C  
BRANCH  22  23
HETATM   23  C   UNL     1      -7.727  11.594  65.935  1.00  0.00     0.481 C  
HETATM   24  O   UNL     1      -6.397  11.262  65.504  1.00  0.00    -0.360 OA 
HETATM   25  H   UNL     1      -6.313  10.315  65.483  1.00  0.00     0.000 HD 
BRANCH  23  26
HETATM   26  C   UNL     1      -7.819  10.836  67.292  1.00  0.00    -0.113 C  
HETATM   27  C   UNL     1      -8.787  11.299  68.410  1.00  0.00    -0.159 C  
HETATM   28  C   UNL     1      -8.982  10.135  69.443  1.00  0.00    -0.205 C  
HETATM   29  C   UNL     1      -8.224  12.539  69.136  1.00  0.00     0.542 C  
HETATM   30  O   UNL     1      -7.023  12.790  69.177  1.00  0.00    -0.090 OA 
HETATM   31  N   UNL     1      -9.153  13.368  69.739  1.00  0.00     1.200 N  
HETATM   32  H   UNL     1     -10.111  13.039  69.863  1.00  0.00     0.000 HD 
BRANCH  28  33
HETATM   33  C   UNL     1      -9.647   8.856  68.934  1.00  0.00    -0.160 A  
HETATM   34  C   UNL     1      -9.525   7.646  69.630  1.00  0.00    -0.156 A  
HETATM   35  C   UNL     1     -10.363   8.851  67.727  1.00  0.00    -0.301 A  
HETATM   36  C   UNL     1     -10.959   7.673  67.237  1.00  0.00    -0.122 A  
HETATM   37  C   UNL     1     -10.120   6.468  69.141  1.00  0.00    -0.190 A  
HETATM   38  C   UNL     1     -10.839   6.484  67.947  1.00  0.00    -0.383 A  
ENDBRANCH  28  33
BRANCH  31  39
HETATM   39  C   UNL     1      -8.785  14.720  70.206  1.00  0.00     1.133 C  
HETATM   40  C   UNL     1      -9.398  16.835  68.970  1.00  0.00    -0.212 C  
HETATM   41  C   UNL     1      -7.986  16.433  68.720  1.00  0.00    -0.233 A  
HETATM   42  H   UNL     1     -11.817  15.947  69.444  1.00  0.00     0.000 HD 
HETATM   43  C   UNL     1      -9.894  15.808  70.010  1.00  0.00    -0.037 C  
HETATM   44  O   UNL     1     -11.144  15.287  69.562  1.00  0.00    -0.248 OA 
HETATM   45  C   UNL     1      -7.063  17.108  67.918  1.00  0.00    -0.170 A  
HETATM   46  C   UNL     1      -5.760  16.617  67.847  1.00  0.00    -0.137 A  
HETATM   47  C   UNL     1      -5.392  15.483  68.577  1.00  0.00    -0.099 A  
HETATM   48  C   UNL     1      -6.325  14.800  69.362  1.00  0.00    -0.124 A  
HETATM   49  C   UNL     1      -7.636  15.283  69.416  1.00  0.00    -0.219 A  
ENDBRANCH  31  39
ENDBRANCH  23  26
ENDBRANCH  22  23
ENDBRANCH  12  22
ENDBRANCH   6   9
TORSDOF 8
ENDMDL
MODEL      215
REMARK 921   NORMALIZED FREE ENERGY PREDICTED BY IDOCK:   22.96 KCAL/MOL
REMARK 922        TOTAL FREE ENERGY PREDICTED BY IDOCK:   31.72 KCAL/MOL
REMARK 923 INTER-LIGAND FREE ENERGY PREDICTED BY IDOCK:   24.47 KCAL/MOL
REMARK 924 INTRA-LIGAND FREE ENERGY PREDICTED BY IDOCK:    7.26 KCAL/MOL
REMARK 927      BINDING AFFINITY PREDICTED BY RF-SCORE:    0.00 PKD
ROOT
HETATM    1  C   UNL     1     -10.458  15.133  70.394  1.00  0.00    -0.107 C  
HETATM    2  C   UNL     1     -11.516  15.076  69.287  1.00  0.00    -0.307 C  
HETATM    3  N   UNL     1     -11.544  13.793  68.515  1.00  0.00    -0.314 N  
HETATM    4  C   UNL     1     -11.153  16.205  68.279  1.00  0.00    -0.348 C  
HETATM    5  C   UNL     1     -12.892  15.439  69.865  1.00  0.00    -0.011 C  
HETATM    6  C   UNL     1     -11.806  12.464  68.713  1.00  0.00    -0.311 C  
HETATM    7  H   UNL     1     -11.289  13.962  67.541  1.00  0.00     0.000 HD 
HETATM    8  O   UNL     1     -11.991  11.812  67.674  1.00  0.00    -0.599 OA 
ENDROOT
BRANCH   6   9
HETATM    9  C   UNL     1     -11.813  11.748  70.075  1.00  0.00    -0.342 C  
HETATM   10  C   UNL     1     -10.423  11.393  70.738  1.00  0.00     2.874 C  
HETATM   11  N   UNL     1     -10.580  11.123  72.204  1.00  0.00     6.773 NA 
HETATM   12  N   UNL     1     -12.760  10.598  70.139  1.00  0.00    -0.249 NA 
HETATM   13  C   UNL     1     -11.741  10.227  72.463  1.00  0.00     2.484 C  
HETATM   14  C   UNL     1     -13.014  10.467  71.603  1.00  0.00    -0.475 C  
BRANCH  11  15
HETATM   15  C   UNL     1      -9.388  10.505  72.831  1.00  0.00    11.796 C  
BRANCH  15  16
HETATM   16  C   UNL     1      -8.834   9.251  72.202  1.00  0.00     0.796 A  
HETATM   17  C   UNL     1      -8.119   9.317  71.009  1.00  0.00    -0.066 A  
HETATM   18  N   UNL     1      -7.711   8.240  70.292  1.00  0.00    -0.081 NA 
HETATM   19  C   UNL     1      -8.738   6.845  71.967  1.00  0.00    -0.126 A  
HETATM   20  C   UNL     1      -8.035   7.029  70.788  1.00  0.00    -0.101 A  
HETATM   21  C   UNL     1      -9.144   7.975  72.680  1.00  0.00    -0.290 A  
ENDBRANCH  15  16
ENDBRANCH  11  15
BRANCH  12  22
HETATM   22  C   UNL     1     -12.308   9.263  69.595  1.00  0.00     1.244 C  
BRANCH  22  23
HETATM   23  C   UNL     1     -11.777   9.153  68.135  1.00  0.00     1.748 C  
HETATM   24  O   UNL     1     -10.727  10.118  67.956  1.00  0.00    -0.223 OA 
HETATM   25  H   UNL     1     -10.403  10.051  67.065  1.00  0.00     0.000 HD 
BRANCH  23  26
HETATM   26  C   UNL     1     -11.065   7.830  67.729  1.00  0.00     0.187 C  
HETATM   27  C   UNL     1      -9.523   7.691  67.798  1.00  0.00    -0.160 C  
HETATM   28  C   UNL     1      -9.135   6.172  67.758  1.00  0.00    -0.117 C  
HETATM   29  C   UNL     1      -8.858   8.420  66.611  1.00  0.00    -0.142 C  
HETATM   30  O   UNL     1      -9.441   8.618  65.549  1.00  0.00    -0.123 OA 
HETATM   31  N   UNL     1      -7.558   8.851  66.809  1.00  0.00    -0.086 N  
HETATM   32  H   UNL     1      -7.033   8.505  67.612  1.00  0.00     0.000 HD 
BRANCH  28  33
HETATM   33  C   UNL     1      -9.602   5.304  68.927  1.00  0.00    -0.189 A  
HETATM   34  C   UNL     1     -10.340   5.846  69.987  1.00  0.00    -0.309 A  
HETATM   35  C   UNL     1      -9.263   3.943  68.990  1.00  0.00    -0.217 A  
HETATM   36  C   UNL     1      -9.667   3.140  70.074  1.00  0.00    -0.052 A  
HETATM   37  C   UNL     1     -10.744   5.045  71.071  1.00  0.00    -0.066 A  
HETATM   38  C   UNL     1     -10.410   3.692  71.111  1.00  0.00     0.389 A  
ENDBRANCH  28  33
BRANCH  31  39
HETATM   39  C   UNL     1      -6.917   9.805  65.879  1.00  0.00    -0.101 C  
HETATM   40  C   UNL     1      -7.755  12.157  65.502  1.00  0.00     1.961 C  
HETATM   41  C   UNL     1      -8.178  11.233  64.413  1.00  0.00     0.661 A  
HETATM   42  H   UNL     1      -7.231  12.338  68.063  1.00  0.00     0.000 HD 
HETATM   43  C   UNL     1      -6.851  11.281  66.396  1.00  0.00    -0.055 C  
HETATM   44  O   UNL     1      -7.272  11.442  67.749  1.00  0.00    -0.083 OA 
HETATM   45  C   UNL     1      -8.936  11.570  63.291  1.00  0.00     0.037 A  
HETATM   46  C   UNL     1      -9.189  10.584  62.338  1.00  0.00    -0.302 A  
HETATM   47  C   UNL     1      -8.678   9.294  62.506  1.00  0.00    -0.233 A  
HETATM   48  C   UNL     1      -7.935   8.957  63.641  1.00  0.00    -0.154 A  
HETATM   49  C   UNL     1      -7.700   9.943  64.604  1.00  0.00    -0.142 A  
ENDBRANCH  31  39
ENDBRANCH  23  26
ENDBRANCH  22  23
ENDBRANCH  12  22
ENDBRANCH   6   9
TORSDOF 8
ENDMDL
MODEL      216
REMARK 921   NORMALIZED FREE ENERGY PREDICTED BY IDOCK:   27.00 KCAL/MOL
REMARK 922        TOTAL FREE ENERGY PREDICTED BY IDOCK:   37.66 KCAL/MOL
REMARK 923 INTER-LIGAND FREE ENERGY PREDICTED BY IDOCK:   32.07 KCAL/MOL
REMARK 924 INTRA-LIGAND FREE ENERGY PREDICTED BY IDOCK:    5.59 KCAL/MOL
REMARK 927      BINDING AFFINITY PREDICTED BY RF-SCORE:    0.00 PKD
ROOT
HETATM    1  C   UNL     1      -6.172  16.505  70.169  1.00  0.00     0.006 C  
HETATM    2  C   UNL     1      -6.717  16.166  71.560  1.00  0.00     3.233 C  
HETATM    3  N   UNL     1      -7.715  15.050  71.586  1.00  0.00     2.522 N  
HETATM    4  C   UNL     1      -7.449  17.443  72.065  1.00  0.00    10.036 C  
HETATM    5  C   UNL     1      -5.549  15.926  72.529  1.00  0.00     1.056 C  
HETATM    6  C   UNL     1      -7.782  13.707  71.327  1.00  0.00     5.562 C  
HETATM    7  H   UNL     1      -8.625  15.398  71.889  1.00  0.00     0.000 HD 
HETATM    8  O   UNL     1      -8.783  13.140  71.792  1.00  0.00    12.689 OA 
ENDROOT
BRANCH   6   9
HETATM    9  C   UNL     1      -6.780  12.910  70.476  1.00  0.00     1.117 C  
HETATM   10  C   UNL     1      -6.773  13.146  68.913  1.00  0.00    -0.099 C  
HETATM   11  N   UNL     1      -5.494  12.663  68.301  1.00  0.00    -0.059 NA 
HETATM   12  N   UNL     1      -6.737  11.457  70.809  1.00  0.00     0.365 NA 
HETATM   13  C   UNL     1      -5.129  11.314  68.817  1.00  0.00    -0.040 C  
HETATM   14  C   UNL     1      -5.384  11.052  70.328  1.00  0.00    -0.077 C  
BRANCH  11  15
HETATM   15  C   UNL     1      -5.530  12.582  66.821  1.00  0.00     0.506 C  
BRANCH  15  16
HETATM   16  C   UNL     1      -5.431  11.216  66.190  1.00  0.00    -0.143 A  
HETATM   17  C   UNL     1      -5.281  11.085  64.812  1.00  0.00     0.118 A  
HETATM   18  N   UNL     1      -5.331   9.909  64.138  1.00  0.00    -0.074 NA 
HETATM   19  C   UNL     1      -5.704   8.813  66.251  1.00  0.00    -0.050 A  
HETATM   20  C   UNL     1      -5.545   8.801  64.875  1.00  0.00    -0.050 A  
HETATM   21  C   UNL     1      -5.647  10.041  66.915  1.00  0.00    -0.046 A  
ENDBRANCH  15  16
ENDBRANCH  11  15
BRANCH  12  22
HETATM   22  C   UNL     1      -7.773  10.547  70.193  1.00  0.00     0.293 C  
BRANCH  22  23
HETATM   23  C   UNL     1      -8.405  10.902  68.815  1.00  0.00    -0.151 C  
HETATM   24  O   UNL     1      -7.403  10.742  67.797  1.00  0.00    -0.090 OA 
HETATM   25  H   UNL     1      -7.789  10.958  66.956  1.00  0.00     0.000 HD 
BRANCH  23  26
HETATM   26  C   UNL     1      -9.542   9.979  68.287  1.00  0.00    -0.151 C  
HETATM   27  C   UNL     1     -10.225  10.241  66.921  1.00  0.00    -0.286 C  
HETATM   28  C   UNL     1     -10.990   8.950  66.466  1.00  0.00     0.658 C  
HETATM   29  C   UNL     1     -11.221  11.415  67.029  1.00  0.00    -0.283 C  
HETATM   30  O   UNL     1     -11.754  11.732  68.088  1.00  0.00    -0.365 OA 
HETATM   31  N   UNL     1     -11.481  12.105  65.858  1.00  0.00    -0.360 N  
HETATM   32  H   UNL     1     -11.188  11.705  64.966  1.00  0.00     0.000 HD 
BRANCH  28  33
HETATM   33  C   UNL     1     -10.149   7.704  66.185  1.00  0.00     0.238 A  
HETATM   34  C   UNL     1     -10.451   6.473  66.781  1.00  0.00    -0.300 A  
HETATM   35  C   UNL     1      -9.020   7.774  65.354  1.00  0.00     0.090 A  
HETATM   36  C   UNL     1      -8.224   6.638  65.109  1.00  0.00    -0.118 A  
HETATM   37  C   UNL     1      -9.656   5.338  66.536  1.00  0.00    -0.166 A  
HETATM   38  C   UNL     1      -8.545   5.421  65.697  1.00  0.00    -0.146 A  
ENDBRANCH  28  33
BRANCH  31  39
HETATM   39  C   UNL     1     -12.174  13.411  65.876  1.00  0.00    -0.450 C  
HETATM   40  C   UNL     1     -11.645  15.288  64.272  1.00  0.00    -0.204 C  
HETATM   41  C   UNL     1     -11.013  15.499  65.604  1.00  0.00    -0.307 A  
HETATM   42  H   UNL     1     -12.389  13.483  62.524  1.00  0.00     0.000 HD 
HETATM   43  C   UNL     1     -12.486  14.007  64.462  1.00  0.00    -0.308 C  
HETATM   44  O   UNL     1     -12.199  13.121  63.382  1.00  0.00    -0.646 OA 
HETATM   45  C   UNL     1     -10.224  16.586  65.982  1.00  0.00    -0.372 A  
HETATM   46  C   UNL     1      -9.762  16.647  67.296  1.00  0.00    -0.245 A  
HETATM   47  C   UNL     1     -10.100  15.645  68.210  1.00  0.00    -0.218 A  
HETATM   48  C   UNL     1     -10.875  14.549  67.821  1.00  0.00    -0.267 A  
HETATM   49  C   UNL     1     -11.320  14.480  66.497  1.00  0.00    -0.354 A  
ENDBRANCH  31  39
ENDBRANCH  23  26
ENDBRANCH  22  23
ENDBRANCH  12  22
ENDBRANCH   6   9
TORSDOF 8
ENDMDL
MODEL      217
REMARK 921   NORMALIZED FREE ENERGY PREDICTED BY IDOCK:   27.53 KCAL/MOL
REMARK 922        TOTAL FREE ENERGY PREDICTED BY IDOCK:   38.43 KCAL/MOL
REMARK 923 INTER-LIGAND FREE ENERGY PREDICTED BY IDOCK:   37.10 KCAL/MOL
REMARK 924 INTRA-LIGAND FREE ENERGY PREDICTED BY IDOCK:    1.33 KCAL/MOL
REMARK 927      BINDING AFFINITY PREDICTED BY RF-SCORE:    0.00 PKD
ROOT
HETATM    1  C   UNL     1      -9.258  18.725  69.846  1.00  0.00     1.063 C  
HETATM    2  C   UNL     1     -10.725  19.129  70.020  1.00  0.00     1.833 C  
HETATM    3  N   UNL     1     -11.704  18.006  69.873  1.00  0.00     3.319 N  
HETATM    4  C   UNL     1     -11.033  20.152  68.889  1.00  0.00     0.939 C  
HETATM    5  C   UNL     1     -10.901  19.886  71.346  1.00  0.00     4.439 C  
HETATM    6  C   UNL     1     -12.044  16.833  70.493  1.00  0.00     1.646 C  
HETATM    7  H   UNL     1     -12.302  18.163  69.062  1.00  0.00     0.000 HD 
HETATM    8  O   UNL     1     -13.151  16.377  70.168  1.00  0.00     0.808 OA 
ENDROOT
BRANCH   6   9
HETATM    9  C   UNL     1     -11.151  16.046  71.467  1.00  0.00     0.065 C  
HETATM   10  C   UNL     1      -9.694  15.656  70.994  1.00  0.00     1.784 C  
HETATM   11  N   UNL     1      -8.824  15.308  72.163  1.00  0.00     5.627 NA 
HETATM   12  N   UNL     1     -11.843  14.893  72.113  1.00  0.00    -0.346 NA 
HETATM   13  C   UNL     1      -9.532  14.399  73.107  1.00  0.00     8.795 C  
HETATM   14  C   UNL     1     -11.041  14.684  73.353  1.00  0.00     1.732 C  
BRANCH  11  15
HETATM   15  C   UNL     1      -7.546  14.657  71.788  1.00  0.00     3.764 C  
BRANCH  15  16
HETATM   16  C   UNL     1      -6.985  14.948  70.418  1.00  0.00     0.199 A  
HETATM   17  C   UNL     1      -6.736  16.259  70.021  1.00  0.00     0.185 A  
HETATM   18  N   UNL     1      -6.376  16.631  68.768  1.00  0.00    -0.145 NA 
HETATM   19  C   UNL     1      -6.478  14.307  68.141  1.00  0.00    -0.135 A  
HETATM   20  C   UNL     1      -6.259  15.645  67.857  1.00  0.00    -0.146 A  
HETATM   21  C   UNL     1      -6.849  13.957  69.442  1.00  0.00    -0.065 A  
ENDBRANCH  15  16
ENDBRANCH  11  15
BRANCH  12  22
HETATM   22  C   UNL     1     -11.929  13.590  71.355  1.00  0.00     0.371 C  
BRANCH  22  23
HETATM   23  C   UNL     1     -12.922  12.482  71.815  1.00  0.00    -0.313 C  
HETATM   24  O   UNL     1     -14.231  12.804  71.315  1.00  0.00     1.223 OA 
HETATM   25  H   UNL     1     -14.836  12.127  71.596  1.00  0.00     0.000 HD 
BRANCH  23  26
HETATM   26  C   UNL     1     -12.710  11.048  71.248  1.00  0.00    -0.537 C  
HETATM   27  C   UNL     1     -11.374  10.635  70.579  1.00  0.00    -0.355 C  
HETATM   28  C   UNL     1     -11.291   9.070  70.507  1.00  0.00    -0.282 C  
HETATM   29  C   UNL     1     -11.278  11.219  69.153  1.00  0.00    -0.273 C  
HETATM   30  O   UNL     1     -12.271  11.505  68.490  1.00  0.00    -0.524 OA 
HETATM   31  N   UNL     1     -10.002  11.412  68.657  1.00  0.00    -0.207 N  
HETATM   32  H   UNL     1      -9.209  10.986  69.137  1.00  0.00     0.000 HD 
BRANCH  28  33
HETATM   33  C   UNL     1     -11.247   8.314  71.835  1.00  0.00    -0.365 A  
HETATM   34  C   UNL     1     -12.421   7.888  72.469  1.00  0.00    -0.133 A  
HETATM   35  C   UNL     1     -10.024   8.064  72.478  1.00  0.00    -0.338 A  
HETATM   36  C   UNL     1      -9.975   7.390  73.714  1.00  0.00    -0.333 A  
HETATM   37  C   UNL     1     -12.372   7.214  73.703  1.00  0.00     3.065 A  
HETATM   38  C   UNL     1     -11.149   6.964  74.323  1.00  0.00     1.597 A  
ENDBRANCH  28  33
BRANCH  31  39
HETATM   39  C   UNL     1      -9.766  12.223  67.444  1.00  0.00    -0.185 C  
HETATM   40  C   UNL     1     -11.622  13.124  65.989  1.00  0.00    -0.393 C  
HETATM   41  C   UNL     1     -11.002  11.902  65.407  1.00  0.00    -0.352 A  
HETATM   42  H   UNL     1     -12.256  14.339  68.223  1.00  0.00     0.000 HD 
HETATM   43  C   UNL     1     -10.768  13.409  67.243  1.00  0.00    -0.260 C  
HETATM   44  O   UNL     1     -11.648  13.618  68.345  1.00  0.00    -0.297 OA 
HETATM   45  C   UNL     1     -11.353  11.289  64.204  1.00  0.00    -0.126 A  
HETATM   46  C   UNL     1     -10.620  10.180  63.783  1.00  0.00     1.331 A  
HETATM   47  C   UNL     1      -9.549   9.710  64.549  1.00  0.00    -0.094 A  
HETATM   48  C   UNL     1      -9.214  10.316  65.764  1.00  0.00    -0.215 A  
HETATM   49  C   UNL     1      -9.964  11.415  66.192  1.00  0.00    -0.265 A  
ENDBRANCH  31  39
ENDBRANCH  23  26
ENDBRANCH  22  23
ENDBRANCH  12  22
ENDBRANCH   6   9
TORSDOF 8
ENDMDL
MODEL      218
REMARK 921   NORMALIZED FREE ENERGY PREDICTED BY IDOCK:   27.96 KCAL/MOL
REMARK 922        TOTAL FREE ENERGY PREDICTED BY IDOCK:   39.07 KCAL/MOL
REMARK 923 INTER-LIGAND FREE ENERGY PREDICTED BY IDOCK:   -3.48 KCAL/MOL
REMARK 924 INTRA-LIGAND FREE ENERGY PREDICTED BY IDOCK:   42.55 KCAL/MOL
REMARK 927      BINDING AFFINITY PREDICTED BY RF-SCORE:    0.00 PKD
ROOT
HETATM    1  C   UNL     1     -13.528   9.633  71.028  1.00  0.00    -0.225 C  
HETATM    2  C   UNL     1     -12.990   8.213  71.228  1.00  0.00    -0.162 C  
HETATM    3  N   UNL     1     -12.507   7.545  69.978  1.00  0.00     0.092 N  
HETATM    4  C   UNL     1     -14.180   7.367  71.764  1.00  0.00    -0.544 C  
HETATM    5  C   UNL     1     -11.926   8.213  72.337  1.00  0.00    -0.431 C  
HETATM    6  C   UNL     1     -11.527   7.689  69.032  1.00  0.00     0.666 C  
HETATM    7  H   UNL     1     -13.086   6.733  69.765  1.00  0.00     0.000 HD 
HETATM    8  O   UNL     1     -11.337   6.688  68.326  1.00  0.00    -0.185 OA 
ENDROOT
BRANCH   6   9
HETATM    9  C   UNL     1     -10.734   8.978  68.756  1.00  0.00    -0.108 C  
HETATM   10  C   UNL     1      -9.157   8.887  68.701  1.00  0.00    -0.137 C  
HETATM   11  N   UNL     1      -8.573  10.077  68.002  1.00  0.00    -0.121 NA 
HETATM   12  N   UNL     1     -11.186  10.143  69.570  1.00  0.00    -0.244 NA 
HETATM   13  C   UNL     1      -9.196  11.342  68.486  1.00  0.00    -0.181 C  
HETATM   14  C   UNL     1     -10.726  11.306  68.759  1.00  0.00    -0.203 C  
BRANCH  11  15
HETATM   15  C   UNL     1      -7.106  10.209  68.165  1.00  0.00    -0.079 C  
BRANCH  15  16
HETATM   16  C   UNL     1      -6.585  11.441  68.863  1.00  0.00    -0.071 A  
HETATM   17  C   UNL     1      -5.983  12.463  68.134  1.00  0.00    -0.062 A  
HETATM   18  N   UNL     1      -5.355  13.534  68.679  1.00  0.00    -0.073 NA 
HETATM   19  C   UNL     1      -5.889  12.634  70.849  1.00  0.00     0.048 A  
HETATM   20  C   UNL     1      -5.321  13.591  70.026  1.00  0.00    -0.098 A  
HETATM   21  C   UNL     1      -6.528  11.542  70.255  1.00  0.00     0.096 A  
ENDBRANCH  15  16
ENDBRANCH  11  15
BRANCH  12  22
HETATM   22  C   UNL     1     -10.659  10.284  70.978  1.00  0.00     0.510 C  
BRANCH  22  23
HETATM   23  C   UNL     1      -9.370   9.524  71.411  1.00  0.00     0.357 C  
HETATM   24  O   UNL     1      -9.707   8.626  72.483  1.00  0.00    -0.276 OA 
HETATM   25  H   UNL     1      -8.921   8.163  72.747  1.00  0.00     0.000 HD 
BRANCH  23  26
HETATM   26  C   UNL     1      -8.727   8.555  70.377  1.00  0.00    -0.153 C  
HETATM   27  C   UNL     1      -9.408   7.216  69.994  1.00  0.00    -0.154 C  
HETATM   28  C   UNL     1      -8.785   6.680  68.658  1.00  0.00    -0.124 C  
HETATM   29  C   UNL     1      -9.208   6.167  71.109  1.00  0.00    -0.153 C  
HETATM   30  O   UNL     1      -8.264   6.210  71.893  1.00  0.00    -0.113 OA 
HETATM   31  N   UNL     1     -10.162   5.168  71.185  1.00  0.00    -0.220 N  
HETATM   32  H   UNL     1     -10.814   5.039  70.412  1.00  0.00     0.000 HD 
BRANCH  28  33
HETATM   33  C   UNL     1      -8.991   7.530  67.404  1.00  0.00    -0.129 A  
HETATM   34  C   UNL     1      -7.904   7.980  66.644  1.00  0.00    -0.098 A  
HETATM   35  C   UNL     1     -10.280   7.920  67.005  1.00  0.00    -0.382 A  
HETATM   36  C   UNL     1     -10.478   8.723  65.865  1.00  0.00     0.879 A  
HETATM   37  C   UNL     1      -8.102   8.783  65.505  1.00  0.00    -0.115 A  
HETATM   38  C   UNL     1      -9.389   9.151  65.116  1.00  0.00    -0.180 A  
ENDBRANCH  28  33
BRANCH  31  39
HETATM   39  C   UNL     1     -10.254   4.285  72.367  1.00  0.00    -0.181 C  
HETATM   40  C   UNL     1      -8.826   4.570  74.431  1.00  0.00    -0.108 C  
HETATM   41  C   UNL     1      -8.315   3.488  73.544  1.00  0.00    -0.079 A  
HETATM   42  H   UNL     1     -10.049   6.887  74.482  1.00  0.00     0.000 HD 
HETATM   43  C   UNL     1     -10.135   5.019  73.745  1.00  0.00    -0.187 C  
HETATM   44  O   UNL     1     -10.121   6.442  73.646  1.00  0.00    -0.194 OA 
HETATM   45  C   UNL     1      -7.195   2.688  73.778  1.00  0.00    -0.040 A  
HETATM   46  C   UNL     1      -6.897   1.678  72.863  1.00  0.00    -0.022 A  
HETATM   47  C   UNL     1      -7.716   1.471  71.750  1.00  0.00    -0.040 A  
HETATM   48  C   UNL     1      -8.825   2.287  71.511  1.00  0.00    -0.120 A  
HETATM   49  C   UNL     1      -9.110   3.311  72.419  1.00  0.00    -0.136 A  
ENDBRANCH  31  39
ENDBRANCH  23  26
ENDBRANCH  22  23
ENDBRANCH  12  22
ENDBRANCH   6   9
TORSDOF 8
ENDMDL
MODEL      219
REMARK 921   NORMALIZED FREE ENERGY PREDICTED BY IDOCK:   28.01 KCAL/MOL
REMARK 922        TOTAL FREE ENERGY PREDICTED BY IDOCK:   39.14 KCAL/MOL
REMARK 923 INTER-LIGAND FREE ENERGY PREDICTED BY IDOCK:    1.86 KCAL/MOL
REMARK 924 INTRA-LIGAND FREE ENERGY PREDICTED BY IDOCK:   37.28 KCAL/MOL
REMARK 927      BINDING AFFINITY PREDICTED BY RF-SCORE:    0.00 PKD
ROOT
HETATM    1  C   UNL     1      -7.429  11.392  65.980  1.00  0.00     0.206 C  
HETATM    2  C   UNL     1      -6.896   9.958  66.056  1.00  0.00    -0.099 C  
HETATM    3  N   UNL     1      -6.699   9.437  67.447  1.00  0.00    -0.068 N  
HETATM    4  C   UNL     1      -5.497   9.975  65.375  1.00  0.00    -0.064 C  
HETATM    5  C   UNL     1      -7.779   9.031  65.207  1.00  0.00    -0.100 C  
HETATM    6  C   UNL     1      -7.437   9.130  68.558  1.00  0.00    -0.081 C  
HETATM    7  H   UNL     1      -5.710   9.257  67.619  1.00  0.00     0.000 HD 
HETATM    8  O   UNL     1      -6.847   8.429  69.394  1.00  0.00    -0.045 OA 
ENDROOT
BRANCH   6   9
HETATM    9  C   UNL     1      -8.860   9.634  68.853  1.00  0.00    -0.136 C  
HETATM   10  C   UNL     1      -9.833   8.690  69.666  1.00  0.00    -0.186 C  
HETATM   11  N   UNL     1     -10.976   9.467  70.246  1.00  0.00    -0.249 NA 
HETATM   12  N   UNL     1      -9.541  10.230  67.667  1.00  0.00    -0.151 NA 
HETATM   13  C   UNL     1     -11.563  10.391  69.235  1.00  0.00    -0.176 C  
HETATM   14  C   UNL     1     -10.564  11.118  68.290  1.00  0.00    -0.190 C  
BRANCH  11  15
HETATM   15  C   UNL     1     -12.074   8.619  70.767  1.00  0.00    -0.068 C  
BRANCH  15  16
HETATM   16  C   UNL     1     -11.705   7.465  71.666  1.00  0.00    -0.311 A  
HETATM   17  C   UNL     1     -11.162   7.699  72.927  1.00  0.00    -0.372 A  
HETATM   18  N   UNL     1     -10.664   6.737  73.743  1.00  0.00    -0.287 NA 
HETATM   19  C   UNL     1     -11.225   5.124  72.044  1.00  0.00    -0.013 A  
HETATM   20  C   UNL     1     -10.705   5.472  73.279  1.00  0.00    -0.274 A  
HETATM   21  C   UNL     1     -11.730   6.138  71.227  1.00  0.00    -0.211 A  
ENDBRANCH  15  16
ENDBRANCH  11  15
BRANCH  12  22
HETATM   22  C   UNL     1     -10.221   9.303  66.688  1.00  0.00    -0.253 C  
BRANCH  22  23
HETATM   23  C   UNL     1     -11.220   8.223  67.198  1.00  0.00     0.859 C  
HETATM   24  O   UNL     1     -11.275   7.158  66.234  1.00  0.00     0.303 OA 
HETATM   25  H   UNL     1     -11.885   6.499  66.545  1.00  0.00     0.000 HD 
BRANCH  23  26
HETATM   26  C   UNL     1     -10.845   7.454  68.498  1.00  0.00    -0.071 C  
HETATM   27  C   UNL     1      -9.619   6.507  68.549  1.00  0.00    -0.123 C  
HETATM   28  C   UNL     1      -9.240   6.228  70.045  1.00  0.00    -0.157 C  
HETATM   29  C   UNL     1      -9.936   5.171  67.844  1.00  0.00    -0.152 C  
HETATM   30  O   UNL     1     -11.080   4.740  67.731  1.00  0.00     0.851 OA 
HETATM   31  N   UNL     1      -8.853   4.478  67.334  1.00  0.00    -0.104 N  
HETATM   32  H   UNL     1      -7.910   4.749  67.611  1.00  0.00     0.000 HD 
BRANCH  28  33
HETATM   33  C   UNL     1      -8.775   7.422  70.879  1.00  0.00    -0.144 A  
HETATM   34  C   UNL     1      -9.652   8.461  71.216  1.00  0.00    -0.239 A  
HETATM   35  C   UNL     1      -7.438   7.530  71.295  1.00  0.00    -0.079 A  
HETATM   36  C   UNL     1      -6.994   8.638  72.042  1.00  0.00    -0.081 A  
HETATM   37  C   UNL     1      -9.209   9.568  71.963  1.00  0.00     1.427 A  
HETATM   38  C   UNL     1      -7.880   9.654  72.378  1.00  0.00     2.129 A  
ENDBRANCH  28  33
BRANCH  31  39
HETATM   39  C   UNL     1      -9.037   3.353  66.393  1.00  0.00    -0.158 C  
HETATM   40  C   UNL     1      -7.321   2.688  64.665  1.00  0.00    -0.066 C  
HETATM   41  C   UNL     1      -8.428   3.489  64.072  1.00  0.00    -0.090 A  
HETATM   42  H   UNL     1      -5.870   2.318  66.814  1.00  0.00     0.000 HD 
HETATM   43  C   UNL     1      -7.753   2.496  66.134  1.00  0.00    -0.076 C  
HETATM   44  O   UNL     1      -6.649   2.838  66.971  1.00  0.00    -0.035 OA 
HETATM   45  C   UNL     1      -8.561   3.851  62.730  1.00  0.00    -0.089 A  
HETATM   46  C   UNL     1      -9.699   4.556  62.341  1.00  0.00    -0.061 A  
HETATM   47  C   UNL     1     -10.686   4.874  63.278  1.00  0.00     1.234 A  
HETATM   48  C   UNL     1     -10.539   4.527  64.623  1.00  0.00     0.066 A  
HETATM   49  C   UNL     1      -9.387   3.838  65.014  1.00  0.00    -0.157 A  
ENDBRANCH  31  39
ENDBRANCH  23  26
ENDBRANCH  22  23
ENDBRANCH  12  22
ENDBRANCH   6   9
TORSDOF 8
ENDMDL
MODEL      220
REMARK 921   NORMALIZED FREE ENERGY PREDICTED BY IDOCK:   33.03 KCAL/MOL
REMARK 922        TOTAL FREE ENERGY PREDICTED BY IDOCK:   46.51 KCAL/MOL
REMARK 923 INTER-LIGAND FREE ENERGY PREDICTED BY IDOCK:   13.90 KCAL/MOL
REMARK 924 INTRA-LIGAND FREE ENERGY PREDICTED BY IDOCK:   32.61 KCAL/MOL
REMARK 927      BINDING AFFINITY PREDICTED BY RF-SCORE:    0.00 PKD
ROOT
HETATM    1  C   UNL     1     -13.442  11.295  66.399  1.00  0.00    10.515 C  
HETATM    2  C   UNL     1     -12.413  12.175  65.682  1.00  0.00     0.501 C  
HETATM    3  N   UNL     1     -11.544  12.987  66.591  1.00  0.00    -0.340 N  
HETATM    4  C   UNL     1     -13.227  13.179  64.815  1.00  0.00     0.253 C  
HETATM    5  C   UNL     1     -11.595  11.322  64.701  1.00  0.00     0.125 C  
HETATM    6  C   UNL     1     -10.587  12.805  67.554  1.00  0.00    -0.229 C  
HETATM    7  H   UNL     1     -11.718  13.982  66.450  1.00  0.00     0.000 HD 
HETATM    8  O   UNL     1      -9.923  13.817  67.822  1.00  0.00    -0.232 OA 
ENDROOT
BRANCH   6   9
HETATM    9  C   UNL     1     -10.346  11.504  68.339  1.00  0.00    -0.202 C  
HETATM   10  C   UNL     1      -8.921  10.827  68.240  1.00  0.00    -0.143 C  
HETATM   11  N   UNL     1      -8.703   9.864  69.368  1.00  0.00    -0.165 NA 
HETATM   12  N   UNL     1     -11.439  10.501  68.184  1.00  0.00    -0.386 NA 
HETATM   13  C   UNL     1      -9.894   8.990  69.563  1.00  0.00    -0.180 C  
HETATM   14  C   UNL     1     -11.287   9.662  69.407  1.00  0.00     0.002 C  
BRANCH  11  15
HETATM   15  C   UNL     1      -7.525   8.983  69.186  1.00  0.00    -0.072 C  
BRANCH  15  16
HETATM   16  C   UNL     1      -7.125   8.097  70.340  1.00  0.00    -0.041 A  
HETATM   17  C   UNL     1      -7.063   8.609  71.633  1.00  0.00    -0.092 A  
HETATM   18  N   UNL     1      -6.575   7.939  72.706  1.00  0.00    -0.068 NA 
HETATM   19  C   UNL     1      -6.138   6.080  71.237  1.00  0.00    -0.035 A  
HETATM   20  C   UNL     1      -6.121   6.690  72.480  1.00  0.00    -0.042 A  
HETATM   21  C   UNL     1      -6.646   6.798  70.153  1.00  0.00    -0.044 A  
ENDBRANCH  15  16
ENDBRANCH  11  15
BRANCH  12  22
HETATM   22  C   UNL     1     -11.427   9.608  66.967  1.00  0.00     1.359 C  
BRANCH  22  23
HETATM   23  C   UNL     1     -11.768   8.094  67.104  1.00  0.00     3.058 C  
HETATM   24  O   UNL     1     -11.515   7.452  65.843  1.00  0.00     2.653 OA 
HETATM   25  H   UNL     1     -11.723   6.529  65.927  1.00  0.00     0.000 HD 
BRANCH  23  26
HETATM   26  C   UNL     1     -10.892   7.246  68.073  1.00  0.00    -0.161 C  
HETATM   27  C   UNL     1      -9.476   7.713  68.496  1.00  0.00    -0.147 C  
HETATM   28  C   UNL     1      -9.027   6.918  69.772  1.00  0.00    -0.141 C  
HETATM   29  C   UNL     1      -8.462   7.471  67.359  1.00  0.00    -0.115 C  
HETATM   30  O   UNL     1      -8.627   6.609  66.500  1.00  0.00    -0.115 OA 
HETATM   31  N   UNL     1      -7.346   8.289  67.350  1.00  0.00    -0.091 N  
HETATM   32  H   UNL     1      -7.133   8.852  68.173  1.00  0.00     0.000 HD 
BRANCH  28  33
HETATM   33  C   UNL     1      -9.844   7.129  71.047  1.00  0.00    -0.181 A  
HETATM   34  C   UNL     1     -10.185   6.055  71.879  1.00  0.00    -0.237 A  
HETATM   35  C   UNL     1     -10.313   8.406  71.396  1.00  0.00    -0.285 A  
HETATM   36  C   UNL     1     -11.087   8.606  72.555  1.00  0.00    -0.234 A  
HETATM   37  C   UNL     1     -10.958   6.255  73.037  1.00  0.00    -0.271 A  
HETATM   38  C   UNL     1     -11.405   7.531  73.376  1.00  0.00     0.143 A  
ENDBRANCH  28  33
BRANCH  31  39
HETATM   39  C   UNL     1      -6.458   8.362  66.171  1.00  0.00    -0.053 C  
HETATM   40  C   UNL     1      -5.536  10.526  65.256  1.00  0.00    -0.139 C  
HETATM   41  C   UNL     1      -6.701  10.040  64.466  1.00  0.00    -0.128 A  
HETATM   42  H   UNL     1      -4.474  10.633  67.649  1.00  0.00     0.000 HD 
HETATM   43  C   UNL     1      -5.296   9.404  66.288  1.00  0.00    -0.040 C  
HETATM   44  O   UNL     1      -5.180  10.001  67.578  1.00  0.00    -0.038 OA 
HETATM   45  C   UNL     1      -7.254  10.656  63.343  1.00  0.00     0.155 A  
HETATM   46  C   UNL     1      -8.312  10.024  62.691  1.00  0.00    -0.165 A  
HETATM   47  C   UNL     1      -8.791   8.794  63.152  1.00  0.00     0.123 A  
HETATM   48  C   UNL     1      -8.246   8.191  64.289  1.00  0.00    -0.095 A  
HETATM   49  C   UNL     1      -7.198   8.837  64.952  1.00  0.00    -0.084 A  
ENDBRANCH  31  39
ENDBRANCH  23  26
ENDBRANCH  22  23
ENDBRANCH  12  22
ENDBRANCH   6   9
TORSDOF 8
ENDMDL
MODEL      221
REMARK 921   NORMALIZED FREE ENERGY PREDICTED BY IDOCK:   34.90 KCAL/MOL
REMARK 922        TOTAL FREE ENERGY PREDICTED BY IDOCK:   49.25 KCAL/MOL
REMARK 923 INTER-LIGAND FREE ENERGY PREDICTED BY IDOCK:   30.60 KCAL/MOL
REMARK 924 INTRA-LIGAND FREE ENERGY PREDICTED BY IDOCK:   18.66 KCAL/MOL
REMARK 927      BINDING AFFINITY PREDICTED BY RF-SCORE:    0.00 PKD
ROOT
HETATM    1  C   UNL     1      -8.918  16.300  69.302  1.00  0.00    -0.170 C  
HETATM    2  C   UNL     1      -9.952  15.354  68.683  1.00  0.00    -0.210 C  
HETATM    3  N   UNL     1      -9.377  14.296  67.793  1.00  0.00    -0.193 N  
HETATM    4  C   UNL     1     -10.877  16.238  67.799  1.00  0.00    -0.315 C  
HETATM    5  C   UNL     1     -10.843  14.766  69.788  1.00  0.00    -0.222 C  
HETATM    6  C   UNL     1      -8.553  13.205  67.870  1.00  0.00    -0.185 C  
HETATM    7  H   UNL     1      -9.697  14.429  66.834  1.00  0.00     0.000 HD 
HETATM    8  O   UNL     1      -8.609  12.443  66.893  1.00  0.00    -0.195 OA 
ENDROOT
BRANCH   6   9
HETATM    9  C   UNL     1      -7.557  12.916  69.007  1.00  0.00     0.150 C  
HETATM   10  C   UNL     1      -6.896  11.481  69.072  1.00  0.00    -0.107 C  
HETATM   11  N   UNL     1      -5.661  11.497  69.921  1.00  0.00    -0.076 NA 
HETATM   12  N   UNL     1      -8.035  13.359  70.347  1.00  0.00     2.762 NA 
HETATM   13  C   UNL     1      -5.895  12.231  71.196  1.00  0.00     0.344 C  
HETATM   14  C   UNL     1      -6.764  13.517  71.111  1.00  0.00     1.686 C  
BRANCH  11  15
HETATM   15  C   UNL     1      -5.154  10.147  70.267  1.00  0.00    -0.039 C  
BRANCH  15  16
HETATM   16  C   UNL     1      -5.850   9.400  71.378  1.00  0.00    -0.075 A  
HETATM   17  C   UNL     1      -6.633  10.083  72.305  1.00  0.00     1.463 A  
HETATM   18  N   UNL     1      -7.173   9.526  73.418  1.00  0.00     0.745 NA 
HETATM   19  C   UNL     1      -6.158   7.441  72.764  1.00  0.00    -0.050 A  
HETATM   20  C   UNL     1      -6.919   8.218  73.622  1.00  0.00    -0.121 A  
HETATM   21  C   UNL     1      -5.614   8.045  71.628  1.00  0.00    -0.035 A  
ENDBRANCH  15  16
ENDBRANCH  11  15
BRANCH  12  22
HETATM   22  C   UNL     1      -8.964  12.450  71.116  1.00  0.00    12.626 C  
BRANCH  22  23
HETATM   23  C   UNL     1      -8.630  10.937  71.268  1.00  0.00     6.238 C  
HETATM   24  O   UNL     1      -9.545  10.359  72.214  1.00  0.00     4.245 OA 
HETATM   25  H   UNL     1      -9.340   9.436  72.307  1.00  0.00     0.000 HD 
BRANCH  23  26
HETATM   26  C   UNL     1      -8.842  10.026  70.024  1.00  0.00    -0.117 C  
HETATM   27  C   UNL     1      -9.913   8.905  70.020  1.00  0.00    -0.204 C  
HETATM   28  C   UNL     1     -10.195   8.462  68.542  1.00  0.00    -0.228 C  
HETATM   29  C   UNL     1      -9.428   7.688  70.835  1.00  0.00    -0.164 C  
HETATM   30  O   UNL     1      -8.237   7.442  71.008  1.00  0.00    -0.108 OA 
HETATM   31  N   UNL     1     -10.414   6.881  71.374  1.00  0.00    -0.209 N  
HETATM   32  H   UNL     1     -11.377   6.987  71.054  1.00  0.00     0.000 HD 
BRANCH  28  33
HETATM   33  C   UNL     1     -10.802   9.508  67.606  1.00  0.00    -0.253 A  
HETATM   34  C   UNL     1     -11.548  10.584  68.104  1.00  0.00    -0.145 A  
HETATM   35  C   UNL     1     -10.664   9.392  66.214  1.00  0.00     0.195 A  
HETATM   36  C   UNL     1     -11.240  10.336  65.342  1.00  0.00     1.174 A  
HETATM   37  C   UNL     1     -12.124  11.528  67.233  1.00  0.00     0.451 A  
HETATM   38  C   UNL     1     -11.966  11.404  65.854  1.00  0.00     0.867 A  
ENDBRANCH  28  33
BRANCH  31  39
HETATM   39  C   UNL     1     -10.099   5.869  72.403  1.00  0.00    -0.177 C  
HETATM   40  C   UNL     1      -7.754   5.074  72.901  1.00  0.00    -0.097 C  
HETATM   41  C   UNL     1      -8.500   4.109  72.046  1.00  0.00    -0.111 A  
HETATM   42  H   UNL     1      -7.435   7.610  73.477  1.00  0.00     0.000 HD 
HETATM   43  C   UNL     1      -8.802   6.158  73.232  1.00  0.00    -0.126 C  
HETATM   44  O   UNL     1      -8.221   7.435  72.974  1.00  0.00    -0.105 OA 
HETATM   45  C   UNL     1      -8.018   2.894  71.557  1.00  0.00    -0.056 A  
HETATM   46  C   UNL     1      -8.881   2.086  70.817  1.00  0.00    -0.121 A  
HETATM   47  C   UNL     1     -10.200   2.487  70.588  1.00  0.00     0.737 A  
HETATM   48  C   UNL     1     -10.671   3.714  71.063  1.00  0.00     1.381 A  
HETATM   49  C   UNL     1      -9.798   4.530  71.788  1.00  0.00    -0.252 A  
ENDBRANCH  31  39
ENDBRANCH  23  26
ENDBRANCH  22  23
ENDBRANCH  12  22
ENDBRANCH   6   9
TORSDOF 8
ENDMDL
MODEL      222
REMARK 921   NORMALIZED FREE ENERGY PREDICTED BY IDOCK:   35.93 KCAL/MOL
REMARK 922        TOTAL FREE ENERGY PREDICTED BY IDOCK:   50.77 KCAL/MOL
REMARK 923 INTER-LIGAND FREE ENERGY PREDICTED BY IDOCK:   10.16 KCAL/MOL
REMARK 924 INTRA-LIGAND FREE ENERGY PREDICTED BY IDOCK:   40.61 KCAL/MOL
REMARK 927      BINDING AFFINITY PREDICTED BY RF-SCORE:    0.00 PKD
ROOT
HETATM    1  C   UNL     1     -13.546  11.280  66.401  1.00  0.00    11.732 C  
HETATM    2  C   UNL     1     -12.323  11.870  65.691  1.00  0.00     0.707 C  
HETATM    3  N   UNL     1     -11.306  12.483  66.603  1.00  0.00    -0.314 N  
HETATM    4  C   UNL     1     -12.858  13.008  64.775  1.00  0.00    -0.336 C  
HETATM    5  C   UNL     1     -11.709  10.817  64.756  1.00  0.00     1.512 C  
HETATM    6  C   UNL     1     -10.440  12.113  67.597  1.00  0.00    -0.206 C  
HETATM    7  H   UNL     1     -11.237  13.486  66.430  1.00  0.00     0.000 HD 
HETATM    8  O   UNL     1      -9.561  12.948  67.857  1.00  0.00    -0.201 OA 
ENDROOT
BRANCH   6   9
HETATM    9  C   UNL     1     -10.530  10.817  68.422  1.00  0.00    -0.183 C  
HETATM   10  C   UNL     1      -9.219  10.294  69.133  1.00  0.00    -0.194 C  
HETATM   11  N   UNL     1      -9.550   9.321  70.224  1.00  0.00    -0.217 NA 
HETATM   12  N   UNL     1     -11.251   9.714  67.725  1.00  0.00    -0.025 NA 
HETATM   13  C   UNL     1     -10.556   8.323  69.764  1.00  0.00    -0.228 C  
HETATM   14  C   UNL     1     -11.702   8.853  68.857  1.00  0.00     1.270 C  
BRANCH  11  15
HETATM   15  C   UNL     1      -8.378   8.572  70.736  1.00  0.00    -0.139 C  
BRANCH  15  16
HETATM   16  C   UNL     1      -8.591   7.654  71.914  1.00  0.00    -0.131 A  
HETATM   17  C   UNL     1      -9.198   8.125  73.075  1.00  0.00    -0.273 A  
HETATM   18  N   UNL     1      -9.299   7.425  74.232  1.00  0.00    -0.177 NA 
HETATM   19  C   UNL     1      -8.143   5.616  73.138  1.00  0.00    -0.118 A  
HETATM   20  C   UNL     1      -8.765   6.187  74.236  1.00  0.00    -0.126 A  
HETATM   21  C   UNL     1      -8.054   6.365  71.962  1.00  0.00    -0.108 A  
ENDBRANCH  15  16
ENDBRANCH  11  15
BRANCH  12  22
HETATM   22  C   UNL     1     -10.487   8.868  66.736  1.00  0.00    -0.199 C  
BRANCH  22  23
HETATM   23  C   UNL     1     -10.640   7.318  66.748  1.00  0.00    -0.217 C  
HETATM   24  O   UNL     1      -9.605   6.749  65.929  1.00  0.00    -0.393 OA 
HETATM   25  H   UNL     1      -9.698   5.803  65.937  1.00  0.00     0.000 HD 
BRANCH  23  26
HETATM   26  C   UNL     1     -10.412   6.585  68.102  1.00  0.00    -0.264 C  
HETATM   27  C   UNL     1      -9.663   7.269  69.273  1.00  0.00    -0.161 C  
HETATM   28  C   UNL     1      -9.961   6.495  70.604  1.00  0.00    -0.206 C  
HETATM   29  C   UNL     1      -8.141   7.276  69.014  1.00  0.00    -0.124 C  
HETATM   30  O   UNL     1      -7.592   6.448  68.293  1.00  0.00    -0.099 OA 
HETATM   31  N   UNL     1      -7.419   8.277  69.639  1.00  0.00    -0.079 N  
HETATM   32  H   UNL     1      -7.858   8.821  70.381  1.00  0.00     0.000 HD 
BRANCH  28  33
HETATM   33  C   UNL     1     -11.409   6.486  71.094  1.00  0.00    -0.367 A  
HETATM   34  C   UNL     1     -12.429   7.109  70.364  1.00  0.00     0.069 A  
HETATM   35  C   UNL     1     -11.749   5.886  72.318  1.00  0.00    -0.309 A  
HETATM   36  C   UNL     1     -13.076   5.894  72.790  1.00  0.00     0.858 A  
HETATM   37  C   UNL     1     -13.755   7.117  70.835  1.00  0.00     0.150 A  
HETATM   38  C   UNL     1     -14.077   6.506  72.046  1.00  0.00     0.043 A  
ENDBRANCH  28  33
BRANCH  31  39
HETATM   39  C   UNL     1      -6.025   8.573  69.249  1.00  0.00    -0.041 C  
HETATM   40  C   UNL     1      -5.145  10.913  68.896  1.00  0.00    -0.041 C  
HETATM   41  C   UNL     1      -5.461  10.237  67.608  1.00  0.00    -0.044 A  
HETATM   42  H   UNL     1      -5.830  11.132  71.416  1.00  0.00     0.000 HD 
HETATM   43  C   UNL     1      -5.396   9.820  69.957  1.00  0.00    -0.036 C  
HETATM   44  O   UNL     1      -6.212  10.375  70.987  1.00  0.00    -0.311 OA 
HETATM   45  C   UNL     1      -5.302  10.776  66.330  1.00  0.00    -0.084 A  
HETATM   46  C   UNL     1      -5.595   9.973  65.229  1.00  0.00    -0.077 A  
HETATM   47  C   UNL     1      -6.023   8.655  65.410  1.00  0.00    -0.048 A  
HETATM   48  C   UNL     1      -6.199   8.127  66.693  1.00  0.00    -0.054 A  
HETATM   49  C   UNL     1      -5.924   8.940  67.795  1.00  0.00    -0.047 A  
ENDBRANCH  31  39
ENDBRANCH  23  26
ENDBRANCH  22  23
ENDBRANCH  12  22
ENDBRANCH   6   9
TORSDOF 8
ENDMDL
MODEL      223
REMARK 921   NORMALIZED FREE ENERGY PREDICTED BY IDOCK:   36.20 KCAL/MOL
REMARK 922        TOTAL FREE ENERGY PREDICTED BY IDOCK:   51.16 KCAL/MOL
REMARK 923 INTER-LIGAND FREE ENERGY PREDICTED BY IDOCK:   20.36 KCAL/MOL
REMARK 924 INTRA-LIGAND FREE ENERGY PREDICTED BY IDOCK:   30.81 KCAL/MOL
REMARK 927      BINDING AFFINITY PREDICTED BY RF-SCORE:    0.00 PKD
ROOT
HETATM    1  C   UNL     1      -6.238  11.050  68.458  1.00  0.00    -0.042 C  
HETATM    2  C   UNL     1      -7.260  11.733  69.373  1.00  0.00     0.076 C  
HETATM    3  N   UNL     1      -7.535  13.167  69.040  1.00  0.00    -0.303 N  
HETATM    4  C   UNL     1      -6.651  11.708  70.804  1.00  0.00     1.212 C  
HETATM    5  C   UNL     1      -8.544  10.892  69.435  1.00  0.00     0.092 C  
HETATM    6  C   UNL     1      -8.070  13.917  68.027  1.00  0.00    -0.154 C  
HETATM    7  H   UNL     1      -7.230  13.771  69.803  1.00  0.00     0.000 HD 
HETATM    8  O   UNL     1      -8.364  15.080  68.342  1.00  0.00    -0.142 OA 
ENDROOT
BRANCH   6   9
HETATM    9  C   UNL     1      -8.255  13.452  66.572  1.00  0.00     0.556 C  
HETATM   10  C   UNL     1      -9.715  13.460  65.966  1.00  0.00    -0.215 C  
HETATM   11  N   UNL     1      -9.675  13.419  64.468  1.00  0.00     0.062 NA 
HETATM   12  N   UNL     1      -7.539  12.183  66.256  1.00  0.00     0.438 NA 
HETATM   13  C   UNL     1      -8.710  12.392  63.985  1.00  0.00     2.048 C  
HETATM   14  C   UNL     1      -7.378  12.259  64.775  1.00  0.00     5.021 C  
BRANCH  11  15
HETATM   15  C   UNL     1     -10.987  13.132  63.841  1.00  0.00    -0.274 C  
BRANCH  15  16
HETATM   16  C   UNL     1     -12.208  13.795  64.429  1.00  0.00    -0.440 A  
HETATM   17  C   UNL     1     -12.203  15.158  64.711  1.00  0.00    -0.137 A  
HETATM   18  N   UNL     1     -13.189  15.813  65.372  1.00  0.00     2.122 NA 
HETATM   19  C   UNL     1     -14.350  13.709  65.550  1.00  0.00     5.494 A  
HETATM   20  C   UNL     1     -14.238  15.071  65.779  1.00  0.00     4.880 A  
HETATM   21  C   UNL     1     -13.316  13.065  64.867  1.00  0.00     0.576 A  
ENDBRANCH  15  16
ENDBRANCH  11  15
BRANCH  12  22
HETATM   22  C   UNL     1      -8.202  10.874  66.614  1.00  0.00    -0.145 C  
BRANCH  22  23
HETATM   23  C   UNL     1      -7.502   9.524  66.277  1.00  0.00    -0.097 C  
HETATM   24  O   UNL     1      -6.096   9.768  66.108  1.00  0.00    -0.061 OA 
HETATM   25  H   UNL     1      -5.669   8.944  65.902  1.00  0.00     0.000 HD 
BRANCH  23  26
HETATM   26  C   UNL     1      -7.503   8.421  67.375  1.00  0.00    -0.093 C  
HETATM   27  C   UNL     1      -8.737   8.191  68.284  1.00  0.00    -0.133 C  
HETATM   28  C   UNL     1      -8.624   6.783  68.966  1.00  0.00    -0.131 C  
HETATM   29  C   UNL     1      -8.821   9.282  69.373  1.00  0.00    -0.149 C  
HETATM   30  O   UNL     1      -7.834   9.896  69.768  1.00  0.00    -0.128 OA 
HETATM   31  N   UNL     1     -10.081   9.541  69.882  1.00  0.00    -0.216 N  
HETATM   32  H   UNL     1     -10.842   8.890  69.689  1.00  0.00     0.000 HD 
BRANCH  28  33
HETATM   33  C   UNL     1      -8.652   5.560  68.049  1.00  0.00    -0.100 A  
HETATM   34  C   UNL     1      -7.600   4.635  68.037  1.00  0.00    -0.077 A  
HETATM   35  C   UNL     1      -9.718   5.356  67.158  1.00  0.00    -0.159 A  
HETATM   36  C   UNL     1      -9.741   4.246  66.291  1.00  0.00    -0.225 A  
HETATM   37  C   UNL     1      -7.623   3.526  67.171  1.00  0.00    -0.079 A  
HETATM   38  C   UNL     1      -8.695   3.331  66.302  1.00  0.00    -0.129 A  
ENDBRANCH  28  33
BRANCH  31  39
HETATM   39  C   UNL     1     -10.344  10.743  70.701  1.00  0.00     1.223 C  
HETATM   40  C   UNL     1     -12.662  11.502  71.354  1.00  0.00    -0.469 C  
HETATM   41  C   UNL     1     -12.122  12.285  70.208  1.00  0.00    -0.376 A  
HETATM   42  H   UNL     1     -12.683   9.151  72.512  1.00  0.00     0.000 HD 
HETATM   43  C   UNL     1     -11.490  10.581  71.756  1.00  0.00     1.106 C  
HETATM   44  O   UNL     1     -11.988   9.249  71.871  1.00  0.00    -0.362 OA 
HETATM   45  C   UNL     1     -12.767  13.328  69.542  1.00  0.00     0.452 A  
HETATM   46  C   UNL     1     -12.082  13.991  68.524  1.00  0.00    -0.329 A  
HETATM   47  C   UNL     1     -10.775  13.621  68.196  1.00  0.00    -0.260 A  
HETATM   48  C   UNL     1     -10.141  12.562  68.853  1.00  0.00     0.034 A  
HETATM   49  C   UNL     1     -10.837  11.887  69.860  1.00  0.00     0.392 A  
ENDBRANCH  31  39
ENDBRANCH  23  26
ENDBRANCH  22  23
ENDBRANCH  12  22
ENDBRANCH   6   9
TORSDOF 8
ENDMDL
MODEL      224
REMARK 921   NORMALIZED FREE ENERGY PREDICTED BY IDOCK:   39.68 KCAL/MOL
REMARK 922        TOTAL FREE ENERGY PREDICTED BY IDOCK:   56.27 KCAL/MOL
REMARK 923 INTER-LIGAND FREE ENERGY PREDICTED BY IDOCK:   55.35 KCAL/MOL
REMARK 924 INTRA-LIGAND FREE ENERGY PREDICTED BY IDOCK:    0.92 KCAL/MOL
REMARK 927      BINDING AFFINITY PREDICTED BY RF-SCORE:    0.00 PKD
ROOT
HETATM    1  C   UNL     1      -6.771   9.012  70.448  1.00  0.00    -0.052 C  
HETATM    2  C   UNL     1      -7.864   9.815  71.160  1.00  0.00     0.707 C  
HETATM    3  N   UNL     1      -7.647  11.296  71.169  1.00  0.00     3.711 N  
HETATM    4  C   UNL     1      -7.854   9.345  72.643  1.00  0.00     1.504 C  
HETATM    5  C   UNL     1      -9.241   9.431  70.595  1.00  0.00    -0.303 C  
HETATM    6  C   UNL     1      -7.573  12.343  70.289  1.00  0.00     2.798 C  
HETATM    7  H   UNL     1      -7.512  11.628  72.124  1.00  0.00     0.000 HD 
HETATM    8  O   UNL     1      -7.676  13.465  70.808  1.00  0.00     2.785 OA 
ENDROOT
BRANCH   6   9
HETATM    9  C   UNL     1      -7.310  12.223  68.777  1.00  0.00    -0.083 C  
HETATM   10  C   UNL     1      -6.433  13.339  68.082  1.00  0.00    -0.112 C  
HETATM   11  N   UNL     1      -5.906  12.864  66.762  1.00  0.00     0.174 NA 
HETATM   12  N   UNL     1      -8.533  11.915  67.981  1.00  0.00    -0.154 NA 
HETATM   13  C   UNL     1      -6.976  12.202  65.965  1.00  0.00     1.512 C  
HETATM   14  C   UNL     1      -7.970  11.297  66.746  1.00  0.00    -0.159 C  
BRANCH  11  15
HETATM   15  C   UNL     1      -5.325  13.941  65.925  1.00  0.00     7.126 C  
BRANCH  15  16
HETATM   16  C   UNL     1      -5.851  15.342  66.118  1.00  0.00     4.494 A  
HETATM   17  C   UNL     1      -7.148  15.551  66.578  1.00  0.00     0.963 A  
HETATM   18  N   UNL     1      -7.759  16.759  66.642  1.00  0.00    -0.242 NA 
HETATM   19  C   UNL     1      -5.742  17.730  65.751  1.00  0.00    -0.174 A  
HETATM   20  C   UNL     1      -7.041  17.821  66.223  1.00  0.00    -0.294 A  
HETATM   21  C   UNL     1      -5.142  16.470  65.697  1.00  0.00     2.336 A  
ENDBRANCH  15  16
ENDBRANCH  11  15
BRANCH  12  22
HETATM   22  C   UNL     1      -9.445  13.054  67.593  1.00  0.00    -0.201 C  
BRANCH  22  23
HETATM   23  C   UNL     1     -10.839  12.761  66.963  1.00  0.00    -0.257 C  
HETATM   24  O   UNL     1     -11.482  11.733  67.734  1.00  0.00    -0.281 OA 
HETATM   25  H   UNL     1     -12.332  11.554  67.350  1.00  0.00     0.000 HD 
BRANCH  23  26
HETATM   26  C   UNL     1     -11.899  13.899  67.006  1.00  0.00    -0.447 C  
HETATM   27  C   UNL     1     -12.305  14.573  68.342  1.00  0.00    -0.011 C  
HETATM   28  C   UNL     1     -13.031  15.930  68.040  1.00  0.00     2.890 C  
HETATM   29  C   UNL     1     -13.250  13.655  69.147  1.00  0.00     2.333 C  
HETATM   30  O   UNL     1     -13.954  12.803  68.614  1.00  0.00     6.402 OA 
HETATM   31  N   UNL     1     -13.257  13.839  70.519  1.00  0.00    -0.045 N  
HETATM   32  H   UNL     1     -12.823  14.673  70.914  1.00  0.00     0.000 HD 
BRANCH  28  33
HETATM   33  C   UNL     1     -12.210  17.021  67.352  1.00  0.00     2.577 A  
HETATM   34  C   UNL     1     -11.377  16.728  66.265  1.00  0.00     0.734 A  
HETATM   35  C   UNL     1     -12.236  18.343  67.823  1.00  0.00     3.793 A  
HETATM   36  C   UNL     1     -11.464  19.350  67.212  1.00  0.00     0.525 A  
HETATM   37  C   UNL     1     -10.606  17.733  65.653  1.00  0.00    -0.123 A  
HETATM   38  C   UNL     1     -10.653  19.044  66.126  1.00  0.00    -0.495 A  
ENDBRANCH  28  33
BRANCH  31  39
HETATM   39  C   UNL     1     -13.881  12.848  71.421  1.00  0.00     0.677 C  
HETATM   40  C   UNL     1     -12.849  12.110  73.604  1.00  0.00     8.017 C  
HETATM   41  C   UNL     1     -12.622  11.118  72.517  1.00  0.00     1.531 A  
HETATM   42  H   UNL     1     -13.117  14.661  74.144  1.00  0.00     0.000 HD 
HETATM   43  C   UNL     1     -13.751  13.176  72.946  1.00  0.00     0.396 C  
HETATM   44  O   UNL     1     -13.195  14.461  73.218  1.00  0.00    -0.622 OA 
HETATM   45  C   UNL     1     -11.940   9.906  72.634  1.00  0.00     1.497 A  
HETATM   46  C   UNL     1     -11.875   9.070  71.520  1.00  0.00    -0.415 A  
HETATM   47  C   UNL     1     -12.496   9.439  70.323  1.00  0.00     0.327 A  
HETATM   48  C   UNL     1     -13.162  10.663  70.207  1.00  0.00     0.125 A  
HETATM   49  C   UNL     1     -13.208  11.508  71.319  1.00  0.00    -0.115 A  
ENDBRANCH  31  39
ENDBRANCH  23  26
ENDBRANCH  22  23
ENDBRANCH  12  22
ENDBRANCH   6   9
TORSDOF 8
ENDMDL
MODEL      225
REMARK 921   NORMALIZED FREE ENERGY PREDICTED BY IDOCK:   45.29 KCAL/MOL
REMARK 922        TOTAL FREE ENERGY PREDICTED BY IDOCK:   64.50 KCAL/MOL
REMARK 923 INTER-LIGAND FREE ENERGY PREDICTED BY IDOCK:   52.09 KCAL/MOL
REMARK 924 INTRA-LIGAND FREE ENERGY PREDICTED BY IDOCK:   12.41 KCAL/MOL
REMARK 927      BINDING AFFINITY PREDICTED BY RF-SCORE:    0.00 PKD
ROOT
HETATM    1  C   UNL     1     -13.589   4.967  70.391  1.00  0.00    12.881 C  
HETATM    2  C   UNL     1     -13.042   5.529  71.707  1.00  0.00     2.125 C  
HETATM    3  N   UNL     1     -11.949   4.714  72.328  1.00  0.00     0.913 N  
HETATM    4  C   UNL     1     -14.232   5.532  72.709  1.00  0.00     2.081 C  
HETATM    5  C   UNL     1     -12.636   6.998  71.514  1.00  0.00    -0.426 C  
HETATM    6  C   UNL     1     -10.665   4.320  72.062  1.00  0.00     0.154 C  
HETATM    7  H   UNL     1     -12.257   4.337  73.224  1.00  0.00     0.000 HD 
HETATM    8  O   UNL     1     -10.045   3.881  73.042  1.00  0.00    -0.137 OA 
ENDROOT
BRANCH   6   9
HETATM    9  C   UNL     1      -9.998   4.320  70.675  1.00  0.00    -0.148 C  
HETATM   10  C   UNL     1      -8.717   5.220  70.464  1.00  0.00    -0.121 C  
HETATM   11  N   UNL     1      -7.947   4.784  69.255  1.00  0.00    -0.070 NA 
HETATM   12  N   UNL     1     -10.964   4.470  69.549  1.00  0.00     1.659 NA 
HETATM   13  C   UNL     1      -8.854   4.555  68.095  1.00  0.00    -0.107 C  
HETATM   14  C   UNL     1     -10.220   3.877  68.401  1.00  0.00     0.629 C  
BRANCH  11  15
HETATM   15  C   UNL     1      -6.907   5.749  68.825  1.00  0.00    -0.066 C  
BRANCH  15  16
HETATM   16  C   UNL     1      -7.058   7.186  69.260  1.00  0.00    -0.079 A  
HETATM   17  C   UNL     1      -7.385   7.492  70.578  1.00  0.00    -0.075 A  
HETATM   18  N   UNL     1      -7.688   8.735  71.029  1.00  0.00    -0.107 NA 
HETATM   19  C   UNL     1      -7.350   9.539  68.783  1.00  0.00    -0.074 A  
HETATM   20  C   UNL     1      -7.666   9.729  70.118  1.00  0.00    -0.177 A  
HETATM   21  C   UNL     1      -7.045   8.246  68.351  1.00  0.00    -0.081 A  
ENDBRANCH  15  16
ENDBRANCH  11  15
BRANCH  12  22
HETATM   22  C   UNL     1     -11.424   5.859  69.176  1.00  0.00     0.306 C  
BRANCH  22  23
HETATM   23  C   UNL     1     -12.127   6.109  67.810  1.00  0.00     3.508 C  
HETATM   24  O   UNL     1     -12.654   7.447  67.805  1.00  0.00     3.796 OA 
HETATM   25  H   UNL     1     -13.083   7.600  66.971  1.00  0.00     0.000 HD 
BRANCH  23  26
HETATM   26  C   UNL     1     -11.236   6.115  66.533  1.00  0.00     0.190 C  
HETATM   27  C   UNL     1     -10.453   7.381  66.103  1.00  0.00     0.778 C  
HETATM   28  C   UNL     1      -9.338   6.978  65.076  1.00  0.00     1.065 C  
HETATM   29  C   UNL     1     -11.401   8.410  65.451  1.00  0.00     7.446 C  
HETATM   30  O   UNL     1     -12.453   8.086  64.907  1.00  0.00    15.569 OA 
HETATM   31  N   UNL     1     -11.005   9.734  65.518  1.00  0.00     0.875 N  
HETATM   32  H   UNL     1     -10.048   9.956  65.791  1.00  0.00     0.000 HD 
BRANCH  28  33
HETATM   33  C   UNL     1      -8.229   6.055  65.579  1.00  0.00    -0.142 A  
HETATM   34  C   UNL     1      -8.514   4.771  66.063  1.00  0.00    -0.116 A  
HETATM   35  C   UNL     1      -6.894   6.488  65.611  1.00  0.00    -0.049 A  
HETATM   36  C   UNL     1      -5.868   5.654  66.096  1.00  0.00    -0.018 A  
HETATM   37  C   UNL     1      -7.490   3.938  66.548  1.00  0.00    -0.083 A  
HETATM   38  C   UNL     1      -6.167   4.379  66.561  1.00  0.00    -0.032 A  
ENDBRANCH  28  33
BRANCH  31  39
HETATM   39  C   UNL     1     -11.943  10.832  65.202  1.00  0.00     2.360 C  
HETATM   40  C   UNL     1     -11.227  13.017  64.159  1.00  0.00    -0.439 C  
HETATM   41  C   UNL     1     -11.428  13.141  65.629  1.00  0.00    -0.351 A  
HETATM   42  H   UNL     1     -10.471  11.403  62.237  1.00  0.00     0.000 HD 
HETATM   43  C   UNL     1     -11.660  11.568  63.850  1.00  0.00    -0.212 C  
HETATM   44  O   UNL     1     -10.642  10.957  63.058  1.00  0.00    -0.116 OA 
HETATM   45  C   UNL     1     -11.266  14.300  66.391  1.00  0.00    -0.337 A  
HETATM   46  C   UNL     1     -11.558  14.245  67.753  1.00  0.00    -0.383 A  
HETATM   47  C   UNL     1     -12.015  13.057  68.330  1.00  0.00    -0.309 A  
HETATM   48  C   UNL     1     -12.157  11.895  67.566  1.00  0.00     0.118 A  
HETATM   49  C   UNL     1     -11.845  11.947  66.205  1.00  0.00    -0.108 A  
ENDBRANCH  31  39
ENDBRANCH  23  26
ENDBRANCH  22  23
ENDBRANCH  12  22
ENDBRANCH   6   9
TORSDOF 8
ENDMDL
MODEL      226
REMARK 921   NORMALIZED FREE ENERGY PREDICTED BY IDOCK:   45.63 KCAL/MOL
REMARK 922        TOTAL FREE ENERGY PREDICTED BY IDOCK:   65.01 KCAL/MOL
REMARK 923 INTER-LIGAND FREE ENERGY PREDICTED BY IDOCK:   56.41 KCAL/MOL
REMARK 924 INTRA-LIGAND FREE ENERGY PREDICTED BY IDOCK:    8.60 KCAL/MOL
REMARK 927      BINDING AFFINITY PREDICTED BY RF-SCORE:    0.00 PKD
ROOT
HETATM    1  C   UNL     1     -11.279   8.304  65.486  1.00  0.00     6.049 C  
HETATM    2  C   UNL     1     -11.576   9.807  65.523  1.00  0.00     4.163 C  
HETATM    3  N   UNL     1     -10.565  10.626  66.265  1.00  0.00    -0.201 N  
HETATM    4  C   UNL     1     -12.929   9.966  66.274  1.00  0.00    13.692 C  
HETATM    5  C   UNL     1     -11.810  10.324  64.095  1.00  0.00     4.654 C  
HETATM    6  C   UNL     1      -9.244  10.977  66.180  1.00  0.00    -0.190 C  
HETATM    7  H   UNL     1     -10.991  11.053  67.087  1.00  0.00     0.000 HD 
HETATM    8  O   UNL     1      -8.918  11.944  66.885  1.00  0.00    -0.183 OA 
ENDROOT
BRANCH   6   9
HETATM    9  C   UNL     1      -8.174  10.236  65.359  1.00  0.00    -0.156 C  
HETATM   10  C   UNL     1      -8.655   9.187  64.280  1.00  0.00    -0.175 C  
HETATM   11  N   UNL     1      -7.569   8.898  63.289  1.00  0.00    -0.105 NA 
HETATM   12  N   UNL     1      -7.055   9.697  66.185  1.00  0.00    -0.092 NA 
HETATM   13  C   UNL     1      -6.266   8.666  63.974  1.00  0.00    -0.072 C  
HETATM   14  C   UNL     1      -5.947   9.576  65.194  1.00  0.00    -0.070 C  
BRANCH  11  15
HETATM   15  C   UNL     1      -7.838   7.721  62.429  1.00  0.00    -0.132 C  
BRANCH  15  16
HETATM   16  C   UNL     1      -7.701   6.352  63.049  1.00  0.00    -0.090 A  
HETATM   17  C   UNL     1      -8.012   6.152  64.391  1.00  0.00    -0.121 A  
HETATM   18  N   UNL     1      -7.782   5.003  65.073  1.00  0.00    -0.081 NA 
HETATM   19  C   UNL     1      -6.863   4.083  63.045  1.00  0.00    -0.035 A  
HETATM   20  C   UNL     1      -7.209   3.996  64.383  1.00  0.00    -0.062 A  
HETATM   21  C   UNL     1      -7.112   5.282  62.372  1.00  0.00    -0.037 A  
ENDBRANCH  15  16
ENDBRANCH  11  15
BRANCH  12  22
HETATM   22  C   UNL     1      -7.247   8.368  66.876  1.00  0.00    -0.079 C  
BRANCH  22  23
HETATM   23  C   UNL     1      -6.919   8.219  68.391  1.00  0.00    -0.073 C  
HETATM   24  O   UNL     1      -7.021   9.512  69.010  1.00  0.00    -0.057 OA 
HETATM   25  H   UNL     1      -6.821   9.421  69.935  1.00  0.00     0.000 HD 
BRANCH  23  26
HETATM   26  C   UNL     1      -7.897   7.374  69.258  1.00  0.00    -0.116 C  
HETATM   27  C   UNL     1      -8.393   5.982  68.788  1.00  0.00    -0.106 C  
HETATM   28  C   UNL     1      -8.987   5.202  70.012  1.00  0.00    -0.153 C  
HETATM   29  C   UNL     1      -9.477   6.131  67.700  1.00  0.00    -0.111 C  
HETATM   30  O   UNL     1     -10.180   7.133  67.603  1.00  0.00    -0.168 OA 
HETATM   31  N   UNL     1      -9.615   5.068  66.826  1.00  0.00    -0.142 N  
HETATM   32  H   UNL     1      -9.168   4.178  67.045  1.00  0.00     0.000 HD 
BRANCH  28  33
HETATM   33  C   UNL     1      -8.025   4.849  71.146  1.00  0.00    -0.092 A  
HETATM   34  C   UNL     1      -6.996   3.916  70.963  1.00  0.00    -0.033 A  
HETATM   35  C   UNL     1      -8.175   5.420  72.420  1.00  0.00    -0.114 A  
HETATM   36  C   UNL     1      -7.309   5.082  73.477  1.00  0.00    -0.091 A  
HETATM   37  C   UNL     1      -6.130   3.578  72.019  1.00  0.00    -0.013 A  
HETATM   38  C   UNL     1      -6.286   4.164  73.275  1.00  0.00    -0.024 A  
ENDBRANCH  28  33
BRANCH  31  39
HETATM   39  C   UNL     1     -10.398   5.199  65.578  1.00  0.00     0.135 C  
HETATM   40  C   UNL     1     -12.903   4.903  65.471  1.00  0.00     7.179 C  
HETATM   41  C   UNL     1     -12.178   3.690  65.000  1.00  0.00     5.959 A  
HETATM   42  H   UNL     1     -12.823   6.927  67.133  1.00  0.00     0.000 HD 
HETATM   43  C   UNL     1     -11.776   5.923  65.741  1.00  0.00     2.685 C  
HETATM   44  O   UNL     1     -11.986   6.487  67.035  1.00  0.00     1.020 OA 
HETATM   45  C   UNL     1     -12.758   2.509  64.536  1.00  0.00    11.251 A  
HETATM   46  C   UNL     1     -11.921   1.492  64.078  1.00  0.00     2.555 A  
HETATM   47  C   UNL     1     -10.534   1.669  64.074  1.00  0.00     0.138 A  
HETATM   48  C   UNL     1      -9.958   2.847  64.559  1.00  0.00    -0.020 A  
HETATM   49  C   UNL     1     -10.800   3.856  65.036  1.00  0.00     0.126 A  
ENDBRANCH  31  39
ENDBRANCH  23  26
ENDBRANCH  22  23
ENDBRANCH  12  22
ENDBRANCH   6   9
TORSDOF 8
ENDMDL
MODEL      227
REMARK 921   NORMALIZED FREE ENERGY PREDICTED BY IDOCK:   46.76 KCAL/MOL
REMARK 922        TOTAL FREE ENERGY PREDICTED BY IDOCK:   66.66 KCAL/MOL
REMARK 923 INTER-LIGAND FREE ENERGY PREDICTED BY IDOCK:   53.09 KCAL/MOL
REMARK 924 INTRA-LIGAND FREE ENERGY PREDICTED BY IDOCK:   13.57 KCAL/MOL
REMARK 927      BINDING AFFINITY PREDICTED BY RF-SCORE:    0.00 PKD
ROOT
HETATM    1  C   UNL     1      -8.750  10.712  65.438  1.00  0.00    -0.195 C  
HETATM    2  C   UNL     1      -8.079   9.731  66.405  1.00  0.00    -0.116 C  
HETATM    3  N   UNL     1      -7.759  10.301  67.752  1.00  0.00    -0.090 N  
HETATM    4  C   UNL     1      -6.727   9.328  65.749  1.00  0.00    -0.076 C  
HETATM    5  C   UNL     1      -8.914   8.444  66.500  1.00  0.00    -0.190 C  
HETATM    6  C   UNL     1      -8.405  10.806  68.849  1.00  0.00    -0.147 C  
HETATM    7  H   UNL     1      -6.750  10.319  67.897  1.00  0.00     0.000 HD 
HETATM    8  O   UNL     1      -7.707  10.881  69.872  1.00  0.00     0.043 OA 
ENDROOT
BRANCH   6   9
HETATM    9  C   UNL     1      -9.852  11.328  68.873  1.00  0.00    -0.139 C  
HETATM   10  C   UNL     1     -10.454  11.918  67.536  1.00  0.00    -0.209 C  
HETATM   11  N   UNL     1     -11.951  11.961  67.593  1.00  0.00    -0.583 NA 
HETATM   12  N   UNL     1     -10.151  12.205  70.041  1.00  0.00     1.776 NA 
HETATM   13  C   UNL     1     -12.421  12.520  68.892  1.00  0.00     0.505 C  
HETATM   14  C   UNL     1     -11.633  12.093  70.162  1.00  0.00    -0.118 C  
BRANCH  11  15
HETATM   15  C   UNL     1     -12.570  12.763  66.511  1.00  0.00     0.610 C  
BRANCH  15  16
HETATM   16  C   UNL     1     -12.634  12.152  65.133  1.00  0.00     0.153 A  
HETATM   17  C   UNL     1     -13.816  12.192  64.398  1.00  0.00     2.418 A  
HETATM   18  N   UNL     1     -14.016  11.547  63.222  1.00  0.00     1.017 NA 
HETATM   19  C   UNL     1     -11.763  10.711  63.396  1.00  0.00     2.241 A  
HETATM   20  C   UNL     1     -12.984  10.818  62.751  1.00  0.00     3.919 A  
HETATM   21  C   UNL     1     -11.590  11.387  64.606  1.00  0.00    -0.014 A  
ENDBRANCH  15  16
ENDBRANCH  11  15
BRANCH  12  22
HETATM   22  C   UNL     1      -9.771  13.665  69.960  1.00  0.00     2.153 C  
BRANCH  22  23
HETATM   23  C   UNL     1      -8.421  14.157  70.559  1.00  0.00     2.900 C  
HETATM   24  O   UNL     1      -7.398  13.205  70.224  1.00  0.00     0.547 OA 
HETATM   25  H   UNL     1      -6.573  13.505  70.590  1.00  0.00     0.000 HD 
BRANCH  23  26
HETATM   26  C   UNL     1      -7.823  15.478  69.994  1.00  0.00     0.300 C  
HETATM   27  C   UNL     1      -8.645  16.398  69.057  1.00  0.00    -0.230 C  
HETATM   28  C   UNL     1      -7.977  17.817  69.005  1.00  0.00    -0.079 C  
HETATM   29  C   UNL     1      -8.705  15.809  67.632  1.00  0.00    -0.170 C  
HETATM   30  O   UNL     1      -7.845  15.048  67.196  1.00  0.00    -0.199 OA 
HETATM   31  N   UNL     1      -9.793  16.180  66.862  1.00  0.00    -0.235 N  
HETATM   32  H   UNL     1     -10.378  16.958  67.166  1.00  0.00     0.000 HD 
BRANCH  28  33
HETATM   33  C   UNL     1      -7.938  18.615  70.309  1.00  0.00     2.130 A  
HETATM   34  C   UNL     1      -9.063  18.709  71.138  1.00  0.00     5.748 A  
HETATM   35  C   UNL     1      -6.782  19.315  70.687  1.00  0.00     0.535 A  
HETATM   36  C   UNL     1      -6.743  20.073  71.873  1.00  0.00     0.489 A  
HETATM   37  C   UNL     1      -9.026  19.467  72.324  1.00  0.00     5.353 A  
HETATM   38  C   UNL     1      -7.864  20.145  72.691  1.00  0.00     2.841 A  
ENDBRANCH  28  33
BRANCH  31  39
HETATM   39  C   UNL     1     -10.123  15.470  65.608  1.00  0.00    -0.376 C  
HETATM   40  C   UNL     1     -11.184  16.593  63.611  1.00  0.00     2.773 C  
HETATM   41  C   UNL     1     -12.179  15.831  64.416  1.00  0.00     0.075 A  
HETATM   42  H   UNL     1      -8.979  18.005  63.724  1.00  0.00     0.000 HD 
HETATM   43  C   UNL     1      -9.838  16.281  64.300  1.00  0.00     3.682 C  
HETATM   44  O   UNL     1      -9.152  17.513  64.519  1.00  0.00     4.075 OA 
HETATM   45  C   UNL     1     -13.542  15.708  64.144  1.00  0.00     3.047 A  
HETATM   46  C   UNL     1     -14.316  14.902  64.977  1.00  0.00     4.788 A  
HETATM   47  C   UNL     1     -13.728  14.225  66.050  1.00  0.00     2.608 A  
HETATM   48  C   UNL     1     -12.366  14.368  66.329  1.00  0.00    -0.325 A  
HETATM   49  C   UNL     1     -11.596  15.192  65.503  1.00  0.00    -0.142 A  
ENDBRANCH  31  39
ENDBRANCH  23  26
ENDBRANCH  22  23
ENDBRANCH  12  22
ENDBRANCH   6   9
TORSDOF 8
ENDMDL
MODEL      228
REMARK 921   NORMALIZED FREE ENERGY PREDICTED BY IDOCK:   49.04 KCAL/MOL
REMARK 922        TOTAL FREE ENERGY PREDICTED BY IDOCK:   70.01 KCAL/MOL
REMARK 923 INTER-LIGAND FREE ENERGY PREDICTED BY IDOCK:   35.68 KCAL/MOL
REMARK 924 INTRA-LIGAND FREE ENERGY PREDICTED BY IDOCK:   34.33 KCAL/MOL
REMARK 927      BINDING AFFINITY PREDICTED BY RF-SCORE:    0.00 PKD
ROOT
HETATM    1  C   UNL     1      -8.581   8.122  68.694  1.00  0.00    -0.127 C  
HETATM    2  C   UNL     1      -7.326   8.332  69.547  1.00  0.00    -0.074 C  
HETATM    3  N   UNL     1      -7.524   9.208  70.745  1.00  0.00    -0.111 N  
HETATM    4  C   UNL     1      -6.290   9.045  68.629  1.00  0.00    -0.053 C  
HETATM    5  C   UNL     1      -6.714   6.972  69.913  1.00  0.00    -0.049 C  
HETATM    6  C   UNL     1      -8.220   9.218  71.924  1.00  0.00     0.650 C  
HETATM    7  H   UNL     1      -6.969  10.059  70.655  1.00  0.00     0.000 HD 
HETATM    8  O   UNL     1      -7.822  10.048  72.754  1.00  0.00     2.777 OA 
ENDROOT
BRANCH   6   9
HETATM    9  C   UNL     1      -9.453   8.354  72.241  1.00  0.00    -0.297 C  
HETATM   10  C   UNL     1      -9.482   6.869  71.701  1.00  0.00    -0.157 C  
HETATM   11  N   UNL     1     -10.491   6.046  72.443  1.00  0.00    -0.195 NA 
HETATM   12  N   UNL     1     -10.749   9.050  71.996  1.00  0.00    -0.332 NA 
HETATM   13  C   UNL     1     -11.782   6.777  72.581  1.00  0.00    -0.078 C  
HETATM   14  C   UNL     1     -11.692   8.301  72.875  1.00  0.00    -0.068 C  
BRANCH  11  15
HETATM   15  C   UNL     1     -10.783   4.739  71.808  1.00  0.00     0.025 C  
BRANCH  15  16
HETATM   16  C   UNL     1      -9.730   3.662  71.899  1.00  0.00    -0.236 A  
HETATM   17  C   UNL     1      -9.147   3.146  70.744  1.00  0.00    -0.116 A  
HETATM   18  N   UNL     1      -8.307   2.083  70.712  1.00  0.00    -0.048 NA 
HETATM   19  C   UNL     1      -8.551   1.928  73.104  1.00  0.00    -0.062 A  
HETATM   20  C   UNL     1      -8.032   1.496  71.895  1.00  0.00    -0.041 A  
HETATM   21  C   UNL     1      -9.415   3.026  73.102  1.00  0.00    -0.124 A  
ENDBRANCH  15  16
ENDBRANCH  11  15
BRANCH  12  22
HETATM   22  C   UNL     1     -11.297   9.073  70.589  1.00  0.00    -0.265 C  
BRANCH  22  23
HETATM   23  C   UNL     1     -10.548   9.855  69.470  1.00  0.00    -0.242 C  
HETATM   24  O   UNL     1     -11.000  11.220  69.485  1.00  0.00    -0.310 OA 
HETATM   25  H   UNL     1     -10.543  11.697  68.802  1.00  0.00     0.000 HD 
BRANCH  23  26
HETATM   26  C   UNL     1      -9.009  10.029  69.622  1.00  0.00    -0.221 C  
HETATM   27  C   UNL     1      -8.330  11.408  69.425  1.00  0.00     0.402 C  
HETATM   28  C   UNL     1      -6.893  11.374  70.052  1.00  0.00     0.138 C  
HETATM   29  C   UNL     1      -8.226  11.752  67.924  1.00  0.00    -0.147 C  
HETATM   30  O   UNL     1      -8.201  10.890  67.050  1.00  0.00    -0.126 OA 
HETATM   31  N   UNL     1      -8.167  13.097  67.608  1.00  0.00    -0.161 N  
HETATM   32  H   UNL     1      -7.988  13.777  68.347  1.00  0.00     0.000 HD 
BRANCH  28  33
HETATM   33  C   UNL     1      -6.798  11.168  71.564  1.00  0.00     3.316 A  
HETATM   34  C   UNL     1      -7.889  11.427  72.403  1.00  0.00    13.558 A  
HETATM   35  C   UNL     1      -5.595  10.754  72.157  1.00  0.00     0.582 A  
HETATM   36  C   UNL     1      -5.490  10.585  73.551  1.00  0.00     0.647 A  
HETATM   37  C   UNL     1      -7.785  11.259  73.796  1.00  0.00    13.254 A  
HETATM   38  C   UNL     1      -6.586  10.835  74.368  1.00  0.00     2.652 A  
ENDBRANCH  28  33
BRANCH  31  39
HETATM   39  C   UNL     1      -8.360  13.568  66.220  1.00  0.00     0.914 C  
HETATM   40  C   UNL     1      -9.080  15.916  65.634  1.00  0.00    -0.003 C  
HETATM   41  C   UNL     1     -10.213  14.953  65.565  1.00  0.00    -0.401 A  
HETATM   42  H   UNL     1      -6.840  16.492  66.867  1.00  0.00     0.000 HD 
HETATM   43  C   UNL     1      -7.858  15.025  65.945  1.00  0.00     2.733 C  
HETATM   44  O   UNL     1      -7.146  15.608  67.034  1.00  0.00    -0.196 OA 
HETATM   45  C   UNL     1     -11.531  15.251  65.216  1.00  0.00    -0.217 A  
HETATM   46  C   UNL     1     -12.453  14.207  65.147  1.00  0.00    -0.453 A  
HETATM   47  C   UNL     1     -12.052  12.893  65.408  1.00  0.00    -0.501 A  
HETATM   48  C   UNL     1     -10.735  12.603  65.776  1.00  0.00    -0.295 A  
HETATM   49  C   UNL     1      -9.818  13.655  65.864  1.00  0.00    -0.263 A  
ENDBRANCH  31  39
ENDBRANCH  23  26
ENDBRANCH  22  23
ENDBRANCH  12  22
ENDBRANCH   6   9
TORSDOF 8
ENDMDL
MODEL      229
REMARK 921   NORMALIZED FREE ENERGY PREDICTED BY IDOCK:   57.89 KCAL/MOL
REMARK 922        TOTAL FREE ENERGY PREDICTED BY IDOCK:   83.00 KCAL/MOL
REMARK 923 INTER-LIGAND FREE ENERGY PREDICTED BY IDOCK:   79.80 KCAL/MOL
REMARK 924 INTRA-LIGAND FREE ENERGY PREDICTED BY IDOCK:    3.21 KCAL/MOL
REMARK 927      BINDING AFFINITY PREDICTED BY RF-SCORE:    0.00 PKD
ROOT
HETATM    1  C   UNL     1     -12.137   8.933  70.183  1.00  0.00     0.443 C  
HETATM    2  C   UNL     1     -12.129   8.011  71.407  1.00  0.00    -0.305 C  
HETATM    3  N   UNL     1     -11.517   6.665  71.172  1.00  0.00    -0.303 N  
HETATM    4  C   UNL     1     -13.620   7.773  71.783  1.00  0.00    -0.390 C  
HETATM    5  C   UNL     1     -11.494   8.741  72.601  1.00  0.00    -0.007 C  
HETATM    6  C   UNL     1     -10.303   6.114  70.858  1.00  0.00    -0.215 C  
HETATM    7  H   UNL     1     -12.220   5.934  71.279  1.00  0.00     0.000 HD 
HETATM    8  O   UNL     1     -10.218   4.895  71.069  1.00  0.00    -0.217 OA 
ENDROOT
BRANCH   6   9
HETATM    9  C   UNL     1      -9.120   6.863  70.221  1.00  0.00    -0.153 C  
HETATM   10  C   UNL     1      -8.565   8.145  70.959  1.00  0.00    -0.137 C  
HETATM   11  N   UNL     1      -7.185   8.484  70.484  1.00  0.00    -0.042 NA 
HETATM   12  N   UNL     1      -9.281   7.100  68.758  1.00  0.00    -0.137 NA 
HETATM   13  C   UNL     1      -7.100   8.427  68.997  1.00  0.00    -0.069 C  
HETATM   14  C   UNL     1      -7.872   7.272  68.299  1.00  0.00    -0.122 C  
BRANCH  11  15
HETATM   15  C   UNL     1      -6.717   9.826  70.907  1.00  0.00    -0.024 C  
BRANCH  15  16
HETATM   16  C   UNL     1      -7.479  10.521  72.008  1.00  0.00     4.784 A  
HETATM   17  C   UNL     1      -6.953  11.654  72.624  1.00  0.00     8.656 A  
HETATM   18  N   UNL     1      -7.486  12.258  73.714  1.00  0.00    10.500 NA 
HETATM   19  C   UNL     1      -9.217  10.582  73.689  1.00  0.00    13.572 A  
HETATM   20  C   UNL     1      -8.606  11.704  74.222  1.00  0.00    16.634 A  
HETATM   21  C   UNL     1      -8.641   9.983  72.566  1.00  0.00     5.558 A  
ENDBRANCH  15  16
ENDBRANCH  11  15
BRANCH  12  22
HETATM   22  C   UNL     1     -10.096   8.288  68.308  1.00  0.00    -0.198 C  
BRANCH  22  23
HETATM   23  C   UNL     1     -10.067   8.738  66.817  1.00  0.00    -0.288 C  
HETATM   24  O   UNL     1     -10.375  10.141  66.756  1.00  0.00    -0.223 OA 
HETATM   25  H   UNL     1     -10.358  10.415  65.846  1.00  0.00     0.000 HD 
BRANCH  23  26
HETATM   26  C   UNL     1      -8.700   8.680  66.076  1.00  0.00    -0.196 C  
HETATM   27  C   UNL     1      -8.587   8.122  64.634  1.00  0.00     0.035 C  
HETATM   28  C   UNL     1      -7.226   8.581  64.004  1.00  0.00    -0.093 C  
HETATM   29  C   UNL     1      -8.653   6.580  64.643  1.00  0.00     0.212 C  
HETATM   30  O   UNL     1      -8.330   5.912  65.620  1.00  0.00    -0.130 OA 
HETATM   31  N   UNL     1      -9.107   5.982  63.481  1.00  0.00     0.147 N  
HETATM   32  H   UNL     1      -9.176   6.536  62.627  1.00  0.00     0.000 HD 
BRANCH  28  33
HETATM   33  C   UNL     1      -7.026  10.083  63.797  1.00  0.00    -0.124 A  
HETATM   34  C   UNL     1      -8.108  10.930  63.527  1.00  0.00     0.211 A  
HETATM   35  C   UNL     1      -5.741  10.647  63.830  1.00  0.00    -0.039 A  
HETATM   36  C   UNL     1      -5.544  12.025  63.616  1.00  0.00     4.086 A  
HETATM   37  C   UNL     1      -7.912  12.307  63.314  1.00  0.00     3.684 A  
HETATM   38  C   UNL     1      -6.630  12.853  63.362  1.00  0.00    11.874 A  
ENDBRANCH  28  33
BRANCH  31  39
HETATM   39  C   UNL     1      -9.493   4.555  63.454  1.00  0.00    -0.003 C  
HETATM   40  C   UNL     1     -10.562   3.366  65.408  1.00  0.00     0.856 C  
HETATM   41  C   UNL     1      -9.106   3.072  65.305  1.00  0.00    -0.149 A  
HETATM   42  H   UNL     1     -12.405   5.185  65.005  1.00  0.00     0.000 HD 
HETATM   43  C   UNL     1     -10.851   4.229  64.161  1.00  0.00     0.075 C  
HETATM   44  O   UNL     1     -11.580   5.383  64.576  1.00  0.00     2.336 OA 
HETATM   45  C   UNL     1      -8.369   2.240  66.150  1.00  0.00    -0.095 A  
HETATM   46  C   UNL     1      -7.020   2.032  65.867  1.00  0.00    -0.039 A  
HETATM   47  C   UNL     1      -6.432   2.636  64.752  1.00  0.00    -0.027 A  
HETATM   48  C   UNL     1      -7.170   3.483  63.920  1.00  0.00    -0.051 A  
HETATM   49  C   UNL     1      -8.517   3.705  64.218  1.00  0.00    -0.090 A  
ENDBRANCH  31  39
ENDBRANCH  23  26
ENDBRANCH  22  23
ENDBRANCH  12  22
ENDBRANCH   6   9
TORSDOF 8
ENDMDL
MODEL      230
REMARK 921   NORMALIZED FREE ENERGY PREDICTED BY IDOCK:   71.02 KCAL/MOL
REMARK 922        TOTAL FREE ENERGY PREDICTED BY IDOCK:  102.26 KCAL/MOL
REMARK 923 INTER-LIGAND FREE ENERGY PREDICTED BY IDOCK:   -1.85 KCAL/MOL
REMARK 924 INTRA-LIGAND FREE ENERGY PREDICTED BY IDOCK:  104.11 KCAL/MOL
REMARK 927      BINDING AFFINITY PREDICTED BY RF-SCORE:    0.00 PKD
ROOT
HETATM    1  C   UNL     1      -7.978   7.756  66.625  1.00  0.00    -0.107 C  
HETATM    2  C   UNL     1      -9.210   7.290  67.408  1.00  0.00    -0.128 C  
HETATM    3  N   UNL     1      -9.094   7.424  68.895  1.00  0.00    -0.137 N  
HETATM    4  C   UNL     1      -9.374   5.773  67.099  1.00  0.00    -0.116 C  
HETATM    5  C   UNL     1     -10.466   7.981  66.856  1.00  0.00    -0.387 C  
HETATM    6  C   UNL     1      -8.968   8.401  69.845  1.00  0.00    -0.142 C  
HETATM    7  H   UNL     1      -9.115   6.504  69.334  1.00  0.00     0.000 HD 
HETATM    8  O   UNL     1      -9.216   8.033  71.003  1.00  0.00    -0.145 OA 
ENDROOT
BRANCH   6   9
HETATM    9  C   UNL     1      -8.491   9.841  69.589  1.00  0.00    -0.185 C  
HETATM   10  C   UNL     1      -9.222  10.680  68.466  1.00  0.00    -0.170 C  
HETATM   11  N   UNL     1      -8.965  12.147  68.638  1.00  0.00    -0.069 NA 
HETATM   12  N   UNL     1      -7.009   9.970  69.490  1.00  0.00    -0.066 NA 
HETATM   13  C   UNL     1      -7.522  12.411  68.898  1.00  0.00     0.001 C  
HETATM   14  C   UNL     1      -6.783  11.406  69.825  1.00  0.00    -0.076 C  
BRANCH  11  15
HETATM   15  C   UNL     1      -9.368  12.967  67.471  1.00  0.00    -0.200 C  
BRANCH  15  16
HETATM   16  C   UNL     1     -10.360  14.079  67.703  1.00  0.00    -0.242 A  
HETATM   17  C   UNL     1     -10.613  15.018  66.706  1.00  0.00    -0.301 A  
HETATM   18  N   UNL     1     -11.370  16.132  66.868  1.00  0.00     0.138 NA 
HETATM   19  C   UNL     1     -11.721  15.456  69.154  1.00  0.00    -0.364 A  
HETATM   20  C   UNL     1     -11.903  16.325  68.092  1.00  0.00     0.241 A  
HETATM   21  C   UNL     1     -10.935  14.318  68.954  1.00  0.00    -0.275 A  
ENDBRANCH  15  16
ENDBRANCH  11  15
BRANCH  12  22
HETATM   22  C   UNL     1      -6.347   9.662  68.168  1.00  0.00    -0.056 C  
BRANCH  22  23
HETATM   23  C   UNL     1      -5.959  10.817  67.199  1.00  0.00    -0.062 C  
HETATM   24  O   UNL     1      -6.163  10.370  65.849  1.00  0.00    -0.098 OA 
HETATM   25  H   UNL     1      -5.926  11.075  65.257  1.00  0.00     0.000 HD 
BRANCH  23  26
HETATM   26  C   UNL     1      -6.825  12.110  67.240  1.00  0.00    -0.149 C  
HETATM   27  C   UNL     1      -7.889  12.332  68.344  1.00  0.00    -0.151 C  
HETATM   28  C   UNL     1      -8.279  13.851  68.392  1.00  0.00    -0.153 C  
HETATM   29  C   UNL     1      -9.151  11.490  68.059  1.00  0.00    -0.174 C  
HETATM   30  O   UNL     1      -9.461  11.128  66.928  1.00  0.00    -0.181 OA 
HETATM   31  N   UNL     1      -9.921  11.152  69.158  1.00  0.00    -0.394 N  
HETATM   32  H   UNL     1      -9.758  11.625  70.047  1.00  0.00     0.000 HD 
BRANCH  28  33
HETATM   33  C   UNL     1      -7.179  14.839  68.784  1.00  0.00    -0.125 A  
HETATM   34  C   UNL     1      -6.418  14.657  69.946  1.00  0.00    -0.164 A  
HETATM   35  C   UNL     1      -6.933  15.983  68.008  1.00  0.00    -0.138 A  
HETATM   36  C   UNL     1      -5.940  16.912  68.374  1.00  0.00    -0.134 A  
HETATM   37  C   UNL     1      -5.425  15.585  70.311  1.00  0.00    -0.140 A  
HETATM   38  C   UNL     1      -5.185  16.710  69.523  1.00  0.00    -0.137 A  
ENDBRANCH  28  33
BRANCH  31  39
HETATM   39  C   UNL     1     -10.974  10.119  69.068  1.00  0.00    -0.226 C  
HETATM   40  C   UNL     1     -13.443  10.644  69.092  1.00  0.00     3.337 C  
HETATM   41  C   UNL     1     -12.961  10.172  70.420  1.00  0.00    -0.116 A  
HETATM   42  H   UNL     1     -12.785  11.975  66.933  1.00  0.00     0.000 HD 
HETATM   43  C   UNL     1     -12.204  10.512  68.182  1.00  0.00     1.301 C  
HETATM   44  O   UNL     1     -12.039  11.737  67.471  1.00  0.00    -0.599 OA 
HETATM   45  C   UNL     1     -13.735  10.009  71.570  1.00  0.00    -0.176 A  
HETATM   46  C   UNL     1     -13.124   9.496  72.714  1.00  0.00     0.012 A  
HETATM   47  C   UNL     1     -11.772   9.143  72.694  1.00  0.00     0.406 A  
HETATM   48  C   UNL     1     -10.998   9.327  71.545  1.00  0.00    -0.446 A  
HETATM   49  C   UNL     1     -11.608   9.859  70.406  1.00  0.00    -0.356 A  
ENDBRANCH  31  39
ENDBRANCH  23  26
ENDBRANCH  22  23
ENDBRANCH  12  22
ENDBRANCH   6   9
TORSDOF 8
ENDMDL
MODEL      231
REMARK 921   NORMALIZED FREE ENERGY PREDICTED BY IDOCK:   76.30 KCAL/MOL
REMARK 922        TOTAL FREE ENERGY PREDICTED BY IDOCK:  110.02 KCAL/MOL
REMARK 923 INTER-LIGAND FREE ENERGY PREDICTED BY IDOCK:   71.73 KCAL/MOL
REMARK 924 INTRA-LIGAND FREE ENERGY PREDICTED BY IDOCK:   38.29 KCAL/MOL
REMARK 927      BINDING AFFINITY PREDICTED BY RF-SCORE:    0.00 PKD
ROOT
HETATM    1  C   UNL     1      -8.757  10.683  65.437  1.00  0.00    -0.195 C  
HETATM    2  C   UNL     1      -8.110   9.668  66.385  1.00  0.00    -0.112 C  
HETATM    3  N   UNL     1      -7.894  10.166  67.781  1.00  0.00    -0.098 N  
HETATM    4  C   UNL     1      -6.706   9.352  65.793  1.00  0.00    -0.077 C  
HETATM    5  C   UNL     1      -8.899   8.351  66.352  1.00  0.00    -0.181 C  
HETATM    6  C   UNL     1      -8.624  10.581  68.863  1.00  0.00    -0.153 C  
HETATM    7  H   UNL     1      -6.897  10.210  67.990  1.00  0.00     0.000 HD 
HETATM    8  O   UNL     1      -7.993  10.618  69.930  1.00  0.00    -0.026 OA 
ENDROOT
BRANCH   6   9
HETATM    9  C   UNL     1     -10.088  11.052  68.826  1.00  0.00    -0.203 C  
HETATM   10  C   UNL     1     -10.641  11.665  67.478  1.00  0.00    -0.209 C  
HETATM   11  N   UNL     1     -12.139  11.655  67.457  1.00  0.00    -0.532 NA 
HETATM   12  N   UNL     1     -10.480  11.878  70.004  1.00  0.00     0.976 NA 
HETATM   13  C   UNL     1     -12.697  12.152  68.746  1.00  0.00     1.366 C  
HETATM   14  C   UNL     1     -11.961  11.710  70.042  1.00  0.00    -0.351 C  
BRANCH  11  15
HETATM   15  C   UNL     1     -12.730  12.470  66.369  1.00  0.00     1.221 C  
BRANCH  15  16
HETATM   16  C   UNL     1     -12.700  11.904  64.971  1.00  0.00     0.730 A  
HETATM   17  C   UNL     1     -13.844  11.928  64.177  1.00  0.00     2.247 A  
HETATM   18  N   UNL     1     -13.960  11.316  62.972  1.00  0.00     1.868 NA 
HETATM   19  C   UNL     1     -11.690  10.553  63.238  1.00  0.00     2.868 A  
HETATM   20  C   UNL     1     -12.879  10.640  62.533  1.00  0.00     4.558 A  
HETATM   21  C   UNL     1     -11.604  11.194  64.476  1.00  0.00     0.320 A  
ENDBRANCH  15  16
ENDBRANCH  11  15
BRANCH  12  22
HETATM   22  C   UNL     1     -10.150  13.351  69.990  1.00  0.00     1.950 C  
BRANCH  22  23
HETATM   23  C   UNL     1      -8.909  13.883  70.766  1.00  0.00     4.921 C  
HETATM   24  O   UNL     1      -7.878  12.882  70.721  1.00  0.00     3.276 OA 
HETATM   25  H   UNL     1      -7.121  13.206  71.194  1.00  0.00     0.000 HD 
BRANCH  23  26
HETATM   26  C   UNL     1      -8.172  15.123  70.179  1.00  0.00     0.542 C  
HETATM   27  C   UNL     1      -8.654  15.803  68.872  1.00  0.00    -0.220 C  
HETATM   28  C   UNL     1      -8.021  17.234  68.767  1.00  0.00    -0.250 C  
HETATM   29  C   UNL     1      -8.241  14.968  67.642  1.00  0.00    -0.168 C  
HETATM   30  O   UNL     1      -7.279  14.205  67.655  1.00  0.00    -0.155 OA 
HETATM   31  N   UNL     1      -9.022  15.119  66.510  1.00  0.00    -0.297 N  
HETATM   32  H   UNL     1      -9.682  15.895  66.459  1.00  0.00     0.000 HD 
BRANCH  28  33
HETATM   33  C   UNL     1      -8.416  18.250  69.838  1.00  0.00     1.553 A  
HETATM   34  C   UNL     1      -9.750  18.404  70.238  1.00  0.00     1.782 A  
HETATM   35  C   UNL     1      -7.454  19.091  70.420  1.00  0.00     1.396 A  
HETATM   36  C   UNL     1      -7.812  20.047  71.390  1.00  0.00     1.868 A  
HETATM   37  C   UNL     1     -10.108  19.360  71.207  1.00  0.00     2.566 A  
HETATM   38  C   UNL     1      -9.138  20.178  71.784  1.00  0.00     2.512 A  
ENDBRANCH  28  33
BRANCH  31  39
HETATM   39  C   UNL     1      -8.919  14.177  65.376  1.00  0.00     1.402 C  
HETATM   40  C   UNL     1      -9.093  11.671  65.629  1.00  0.00    -0.088 C  
HETATM   41  C   UNL     1      -7.679  12.122  65.506  1.00  0.00     1.961 A  
HETATM   42  H   UNL     1     -11.468  12.317  66.526  1.00  0.00     0.000 HD 
HETATM   43  C   UNL     1      -9.910  12.966  65.436  1.00  0.00    -0.118 C  
HETATM   44  O   UNL     1     -10.867  13.052  66.490  1.00  0.00    -0.275 OA 
HETATM   45  C   UNL     1      -6.547  11.305  65.513  1.00  0.00     0.509 A  
HETATM   46  C   UNL     1      -5.299  11.897  65.326  1.00  0.00     2.204 A  
HETATM   47  C   UNL     1      -5.195  13.276  65.122  1.00  0.00     9.613 A  
HETATM   48  C   UNL     1      -6.330  14.092  65.136  1.00  0.00    14.571 A  
HETATM   49  C   UNL     1      -7.578  13.498  65.344  1.00  0.00     6.655 A  
ENDBRANCH  31  39
ENDBRANCH  23  26
ENDBRANCH  22  23
ENDBRANCH  12  22
ENDBRANCH   6   9
TORSDOF 8
ENDMDL
MODEL      232
REMARK 921   NORMALIZED FREE ENERGY PREDICTED BY IDOCK:   77.12 KCAL/MOL
REMARK 922        TOTAL FREE ENERGY PREDICTED BY IDOCK:  111.22 KCAL/MOL
REMARK 923 INTER-LIGAND FREE ENERGY PREDICTED BY IDOCK:  109.57 KCAL/MOL
REMARK 924 INTRA-LIGAND FREE ENERGY PREDICTED BY IDOCK:    1.65 KCAL/MOL
REMARK 927      BINDING AFFINITY PREDICTED BY RF-SCORE:    0.00 PKD
ROOT
HETATM    1  C   UNL     1      -8.407   9.667  63.382  1.00  0.00    -0.170 C  
HETATM    2  C   UNL     1      -7.499   8.738  64.194  1.00  0.00    -0.109 C  
HETATM    3  N   UNL     1      -6.862   9.376  65.390  1.00  0.00    -0.077 N  
HETATM    4  C   UNL     1      -6.347   8.310  63.240  1.00  0.00    -0.081 C  
HETATM    5  C   UNL     1      -8.261   7.454  64.555  1.00  0.00    -0.023 C  
HETATM    6  C   UNL     1      -7.221   9.931  66.589  1.00  0.00    -0.091 C  
HETATM    7  H   UNL     1      -5.849   9.406  65.276  1.00  0.00     0.000 HD 
HETATM    8  O   UNL     1      -6.292  10.060  67.400  1.00  0.00    -0.065 OA 
ENDROOT
BRANCH   6   9
HETATM    9  C   UNL     1      -8.625  10.447  66.951  1.00  0.00    -0.127 C  
HETATM   10  C   UNL     1      -8.788  11.309  68.265  1.00  0.00    -0.158 C  
HETATM   11  N   UNL     1     -10.067  12.089  68.242  1.00  0.00    -0.198 NA 
HETATM   12  N   UNL     1      -9.689   9.407  66.844  1.00  0.00    -0.173 NA 
HETATM   13  C   UNL     1     -11.208  11.235  67.807  1.00  0.00    -0.291 C  
HETATM   14  C   UNL     1     -10.924  10.223  66.661  1.00  0.00     0.040 C  
BRANCH  11  15
HETATM   15  C   UNL     1     -10.429  12.686  69.549  1.00  0.00     0.559 C  
BRANCH  15  16
HETATM   16  C   UNL     1      -9.399  13.547  70.238  1.00  0.00     3.656 A  
HETATM   17  C   UNL     1      -8.570  14.385  69.496  1.00  0.00     0.426 A  
HETATM   18  N   UNL     1      -7.523  15.080  70.003  1.00  0.00    -0.031 NA 
HETATM   19  C   UNL     1      -8.044  14.130  72.155  1.00  0.00     7.441 A  
HETATM   20  C   UNL     1      -7.283  14.933  71.322  1.00  0.00     1.800 A  
HETATM   21  C   UNL     1      -9.116  13.427  71.601  1.00  0.00    13.304 A  
ENDBRANCH  15  16
ENDBRANCH  11  15
BRANCH  12  22
HETATM   22  C   UNL     1      -9.889   8.461  68.003  1.00  0.00    -0.169 C  
BRANCH  22  23
HETATM   23  C   UNL     1     -11.318   7.962  68.369  1.00  0.00     0.815 C  
HETATM   24  O   UNL     1     -11.894   7.337  67.210  1.00  0.00     0.353 OA 
HETATM   25  H   UNL     1     -12.767   7.032  67.433  1.00  0.00     0.000 HD 
BRANCH  23  26
HETATM   26  C   UNL     1     -11.433   6.829  69.430  1.00  0.00    -0.208 C  
HETATM   27  C   UNL     1     -10.513   5.583  69.382  1.00  0.00    -0.360 C  
HETATM   28  C   UNL     1     -10.549   4.857  70.772  1.00  0.00    -0.072 C  
HETATM   29  C   UNL     1     -10.979   4.606  68.282  1.00  0.00     1.683 C  
HETATM   30  O   UNL     1     -12.140   4.567  67.883  1.00  0.00     8.000 OA 
HETATM   31  N   UNL     1     -10.010   3.771  67.755  1.00  0.00    -0.050 N  
HETATM   32  H   UNL     1      -9.114   3.681  68.234  1.00  0.00     0.000 HD 
BRANCH  28  33
HETATM   33  C   UNL     1     -10.004   5.627  71.974  1.00  0.00    -0.217 A  
HETATM   34  C   UNL     1     -10.860   6.136  72.961  1.00  0.00    -0.284 A  
HETATM   35  C   UNL     1      -8.630   5.885  72.099  1.00  0.00    -0.129 A  
HETATM   36  C   UNL     1      -8.121   6.615  73.191  1.00  0.00    -0.108 A  
HETATM   37  C   UNL     1     -10.352   6.866  74.051  1.00  0.00    -0.355 A  
HETATM   38  C   UNL     1      -8.982   7.101  74.166  1.00  0.00    -0.255 A  
ENDBRANCH  28  33
BRANCH  31  39
HETATM   39  C   UNL     1     -10.250   3.007  66.513  1.00  0.00     1.465 C  
HETATM   40  C   UNL     1     -10.063   4.012  64.204  1.00  0.00    -0.176 C  
HETATM   41  C   UNL     1     -11.479   3.908  64.653  1.00  0.00     1.053 A  
HETATM   42  H   UNL     1      -7.595   4.400  64.997  1.00  0.00     0.000 HD 
HETATM   43  C   UNL     1      -9.266   3.336  65.340  1.00  0.00    -0.152 C  
HETATM   44  O   UNL     1      -8.193   4.201  65.709  1.00  0.00    -0.107 OA 
HETATM   45  C   UNL     1     -12.607   4.292  63.927  1.00  0.00     5.896 A  
HETATM   46  C   UNL     1     -13.865   4.065  64.483  1.00  0.00    17.153 A  
HETATM   47  C   UNL     1     -13.983   3.452  65.734  1.00  0.00    21.813 A  
HETATM   48  C   UNL     1     -12.849   3.087  66.465  1.00  0.00    22.202 A  
HETATM   49  C   UNL     1     -11.589   3.334  65.913  1.00  0.00     6.147 A  
ENDBRANCH  31  39
ENDBRANCH  23  26
ENDBRANCH  22  23
ENDBRANCH  12  22
ENDBRANCH   6   9
TORSDOF 8
ENDMDL
MODEL      233
REMARK 921   NORMALIZED FREE ENERGY PREDICTED BY IDOCK:   77.44 KCAL/MOL
REMARK 922        TOTAL FREE ENERGY PREDICTED BY IDOCK:  111.69 KCAL/MOL
REMARK 923 INTER-LIGAND FREE ENERGY PREDICTED BY IDOCK:   54.12 KCAL/MOL
REMARK 924 INTRA-LIGAND FREE ENERGY PREDICTED BY IDOCK:   57.57 KCAL/MOL
REMARK 927      BINDING AFFINITY PREDICTED BY RF-SCORE:    0.00 PKD
ROOT
HETATM    1  C   UNL     1     -11.295   8.298  65.487  1.00  0.00     6.792 C  
HETATM    2  C   UNL     1     -11.533   9.811  65.474  1.00  0.00     3.501 C  
HETATM    3  N   UNL     1     -10.465  10.618  66.145  1.00  0.00    -0.225 N  
HETATM    4  C   UNL     1     -12.850  10.052  66.267  1.00  0.00    11.726 C  
HETATM    5  C   UNL     1     -11.803  10.281  64.037  1.00  0.00     4.698 C  
HETATM    6  C   UNL     1      -9.136  10.914  65.998  1.00  0.00    -0.191 C  
HETATM    7  H   UNL     1     -10.843  11.093  66.964  1.00  0.00     0.000 HD 
HETATM    8  O   UNL     1      -8.748  11.894  66.650  1.00  0.00    -0.192 OA 
ENDROOT
BRANCH   6   9
HETATM    9  C   UNL     1      -8.126  10.101  65.169  1.00  0.00    -0.148 C  
HETATM   10  C   UNL     1      -8.687   9.029  64.152  1.00  0.00    -0.096 C  
HETATM   11  N   UNL     1      -7.652   8.659  63.134  1.00  0.00    -0.107 NA 
HETATM   12  N   UNL     1      -6.997   9.553  65.973  1.00  0.00    -0.089 NA 
HETATM   13  C   UNL     1      -6.333   8.406  63.779  1.00  0.00    -0.072 C  
HETATM   14  C   UNL     1      -5.934   9.350  64.948  1.00  0.00    -0.066 C  
BRANCH  11  15
HETATM   15  C   UNL     1      -7.997   7.460  62.335  1.00  0.00    -0.136 C  
BRANCH  15  16
HETATM   16  C   UNL     1      -8.186   6.156  63.070  1.00  0.00    -0.032 A  
HETATM   17  C   UNL     1      -8.714   6.143  64.358  1.00  0.00     0.314 A  
HETATM   18  N   UNL     1      -8.784   5.047  65.153  1.00  0.00    -0.147 NA 
HETATM   19  C   UNL     1      -7.757   3.794  63.369  1.00  0.00    -0.067 A  
HETATM   20  C   UNL     1      -8.300   3.898  64.639  1.00  0.00    -0.097 A  
HETATM   21  C   UNL     1      -7.699   4.943  62.576  1.00  0.00    -0.062 A  
ENDBRANCH  15  16
ENDBRANCH  11  15
BRANCH  12  22
HETATM   22  C   UNL     1      -7.210   8.261  66.725  1.00  0.00    -0.082 C  
BRANCH  22  23
HETATM   23  C   UNL     1      -6.780   8.144  68.217  1.00  0.00    -0.064 C  
HETATM   24  O   UNL     1      -5.359   7.934  68.268  1.00  0.00    -0.030 OA 
HETATM   25  H   UNL     1      -5.096   7.862  69.179  1.00  0.00     0.000 HD 
BRANCH  23  26
HETATM   26  C   UNL     1      -6.946   9.405  69.114  1.00  0.00    -0.058 C  
HETATM   27  C   UNL     1      -8.207  10.302  69.017  1.00  0.00    -0.139 C  
HETATM   28  C   UNL     1      -8.301  11.206  70.296  1.00  0.00     2.226 C  
HETATM   29  C   UNL     1      -8.141  11.197  67.762  1.00  0.00    -0.117 C  
HETATM   30  O   UNL     1      -7.079  11.517  67.235  1.00  0.00    -0.109 OA 
HETATM   31  N   UNL     1      -9.354  11.620  67.249  1.00  0.00    -0.167 N  
HETATM   32  H   UNL     1     -10.199  11.511  67.809  1.00  0.00     0.000 HD 
BRANCH  28  33
HETATM   33  C   UNL     1      -8.497  10.497  71.636  1.00  0.00     5.660 A  
HETATM   34  C   UNL     1      -7.405  10.026  72.377  1.00  0.00     2.945 A  
HETATM   35  C   UNL     1      -9.786  10.260  72.141  1.00  0.00     5.748 A  
HETATM   36  C   UNL     1      -9.978   9.586  73.362  1.00  0.00     5.402 A  
HETATM   37  C   UNL     1      -7.597   9.353  73.598  1.00  0.00     1.606 A  
HETATM   38  C   UNL     1      -8.884   9.137  74.090  1.00  0.00     2.674 A  
ENDBRANCH  28  33
BRANCH  31  39
HETATM   39  C   UNL     1      -9.448  12.226  65.904  1.00  0.00    -0.154 C  
HETATM   40  C   UNL     1      -8.990  14.666  65.442  1.00  0.00     1.299 C  
HETATM   41  C   UNL     1     -10.449  14.377  65.517  1.00  0.00    -0.366 A  
HETATM   42  H   UNL     1      -6.632  13.997  66.368  1.00  0.00     0.000 HD 
HETATM   43  C   UNL     1      -8.333  13.275  65.577  1.00  0.00     2.635 C  
HETATM   44  O   UNL     1      -7.309  13.360  66.567  1.00  0.00     0.741 OA 
HETATM   45  C   UNL     1     -11.484  15.299  65.351  1.00  0.00    -0.184 A  
HETATM   46  C   UNL     1     -12.799  14.838  65.397  1.00  0.00     0.146 A  
HETATM   47  C   UNL     1     -13.064  13.479  65.589  1.00  0.00    -0.028 A  
HETATM   48  C   UNL     1     -12.024  12.563  65.774  1.00  0.00    -0.482 A  
HETATM   49  C   UNL     1     -10.707  13.032  65.748  1.00  0.00    -0.291 A  
ENDBRANCH  31  39
ENDBRANCH  23  26
ENDBRANCH  22  23
ENDBRANCH  12  22
ENDBRANCH   6   9
TORSDOF 8
ENDMDL
MODEL      234
REMARK 921   NORMALIZED FREE ENERGY PREDICTED BY IDOCK:   84.00 KCAL/MOL
REMARK 922        TOTAL FREE ENERGY PREDICTED BY IDOCK:  121.32 KCAL/MOL
REMARK 923 INTER-LIGAND FREE ENERGY PREDICTED BY IDOCK:  114.80 KCAL/MOL
REMARK 924 INTRA-LIGAND FREE ENERGY PREDICTED BY IDOCK:    6.53 KCAL/MOL
REMARK 927      BINDING AFFINITY PREDICTED BY RF-SCORE:    0.00 PKD
ROOT
HETATM    1  C   UNL     1      -9.413  17.918  67.520  1.00  0.00    -0.258 C  
HETATM    2  C   UNL     1     -10.422  17.568  66.422  1.00  0.00    -0.277 C  
HETATM    3  N   UNL     1     -11.263  16.362  66.708  1.00  0.00     0.151 N  
HETATM    4  C   UNL     1      -9.588  17.249  65.148  1.00  0.00     1.559 C  
HETATM    5  C   UNL     1     -11.271  18.804  66.085  1.00  0.00     0.598 C  
HETATM    6  C   UNL     1     -12.217  15.944  67.597  1.00  0.00     1.002 C  
HETATM    7  H   UNL     1     -11.063  15.625  66.032  1.00  0.00     0.000 HD 
HETATM    8  O   UNL     1     -12.852  14.940  67.242  1.00  0.00     0.851 OA 
ENDROOT
BRANCH   6   9
HETATM    9  C   UNL     1     -12.488  16.569  68.976  1.00  0.00     1.566 C  
HETATM   10  C   UNL     1     -11.304  17.329  69.696  1.00  0.00     1.096 C  
HETATM   11  N   UNL     1     -11.822  18.236  70.771  1.00  0.00     6.104 NA 
HETATM   12  N   UNL     1     -13.203  15.658  69.915  1.00  0.00     0.191 NA 
HETATM   13  C   UNL     1     -12.838  17.544  71.612  1.00  0.00     8.557 C  
HETATM   14  C   UNL     1     -13.837  16.609  70.873  1.00  0.00     5.603 C  
BRANCH  11  15
HETATM   15  C   UNL     1     -10.770  18.755  71.677  1.00  0.00     3.456 C  
BRANCH  15  16
HETATM   16  C   UNL     1      -9.558  19.400  71.050  1.00  0.00     2.424 A  
HETATM   17  C   UNL     1      -8.512  19.858  71.847  1.00  0.00     3.025 A  
HETATM   18  N   UNL     1      -7.456  20.579  71.394  1.00  0.00     0.702 NA 
HETATM   19  C   UNL     1      -8.425  20.455  69.192  1.00  0.00     0.776 A  
HETATM   20  C   UNL     1      -7.440  20.863  70.076  1.00  0.00     2.521 A  
HETATM   21  C   UNL     1      -9.499  19.715  69.690  1.00  0.00     0.189 A  
ENDBRANCH  15  16
ENDBRANCH  11  15
BRANCH  12  22
HETATM   22  C   UNL     1     -12.395  14.643  70.687  1.00  0.00    -0.331 C  
BRANCH  22  23
HETATM   23  C   UNL     1     -12.354  13.157  70.221  1.00  0.00    -0.249 C  
HETATM   24  O   UNL     1     -13.605  12.841  69.588  1.00  0.00     2.335 OA 
HETATM   25  H   UNL     1     -13.580  11.935  69.304  1.00  0.00     0.000 HD 
BRANCH  23  26
HETATM   26  C   UNL     1     -11.333  12.783  69.107  1.00  0.00    -0.337 C  
HETATM   27  C   UNL     1      -9.961  12.149  69.452  1.00  0.00     0.654 C  
HETATM   28  C   UNL     1      -9.352  11.495  68.163  1.00  0.00    -0.185 C  
HETATM   29  C   UNL     1      -8.988  13.219  69.991  1.00  0.00     3.212 C  
HETATM   30  O   UNL     1      -9.097  14.409  69.711  1.00  0.00     0.455 OA 
HETATM   31  N   UNL     1      -7.980  12.765  70.822  1.00  0.00     5.081 N  
HETATM   32  H   UNL     1      -7.790  11.765  70.878  1.00  0.00     0.000 HD 
BRANCH  28  33
HETATM   33  C   UNL     1     -10.117  10.322  67.550  1.00  0.00    -0.239 A  
HETATM   34  C   UNL     1      -9.875   9.003  67.955  1.00  0.00    -0.197 A  
HETATM   35  C   UNL     1     -11.057  10.533  66.528  1.00  0.00     0.050 A  
HETATM   36  C   UNL     1     -11.749   9.457  65.939  1.00  0.00     5.199 A  
HETATM   37  C   UNL     1     -10.566   7.927  67.368  1.00  0.00    -0.342 A  
HETATM   38  C   UNL     1     -11.505   8.156  66.363  1.00  0.00     3.448 A  
ENDBRANCH  28  33
BRANCH  31  39
HETATM   39  C   UNL     1      -7.172  13.703  71.630  1.00  0.00     4.550 C  
HETATM   40  C   UNL     1      -8.176  15.427  73.177  1.00  0.00    10.761 C  
HETATM   41  C   UNL     1      -7.747  16.024  71.882  1.00  0.00     7.516 A  
HETATM   42  H   UNL     1      -9.136  13.273  74.320  1.00  0.00     0.000 HD 
HETATM   43  C   UNL     1      -7.714  13.958  73.076  1.00  0.00     8.004 C  
HETATM   44  O   UNL     1      -8.808  13.119  73.442  1.00  0.00    13.516 OA 
HETATM   45  C   UNL     1      -7.851  17.367  71.516  1.00  0.00     9.135 A  
HETATM   46  C   UNL     1      -7.340  17.760  70.280  1.00  0.00     1.982 A  
HETATM   47  C   UNL     1      -6.725  16.826  69.441  1.00  0.00    -0.226 A  
HETATM   48  C   UNL     1      -6.641  15.479  69.805  1.00  0.00    -0.166 A  
HETATM   49  C   UNL     1      -7.172  15.084  71.036  1.00  0.00     1.334 A  
ENDBRANCH  31  39
ENDBRANCH  23  26
ENDBRANCH  22  23
ENDBRANCH  12  22
ENDBRANCH   6   9
TORSDOF 8
ENDMDL
MODEL      235
REMARK 921   NORMALIZED FREE ENERGY PREDICTED BY IDOCK:  105.45 KCAL/MOL
REMARK 922        TOTAL FREE ENERGY PREDICTED BY IDOCK:  152.80 KCAL/MOL
REMARK 923 INTER-LIGAND FREE ENERGY PREDICTED BY IDOCK:  150.61 KCAL/MOL
REMARK 924 INTRA-LIGAND FREE ENERGY PREDICTED BY IDOCK:    2.18 KCAL/MOL
REMARK 927      BINDING AFFINITY PREDICTED BY RF-SCORE:    0.00 PKD
ROOT
HETATM    1  C   UNL     1      -9.584  18.350  70.976  1.00  0.00     4.516 C  
HETATM    2  C   UNL     1     -10.892  18.837  71.608  1.00  0.00     3.638 C  
HETATM    3  N   UNL     1     -11.915  17.766  71.830  1.00  0.00     3.034 N  
HETATM    4  C   UNL     1     -11.509  19.854  70.605  1.00  0.00     6.175 C  
HETATM    5  C   UNL     1     -10.586  19.627  72.890  1.00  0.00     4.160 C  
HETATM    6  C   UNL     1     -12.084  16.625  72.568  1.00  0.00    -0.102 C  
HETATM    7  H   UNL     1     -12.739  17.940  71.255  1.00  0.00     0.000 HD 
HETATM    8  O   UNL     1     -13.255  16.224  72.641  1.00  0.00    -0.315 OA 
ENDROOT
BRANCH   6   9
HETATM    9  C   UNL     1     -10.956  15.808  73.222  1.00  0.00     1.871 C  
HETATM   10  C   UNL     1      -9.470  16.316  73.047  1.00  0.00    11.690 C  
HETATM   11  N   UNL     1      -8.568  15.703  74.075  1.00  0.00    13.818 NA 
HETATM   12  N   UNL     1     -11.065  14.341  72.980  1.00  0.00     2.043 NA 
HETATM   13  C   UNL     1      -8.809  14.237  74.194  1.00  0.00    10.296 C  
HETATM   14  C   UNL     1     -10.288  13.764  74.115  1.00  0.00     8.926 C  
BRANCH  11  15
HETATM   15  C   UNL     1      -7.124  15.897  73.799  1.00  0.00     8.687 C  
BRANCH  15  16
HETATM   16  C   UNL     1      -6.678  17.255  73.316  1.00  0.00     7.877 A  
HETATM   17  C   UNL     1      -7.287  18.411  73.799  1.00  0.00     8.973 A  
HETATM   18  N   UNL     1      -7.062  19.659  73.321  1.00  0.00     3.206 NA 
HETATM   19  C   UNL     1      -5.517  18.686  71.749  1.00  0.00    -0.033 A  
HETATM   20  C   UNL     1      -6.183  19.766  72.304  1.00  0.00     0.504 A  
HETATM   21  C   UNL     1      -5.772  17.413  72.264  1.00  0.00     1.766 A  
ENDBRANCH  15  16
ENDBRANCH  11  15
BRANCH  12  22
HETATM   22  C   UNL     1     -10.529  13.784  71.682  1.00  0.00     5.456 C  
BRANCH  22  23
HETATM   23  C   UNL     1     -10.925  12.350  71.223  1.00  0.00     4.466 C  
HETATM   24  O   UNL     1     -12.240  12.401  70.645  1.00  0.00    -0.368 OA 
HETATM   25  H   UNL     1     -12.482  11.526  70.365  1.00  0.00     0.000 HD 
BRANCH  23  26
HETATM   26  C   UNL     1     -10.097  11.711  70.070  1.00  0.00     1.542 C  
HETATM   27  C   UNL     1      -9.018  12.521  69.308  1.00  0.00     0.948 C  
HETATM   28  C   UNL     1      -8.076  11.533  68.535  1.00  0.00    -0.146 C  
HETATM   29  C   UNL     1      -9.676  13.492  68.305  1.00  0.00    -0.224 C  
HETATM   30  O   UNL     1     -10.789  13.292  67.828  1.00  0.00    -0.244 OA 
HETATM   31  N   UNL     1      -8.941  14.615  67.970  1.00  0.00    -0.168 N  
HETATM   32  H   UNL     1      -7.953  14.658  68.218  1.00  0.00     0.000 HD 
BRANCH  28  33
HETATM   33  C   UNL     1      -7.238  10.569  69.376  1.00  0.00    -0.117 A  
HETATM   34  C   UNL     1      -6.587  10.997  70.540  1.00  0.00     0.255 A  
HETATM   35  C   UNL     1      -7.064   9.235  68.977  1.00  0.00    -0.067 A  
HETATM   36  C   UNL     1      -6.274   8.345  69.731  1.00  0.00    -0.032 A  
HETATM   37  C   UNL     1      -5.798  10.108  71.294  1.00  0.00     0.028 A  
HETATM   38  C   UNL     1      -5.645   8.783  70.890  1.00  0.00    -0.033 A  
ENDBRANCH  28  33
BRANCH  31  39
HETATM   39  C   UNL     1      -9.563  15.754  67.262  1.00  0.00    -0.217 C  
HETATM   40  C   UNL     1     -11.787  15.609  66.076  1.00  0.00     0.601 C  
HETATM   41  C   UNL     1     -10.643  15.521  65.127  1.00  0.00    -0.455 A  
HETATM   42  H   UNL     1     -12.600  15.028  68.499  1.00  0.00     0.000 HD 
HETATM   43  C   UNL     1     -11.114  15.871  67.441  1.00  0.00    -0.207 C  
HETATM   44  O   UNL     1     -11.659  14.956  68.390  1.00  0.00    -0.301 OA 
HETATM   45  C   UNL     1     -10.727  15.384  63.741  1.00  0.00     2.387 A  
HETATM   46  C   UNL     1      -9.546  15.378  63.000  1.00  0.00    14.197 A  
HETATM   47  C   UNL     1      -8.311  15.520  63.640  1.00  0.00    17.699 A  
HETATM   48  C   UNL     1      -8.232  15.637  65.030  1.00  0.00     5.220 A  
HETATM   49  C   UNL     1      -9.417  15.623  65.772  1.00  0.00    -0.338 A  
ENDBRANCH  31  39
ENDBRANCH  23  26
ENDBRANCH  22  23
ENDBRANCH  12  22
ENDBRANCH   6   9
TORSDOF 8
ENDMDL
MODEL      236
REMARK 921   NORMALIZED FREE ENERGY PREDICTED BY IDOCK:  109.66 KCAL/MOL
REMARK 922        TOTAL FREE ENERGY PREDICTED BY IDOCK:  158.98 KCAL/MOL
REMARK 923 INTER-LIGAND FREE ENERGY PREDICTED BY IDOCK:  145.64 KCAL/MOL
REMARK 924 INTRA-LIGAND FREE ENERGY PREDICTED BY IDOCK:   13.34 KCAL/MOL
REMARK 927      BINDING AFFINITY PREDICTED BY RF-SCORE:    0.00 PKD
ROOT
HETATM    1  C   UNL     1     -13.257  13.843  71.560  1.00  0.00    -0.425 C  
HETATM    2  C   UNL     1     -11.740  13.824  71.775  1.00  0.00     1.115 C  
HETATM    3  N   UNL     1     -11.136  12.456  71.845  1.00  0.00     4.958 N  
HETATM    4  C   UNL     1     -11.487  14.504  73.151  1.00  0.00     0.714 C  
HETATM    5  C   UNL     1     -11.057  14.711  70.723  1.00  0.00     0.012 C  
HETATM    6  C   UNL     1     -10.948  11.358  71.048  1.00  0.00     2.250 C  
HETATM    7  H   UNL     1     -10.742  12.291  72.771  1.00  0.00     0.000 HD 
HETATM    8  O   UNL     1     -10.106  10.551  71.467  1.00  0.00     2.006 OA 
ENDROOT
BRANCH   6   9
HETATM    9  C   UNL     1     -11.732  11.043  69.762  1.00  0.00    -0.335 C  
HETATM   10  C   UNL     1     -11.186   9.901  68.816  1.00  0.00    -0.072 C  
HETATM   11  N   UNL     1     -12.254   9.419  67.882  1.00  0.00     3.155 NA 
HETATM   12  N   UNL     1     -12.119  12.257  68.986  1.00  0.00    -0.221 NA 
HETATM   13  C   UNL     1     -12.984  10.563  67.267  1.00  0.00     8.544 C  
HETATM   14  C   UNL     1     -13.286  11.777  68.191  1.00  0.00     5.064 C  
BRANCH  11  15
HETATM   15  C   UNL     1     -11.748   8.566  66.780  1.00  0.00     4.014 C  
BRANCH  15  16
HETATM   16  C   UNL     1     -10.781   7.463  67.133  1.00  0.00    -0.400 A  
HETATM   17  C   UNL     1      -9.663   7.225  66.337  1.00  0.00    -0.079 A  
HETATM   18  N   UNL     1      -8.822   6.172  66.484  1.00  0.00    -0.128 NA 
HETATM   19  C   UNL     1     -10.191   5.445  68.329  1.00  0.00    -0.224 A  
HETATM   20  C   UNL     1      -9.109   5.305  67.476  1.00  0.00    -0.109 A  
HETATM   21  C   UNL     1     -11.039   6.541  68.150  1.00  0.00    -0.332 A  
ENDBRANCH  15  16
ENDBRANCH  11  15
BRANCH  12  22
HETATM   22  C   UNL     1     -11.102  12.868  68.052  1.00  0.00    -0.253 C  
BRANCH  22  23
HETATM   23  C   UNL     1     -11.222  14.363  67.635  1.00  0.00    -0.313 C  
HETATM   24  O   UNL     1     -11.899  15.078  68.683  1.00  0.00    -0.399 OA 
HETATM   25  H   UNL     1     -11.972  15.991  68.428  1.00  0.00     0.000 HD 
BRANCH  23  26
HETATM   26  C   UNL     1      -9.904  15.178  67.496  1.00  0.00    -0.220 C  
HETATM   27  C   UNL     1      -8.529  14.472  67.380  1.00  0.00    -0.220 C  
HETATM   28  C   UNL     1      -7.469  15.487  66.826  1.00  0.00     0.019 C  
HETATM   29  C   UNL     1      -8.068  13.952  68.758  1.00  0.00    -0.043 C  
HETATM   30  O   UNL     1      -8.451  14.451  69.813  1.00  0.00     0.389 OA 
HETATM   31  N   UNL     1      -7.197  12.878  68.746  1.00  0.00    -0.151 N  
HETATM   32  H   UNL     1      -6.742  12.613  67.872  1.00  0.00     0.000 HD 
BRANCH  28  33
HETATM   33  C   UNL     1      -7.690  16.021  65.411  1.00  0.00     3.642 A  
HETATM   34  C   UNL     1      -7.407  17.354  65.083  1.00  0.00     2.232 A  
HETATM   35  C   UNL     1      -8.226  15.197  64.408  1.00  0.00    10.768 A  
HETATM   36  C   UNL     1      -8.457  15.687  63.108  1.00  0.00    22.790 A  
HETATM   37  C   UNL     1      -7.636  17.843  63.784  1.00  0.00    11.374 A  
HETATM   38  C   UNL     1      -8.158  17.008  62.797  1.00  0.00    26.153 A  
ENDBRANCH  28  33
BRANCH  31  39
HETATM   39  C   UNL     1      -6.914  12.107  69.975  1.00  0.00     0.664 C  
HETATM   40  C   UNL     1      -8.538  11.907  71.897  1.00  0.00    17.015 C  
HETATM   41  C   UNL     1      -7.474  12.912  72.170  1.00  0.00    10.048 A  
HETATM   42  H   UNL     1     -10.014  10.814  70.028  1.00  0.00     0.000 HD 
HETATM   43  C   UNL     1      -8.131  11.299  70.538  1.00  0.00     3.313 C  
HETATM   44  O   UNL     1      -9.275  11.305  69.686  1.00  0.00     0.436 OA 
HETATM   45  C   UNL     1      -7.333  13.674  73.331  1.00  0.00     6.397 A  
HETATM   46  C   UNL     1      -6.236  14.528  73.437  1.00  0.00     0.803 A  
HETATM   47  C   UNL     1      -5.296  14.600  72.405  1.00  0.00    -0.080 A  
HETATM   48  C   UNL     1      -5.452  13.849  71.237  1.00  0.00    -0.208 A  
HETATM   49  C   UNL     1      -6.564  13.010  71.124  1.00  0.00     1.976 A  
ENDBRANCH  31  39
ENDBRANCH  23  26
ENDBRANCH  22  23
ENDBRANCH  12  22
ENDBRANCH   6   9
TORSDOF 8
ENDMDL
