MODEL        1
REMARK 921   NORMALIZED FREE ENERGY PREDICTED BY IDOCK:   -6.88 KCAL/MOL
REMARK 922        TOTAL FREE ENERGY PREDICTED BY IDOCK:  -15.73 KCAL/MOL
REMARK 923 INTER-LIGAND FREE ENERGY PREDICTED BY IDOCK:  -11.31 KCAL/MOL
REMARK 924 INTRA-LIGAND FREE ENERGY PREDICTED BY IDOCK:   -4.43 KCAL/MOL
REMARK 927      BINDING AFFINITY PREDICTED BY RF-SCORE:    0.00 PKD
ROOT
HETATM    1  C   UNL     1      -8.587   5.573  66.307  1.00  0.00    -0.125 C  
HETATM    2  C   UNL     1      -8.115   5.018  67.654  1.00  0.00    -0.098 C  
HETATM    3  C   UNL     1      -6.718   4.987  68.309  1.00  0.00    -0.054 C  
HETATM    4  C   UNL     1      -7.627   3.530  67.066  1.00  0.00    -0.079 C  
HETATM    5  C   UNL     1      -5.881   6.015  67.972  1.00  0.00    -0.012 C  
HETATM    6  N   UNL     1      -6.980   4.292  69.601  1.00  0.00    -0.045 NA 
HETATM    7  C   UNL     1      -8.155   7.030  71.643  1.00  0.00    -0.103 A  
HETATM    8  C   UNL     1      -7.622   5.809  71.378  1.00  0.00    -0.105 A  
HETATM    9  C   UNL     1      -7.862   5.300  70.126  1.00  0.00    -0.080 A  
HETATM   10  C   UNL     1     -10.783   9.075  69.223  1.00  0.00    -0.189 A  
HETATM   11  C   UNL     1      -8.715   5.783  69.067  1.00  0.00    -0.112 A  
HETATM   12  C   UNL     1     -10.281   9.645  70.391  1.00  0.00    -0.348 A  
HETATM   13  C   UNL     1      -9.350   7.046  69.421  1.00  0.00    -0.146 A  
HETATM   14  C   UNL     1      -8.973   7.652  70.707  1.00  0.00    -0.149 A  
HETATM   15  C   UNL     1      -9.367   8.925  71.124  1.00  0.00    -0.326 A  
HETATM   16  C   UNL     1     -10.311   7.826  68.735  1.00  0.00    -0.219 A  
ENDROOT
BRANCH   5  17
HETATM   17  C   UNL     1      -6.151   7.469  68.208  1.00  0.00    -0.036 C  
HETATM   18  C   UNL     1      -6.536   8.371  67.289  1.00  0.00    -0.058 C  
BRANCH  18  19
HETATM   19  C   UNL     1      -6.986   9.743  67.541  1.00  0.00    -0.083 C  
HETATM   20  C   UNL     1      -7.085  10.376  68.726  1.00  0.00    -0.074 C  
BRANCH  20  21
HETATM   21  C   UNL     1      -7.702  11.693  68.910  1.00  0.00    -0.065 C  
HETATM   22  C   UNL     1      -8.909  13.658  67.738  1.00  0.00    -0.190 C  
HETATM   23  C   UNL     1     -10.425  20.034  67.581  1.00  0.00    -0.476 A  
HETATM   24  C   UNL     1      -9.909  15.233  66.527  1.00  0.00    -0.266 A  
HETATM   25  C   UNL     1      -8.397  12.264  67.913  1.00  0.00    -0.163 C  
HETATM   26  C   UNL     1      -9.086  15.993  67.349  1.00  0.00    -0.207 A  
HETATM   27  C   UNL     1     -10.635  19.265  66.445  1.00  0.00    -0.542 A  
HETATM   28  N   UNL     1      -9.915  13.901  66.950  1.00  0.00    -0.258 NA 
HETATM   29  C   UNL     1      -9.425  17.362  67.458  1.00  0.00    -0.250 A  
HETATM   30  C   UNL     1     -10.226  17.930  66.413  1.00  0.00    -0.372 A  
HETATM   31  C   UNL     1      -8.161  14.996  68.054  1.00  0.00    -0.138 C  
HETATM   32  C   UNL     1      -9.176  18.198  68.570  1.00  0.00    -0.326 A  
HETATM   33  C   UNL     1     -10.673  15.763  65.497  1.00  0.00    -0.397 A  
HETATM   34  C   UNL     1      -7.911  15.284  69.529  1.00  0.00    -0.204 C  
HETATM   35  C   UNL     1      -6.795  14.871  67.335  1.00  0.00    -0.121 C  
HETATM   36  C   UNL     1      -9.725  19.490  68.651  1.00  0.00    -0.514 A  
HETATM   37  C   UNL     1     -10.730  17.139  65.381  1.00  0.00    -0.097 A  
BRANCH  28  38
HETATM   38  C   UNL     1     -11.157  13.091  66.820  1.00  0.00    -0.286 C  
BRANCH  38  39
HETATM   39  C   UNL     1     -11.654  12.748  68.241  1.00  0.00    -0.375 C  
BRANCH  39  40
HETATM   40  C   UNL     1     -12.034  13.969  69.086  1.00  0.00    -0.400 C  
BRANCH  40  41
HETATM   41  C   UNL     1     -12.366  13.614  70.519  1.00  0.00    -0.355 C  
HETATM   42  O   UNL     1     -11.691  15.847  71.707  1.00  0.00    -0.414 OA 
HETATM   43  O   UNL     1     -14.118  15.508  70.998  1.00  0.00    -0.513 OA 
HETATM   44  S   UNL     1     -12.852  15.005  71.494  1.00  0.00    -0.384 S  
HETATM   45  O   UNL     1     -13.103  14.223  72.855  1.00  0.00    -0.499 OA 
ENDBRANCH  40  41
ENDBRANCH  39  40
ENDBRANCH  38  39
ENDBRANCH  28  38
ENDBRANCH  20  21
ENDBRANCH  18  19
ENDBRANCH   5  17
BRANCH   6  46
HETATM   46  C   UNL     1      -8.089   3.162  69.813  1.00  0.00    -0.044 C  
BRANCH  46  47
HETATM   47  C   UNL     1      -7.948   2.055  70.847  1.00  0.00    -0.047 C  
BRANCH  47  48
HETATM   48  C   UNL     1      -9.134   1.871  71.769  1.00  0.00    -0.137 C  
BRANCH  48  49
HETATM   49  C   UNL     1      -9.077   2.811  72.971  1.00  0.00    -0.085 C  
HETATM   50  O   UNL     1     -10.766   4.693  72.189  1.00  0.00    -0.151 OA 
HETATM   51  O   UNL     1     -10.164   4.462  74.564  1.00  0.00    -0.195 OA 
HETATM   52  O   UNL     1     -11.645   2.726  73.575  1.00  0.00    -0.199 OA 
HETATM   53  S   UNL     1     -10.628   3.672  73.205  1.00  0.00    -0.196 S  
ENDBRANCH  48  49
ENDBRANCH  47  48
ENDBRANCH  46  47
ENDBRANCH   6  46
TORSDOF 11
ENDMDL
MODEL        2
REMARK 921   NORMALIZED FREE ENERGY PREDICTED BY IDOCK:   -6.04 KCAL/MOL
REMARK 922        TOTAL FREE ENERGY PREDICTED BY IDOCK:  -14.34 KCAL/MOL
REMARK 923 INTER-LIGAND FREE ENERGY PREDICTED BY IDOCK:  -10.36 KCAL/MOL
REMARK 924 INTRA-LIGAND FREE ENERGY PREDICTED BY IDOCK:   -3.99 KCAL/MOL
REMARK 927      BINDING AFFINITY PREDICTED BY RF-SCORE:    0.00 PKD
ROOT
HETATM    1  C   UNL     1     -11.526  15.146  65.140  1.00  0.00    -0.304 C  
HETATM    2  C   UNL     1     -10.389  15.847  65.889  1.00  0.00    -0.383 C  
HETATM    3  C   UNL     1     -10.354  16.539  67.269  1.00  0.00    -0.296 C  
HETATM    4  C   UNL     1     -10.769  17.392  65.374  1.00  0.00    -0.040 C  
HETATM    5  C   UNL     1     -11.218  16.041  68.205  1.00  0.00    -0.350 C  
HETATM    6  N   UNL     1      -8.943  17.011  67.360  1.00  0.00    -0.210 NA 
HETATM    7  C   UNL     1      -7.278  14.027  68.531  1.00  0.00    -0.109 A  
HETATM    8  C   UNL     1      -7.450  15.357  68.311  1.00  0.00    -0.112 A  
HETATM    9  C   UNL     1      -8.353  15.700  67.336  1.00  0.00    -0.177 A  
HETATM   10  C   UNL     1      -8.851  10.994  66.235  1.00  0.00    -0.187 A  
HETATM   11  C   UNL     1      -9.067  14.876  66.389  1.00  0.00    -0.293 A  
HETATM   12  C   UNL     1      -8.139  10.724  67.403  1.00  0.00    -0.112 A  
HETATM   13  C   UNL     1      -8.785  13.459  66.588  1.00  0.00    -0.014 A  
HETATM   14  C   UNL     1      -7.927  13.097  67.727  1.00  0.00    -0.162 A  
HETATM   15  C   UNL     1      -7.687  11.788  68.147  1.00  0.00    -0.124 A  
HETATM   16  C   UNL     1      -9.190  12.321  65.853  1.00  0.00    -0.031 A  
ENDROOT
BRANCH   5  17
HETATM   17  C   UNL     1     -11.229  14.634  68.716  1.00  0.00    -0.285 C  
HETATM   18  C   UNL     1     -11.920  13.601  68.204  1.00  0.00    -0.390 C  
BRANCH  18  19
HETATM   19  C   UNL     1     -11.792  12.189  68.575  1.00  0.00    -0.365 C  
HETATM   20  C   UNL     1     -11.830  11.652  69.810  1.00  0.00    -0.428 C  
BRANCH  20  21
HETATM   21  C   UNL     1     -11.527  10.250  70.111  1.00  0.00    -0.383 C  
HETATM   22  C   UNL     1      -9.706   8.413  70.079  1.00  0.00    -0.176 C  
HETATM   23  C   UNL     1      -8.138   2.055  69.783  1.00  0.00    -0.057 A  
HETATM   24  C   UNL     1      -8.000   6.992  69.944  1.00  0.00    -0.123 A  
HETATM   25  C   UNL     1     -10.263   9.800  70.063  1.00  0.00    -0.308 C  
HETATM   26  C   UNL     1      -9.053   6.209  69.489  1.00  0.00    -0.140 A  
HETATM   27  C   UNL     1      -7.147   3.002  69.572  1.00  0.00    -0.041 A  
HETATM   28  N   UNL     1      -8.485   8.193  70.470  1.00  0.00    -0.122 NA 
HETATM   29  C   UNL     1      -8.830   4.811  69.509  1.00  0.00    -0.120 A  
HETATM   30  C   UNL     1      -7.469   4.360  69.526  1.00  0.00    -0.054 A  
HETATM   31  C   UNL     1     -10.236   7.163  69.300  1.00  0.00    -0.193 C  
HETATM   32  C   UNL     1      -9.815   3.810  69.660  1.00  0.00    -0.046 A  
HETATM   33  C   UNL     1      -6.675   6.580  69.947  1.00  0.00    -0.050 A  
HETATM   34  C   UNL     1     -11.582   6.617  69.759  1.00  0.00    -0.354 C  
HETATM   35  C   UNL     1     -10.366   7.632  67.830  1.00  0.00    -0.282 C  
HETATM   36  C   UNL     1      -9.464   2.463  69.858  1.00  0.00    -0.127 A  
HETATM   37  C   UNL     1      -6.411   5.264  69.617  1.00  0.00    -0.030 A  
BRANCH  28  38
HETATM   38  C   UNL     1      -7.799   8.821  71.631  1.00  0.00    -0.076 C  
BRANCH  38  39
HETATM   39  C   UNL     1      -8.481   8.317  72.920  1.00  0.00    -0.260 C  
BRANCH  39  40
HETATM   40  C   UNL     1      -7.564   7.501  73.839  1.00  0.00    -0.152 C  
BRANCH  40  41
HETATM   41  C   UNL     1      -8.290   6.378  74.549  1.00  0.00    -0.132 C  
HETATM   42  O   UNL     1     -10.074   5.771  72.733  1.00  0.00    -0.174 OA 
HETATM   43  O   UNL     1      -7.880   4.473  72.792  1.00  0.00    -0.085 OA 
HETATM   44  S   UNL     1      -8.966   5.171  73.450  1.00  0.00    -0.118 S  
HETATM   45  O   UNL     1      -9.600   4.220  74.555  1.00  0.00    -0.107 OA 
ENDBRANCH  40  41
ENDBRANCH  39  40
ENDBRANCH  38  39
ENDBRANCH  28  38
ENDBRANCH  20  21
ENDBRANCH  18  19
ENDBRANCH   5  17
BRANCH   6  46
HETATM   46  C   UNL     1      -8.059  17.468  66.110  1.00  0.00    -0.209 C  
BRANCH  46  47
HETATM   47  C   UNL     1      -7.391  18.833  66.031  1.00  0.00    -0.283 C  
BRANCH  47  48
HETATM   48  C   UNL     1      -8.061  19.932  66.828  1.00  0.00    -0.349 C  
BRANCH  48  49
HETATM   49  C   UNL     1      -7.046  20.834  67.528  1.00  0.00    -0.346 C  
HETATM   50  O   UNL     1      -7.023  19.746  69.941  1.00  0.00    -0.277 OA 
HETATM   51  O   UNL     1      -5.182  21.207  69.210  1.00  0.00    -0.349 OA 
HETATM   52  O   UNL     1      -5.331  18.942  68.194  1.00  0.00    -0.177 OA 
HETATM   53  S   UNL     1      -6.153  19.951  68.803  1.00  0.00    -0.280 S  
ENDBRANCH  48  49
ENDBRANCH  47  48
ENDBRANCH  46  47
ENDBRANCH   6  46
TORSDOF 11
ENDMDL
MODEL        3
REMARK 921   NORMALIZED FREE ENERGY PREDICTED BY IDOCK:   -5.95 KCAL/MOL
REMARK 922        TOTAL FREE ENERGY PREDICTED BY IDOCK:  -14.21 KCAL/MOL
REMARK 923 INTER-LIGAND FREE ENERGY PREDICTED BY IDOCK:  -10.97 KCAL/MOL
REMARK 924 INTRA-LIGAND FREE ENERGY PREDICTED BY IDOCK:   -3.24 KCAL/MOL
REMARK 927      BINDING AFFINITY PREDICTED BY RF-SCORE:    0.00 PKD
ROOT
HETATM    1  C   UNL     1     -11.022   6.018  66.710  1.00  0.00    -0.305 C  
HETATM    2  C   UNL     1      -9.918   5.411  67.581  1.00  0.00    -0.195 C  
HETATM    3  C   UNL     1      -8.381   5.525  67.502  1.00  0.00    -0.100 C  
HETATM    4  C   UNL     1      -9.646   4.077  66.610  1.00  0.00    -0.228 C  
HETATM    5  C   UNL     1      -7.898   6.694  66.981  1.00  0.00    -0.108 C  
HETATM    6  N   UNL     1      -7.933   4.677  68.641  1.00  0.00    -0.079 NA 
HETATM    7  C   UNL     1      -8.215   6.996  71.396  1.00  0.00    -0.109 A  
HETATM    8  C   UNL     1      -7.772   5.900  70.727  1.00  0.00    -0.097 A  
HETATM    9  C   UNL     1      -8.538   5.485  69.666  1.00  0.00    -0.108 A  
HETATM   10  C   UNL     1     -11.845   8.853  70.819  1.00  0.00    -0.230 A  
HETATM   11  C   UNL     1      -9.831   5.937  69.211  1.00  0.00    -0.205 A  
HETATM   12  C   UNL     1     -10.894   9.375  71.696  1.00  0.00    -0.348 A  
HETATM   13  C   UNL     1     -10.325   7.051  70.012  1.00  0.00    -0.217 A  
HETATM   14  C   UNL     1      -9.431   7.578  71.055  1.00  0.00    -0.162 A  
HETATM   15  C   UNL     1      -9.684   8.731  71.800  1.00  0.00    -0.380 A  
HETATM   16  C   UNL     1     -11.559   7.742  69.979  1.00  0.00     0.113 A  
ENDROOT
BRANCH   5  17
HETATM   17  C   UNL     1      -8.145   8.061  67.540  1.00  0.00    -0.123 C  
HETATM   18  C   UNL     1      -7.317   8.767  68.329  1.00  0.00    -0.087 C  
BRANCH  18  19
HETATM   19  C   UNL     1      -7.462  10.171  68.722  1.00  0.00    -0.086 C  
HETATM   20  C   UNL     1      -8.051  11.166  68.030  1.00  0.00    -0.123 C  
BRANCH  20  21
HETATM   21  C   UNL     1      -8.008  12.579  68.418  1.00  0.00    -0.139 C  
HETATM   22  C   UNL     1      -7.514  14.989  67.620  1.00  0.00    -0.181 C  
HETATM   23  C   UNL     1      -5.704  21.125  69.051  1.00  0.00    -0.214 A  
HETATM   24  C   UNL     1      -7.019  16.966  66.728  1.00  0.00    -0.235 A  
HETATM   25  C   UNL     1      -7.834  13.535  67.491  1.00  0.00    -0.184 C  
HETATM   26  C   UNL     1      -6.411  17.061  67.974  1.00  0.00    -0.151 A  
HETATM   27  C   UNL     1      -5.704  20.717  67.726  1.00  0.00    -0.288 A  
HETATM   28  N   UNL     1      -7.821  15.822  66.670  1.00  0.00    -0.214 NA 
HETATM   29  C   UNL     1      -6.097  18.372  68.404  1.00  0.00    -0.193 A  
HETATM   30  C   UNL     1      -5.984  19.388  67.398  1.00  0.00    -0.196 A  
HETATM   31  C   UNL     1      -6.473  15.656  68.580  1.00  0.00    -0.107 C  
HETATM   32  C   UNL     1      -6.026  18.817  69.744  1.00  0.00    -0.272 A  
HETATM   33  C   UNL     1      -6.902  17.929  65.736  1.00  0.00    -0.251 A  
HETATM   34  C   UNL     1      -6.813  15.610  70.064  1.00  0.00     0.013 C  
HETATM   35  C   UNL     1      -5.156  14.873  68.349  1.00  0.00    -0.107 C  
HETATM   36  C   UNL     1      -5.896  20.183  70.054  1.00  0.00    -0.371 A  
HETATM   37  C   UNL     1      -6.267  19.113  66.061  1.00  0.00    -0.209 A  
BRANCH  28  38
HETATM   38  C   UNL     1      -9.085  15.847  65.885  1.00  0.00    -0.269 C  
BRANCH  38  39
HETATM   39  C   UNL     1     -10.265  15.778  66.878  1.00  0.00    -0.280 C  
BRANCH  39  40
HETATM   40  C   UNL     1     -11.337  14.746  66.508  1.00  0.00    -0.344 C  
BRANCH  40  41
HETATM   41  C   UNL     1     -10.903  13.818  65.394  1.00  0.00    -0.312 C  
HETATM   42  O   UNL     1     -13.123  12.481  65.027  1.00  0.00    -0.765 OA 
HETATM   43  O   UNL     1     -12.663  14.531  63.582  1.00  0.00    -0.754 OA 
HETATM   44  S   UNL     1     -12.220  13.357  64.309  1.00  0.00    -0.372 S  
HETATM   45  O   UNL     1     -11.368  12.435  63.334  1.00  0.00    -0.452 OA 
ENDBRANCH  40  41
ENDBRANCH  39  40
ENDBRANCH  38  39
ENDBRANCH  28  38
ENDBRANCH  20  21
ENDBRANCH  18  19
ENDBRANCH   5  17
BRANCH   6  46
HETATM   46  C   UNL     1      -8.705   3.379  69.163  1.00  0.00    -0.090 C  
BRANCH  46  47
HETATM   47  C   UNL     1      -8.044   2.326  70.041  1.00  0.00    -0.057 C  
BRANCH  47  48
HETATM   48  C   UNL     1      -8.930   1.721  71.109  1.00  0.00    -0.129 C  
BRANCH  48  49
HETATM   49  C   UNL     1      -8.728   2.390  72.468  1.00  0.00    -0.066 C  
HETATM   50  O   UNL     1     -10.543   4.311  72.332  1.00  0.00    -0.163 OA 
HETATM   51  O   UNL     1      -9.618   3.616  74.504  1.00  0.00    -0.103 OA 
HETATM   52  O   UNL     1     -11.187   2.058  73.366  1.00  0.00    -0.176 OA 
HETATM   53  S   UNL     1     -10.248   3.108  73.079  1.00  0.00    -0.160 S  
ENDBRANCH  48  49
ENDBRANCH  47  48
ENDBRANCH  46  47
ENDBRANCH   6  46
TORSDOF 11
ENDMDL
MODEL        4
REMARK 921   NORMALIZED FREE ENERGY PREDICTED BY IDOCK:   -5.56 KCAL/MOL
REMARK 922        TOTAL FREE ENERGY PREDICTED BY IDOCK:  -13.56 KCAL/MOL
REMARK 923 INTER-LIGAND FREE ENERGY PREDICTED BY IDOCK:  -10.56 KCAL/MOL
REMARK 924 INTRA-LIGAND FREE ENERGY PREDICTED BY IDOCK:   -3.00 KCAL/MOL
REMARK 927      BINDING AFFINITY PREDICTED BY RF-SCORE:    0.00 PKD
ROOT
HETATM    1  C   UNL     1      -5.986   6.283  66.097  1.00  0.00    -0.029 C  
HETATM    2  C   UNL     1      -7.123   5.528  66.790  1.00  0.00    -0.070 C  
HETATM    3  C   UNL     1      -7.343   5.155  68.272  1.00  0.00    -0.071 C  
HETATM    4  C   UNL     1      -6.381   4.029  66.756  1.00  0.00    -0.036 C  
HETATM    5  C   UNL     1      -6.804   6.017  69.188  1.00  0.00    -0.062 C  
HETATM    6  N   UNL     1      -8.637   4.418  68.234  1.00  0.00    -0.093 NA 
HETATM    7  C   UNL     1     -11.002   7.147  68.306  1.00  0.00    -0.092 A  
HETATM    8  C   UNL     1     -10.562   5.871  68.462  1.00  0.00    -0.317 A  
HETATM    9  C   UNL     1      -9.421   5.533  67.777  1.00  0.00    -0.116 A  
HETATM   10  C   UNL     1      -9.503   9.889  65.626  1.00  0.00    -0.295 A  
HETATM   11  C   UNL     1      -8.668   6.271  66.792  1.00  0.00    -0.117 A  
HETATM   12  C   UNL     1     -10.490  10.239  66.546  1.00  0.00    -0.241 A  
HETATM   13  C   UNL     1      -9.224   7.602  66.574  1.00  0.00    -0.220 A  
HETATM   14  C   UNL     1     -10.361   8.002  67.418  1.00  0.00    -0.354 A  
HETATM   15  C   UNL     1     -10.906   9.287  67.445  1.00  0.00    -0.165 A  
HETATM   16  C   UNL     1      -8.867   8.617  65.657  1.00  0.00    -0.227 A  
ENDROOT
BRANCH   5  17
HETATM   17  C   UNL     1      -7.145   7.469  69.320  1.00  0.00    -0.077 C  
HETATM   18  C   UNL     1      -6.535   8.495  68.704  1.00  0.00    -0.054 C  
BRANCH  18  19
HETATM   19  C   UNL     1      -6.978   9.892  68.676  1.00  0.00    -0.062 C  
HETATM   20  C   UNL     1      -6.525  10.918  69.423  1.00  0.00    -0.086 C  
BRANCH  20  21
HETATM   21  C   UNL     1      -7.135  12.250  69.453  1.00  0.00     0.133 C  
HETATM   22  C   UNL     1      -8.525  13.983  68.127  1.00  0.00    -0.172 C  
HETATM   23  C   UNL     1     -10.164  20.238  67.052  1.00  0.00    -0.503 A  
HETATM   24  C   UNL     1      -9.707  15.324  66.803  1.00  0.00    -0.236 A  
HETATM   25  C   UNL     1      -7.969  12.639  68.475  1.00  0.00    -0.093 C  
HETATM   26  C   UNL     1      -8.795  16.212  67.359  1.00  0.00    -0.199 A  
HETATM   27  C   UNL     1     -10.511  19.282  66.109  1.00  0.00    -0.577 A  
HETATM   28  N   UNL     1      -9.632  14.088  67.452  1.00  0.00    -0.222 NA 
HETATM   29  C   UNL     1      -9.141  17.582  67.270  1.00  0.00    -0.240 A  
HETATM   30  C   UNL     1     -10.086  17.959  66.259  1.00  0.00    -0.351 A  
HETATM   31  C   UNL     1      -7.766  15.351  68.097  1.00  0.00    -0.126 C  
HETATM   32  C   UNL     1      -8.760  18.600  68.172  1.00  0.00    -0.336 A  
HETATM   33  C   UNL     1     -10.612  15.667  65.809  1.00  0.00    -0.374 A  
HETATM   34  C   UNL     1      -7.325  15.895  69.450  1.00  0.00    -0.217 C  
HETATM   35  C   UNL     1      -6.507  15.093  67.233  1.00  0.00     0.092 C  
HETATM   36  C   UNL     1      -9.317  19.889  68.096  1.00  0.00    -0.406 A  
HETATM   37  C   UNL     1     -10.710  17.001  65.461  1.00  0.00    -0.146 A  
BRANCH  28  38
HETATM   38  C   UNL     1     -10.865  13.275  67.637  1.00  0.00    -0.258 C  
BRANCH  38  39
HETATM   39  C   UNL     1     -11.909  14.151  68.360  1.00  0.00    -0.388 C  
BRANCH  39  40
HETATM   40  C   UNL     1     -11.580  14.438  69.830  1.00  0.00    -0.352 C  
BRANCH  40  41
HETATM   41  C   UNL     1     -12.654  15.243  70.529  1.00  0.00    -0.399 C  
HETATM   42  O   UNL     1     -13.750  13.367  71.988  1.00  0.00    -0.447 OA 
HETATM   43  O   UNL     1     -11.915  14.813  73.010  1.00  0.00    -0.229 OA 
HETATM   44  S   UNL     1     -13.058  14.632  72.137  1.00  0.00    -0.378 S  
HETATM   45  O   UNL     1     -14.162  15.717  72.497  1.00  0.00    -0.557 OA 
ENDBRANCH  40  41
ENDBRANCH  39  40
ENDBRANCH  38  39
ENDBRANCH  28  38
ENDBRANCH  20  21
ENDBRANCH  18  19
ENDBRANCH   5  17
BRANCH   6  46
HETATM   46  C   UNL     1      -9.133   3.523  67.006  1.00  0.00    -0.168 C  
BRANCH  46  47
HETATM   47  C   UNL     1      -8.855   2.030  66.912  1.00  0.00    -0.143 C  
BRANCH  47  48
HETATM   48  C   UNL     1      -8.688   1.486  65.509  1.00  0.00    -0.114 C  
BRANCH  48  49
HETATM   49  C   UNL     1      -9.699   2.089  64.536  1.00  0.00    -0.012 C  
HETATM   50  O   UNL     1      -8.399   4.267  63.781  1.00  0.00    -0.092 OA 
HETATM   51  O   UNL     1     -10.267   3.396  62.436  1.00  0.00    -0.111 OA 
HETATM   52  O   UNL     1      -8.133   2.119  62.412  1.00  0.00    -0.060 OA 
HETATM   53  S   UNL     1      -8.889   3.019  63.240  1.00  0.00    -0.092 S  
ENDBRANCH  48  49
ENDBRANCH  47  48
ENDBRANCH  46  47
ENDBRANCH   6  46
TORSDOF 11
ENDMDL
MODEL        5
REMARK 921   NORMALIZED FREE ENERGY PREDICTED BY IDOCK:   -5.29 KCAL/MOL
REMARK 922        TOTAL FREE ENERGY PREDICTED BY IDOCK:  -13.11 KCAL/MOL
REMARK 923 INTER-LIGAND FREE ENERGY PREDICTED BY IDOCK:   -9.83 KCAL/MOL
REMARK 924 INTRA-LIGAND FREE ENERGY PREDICTED BY IDOCK:   -3.28 KCAL/MOL
REMARK 927      BINDING AFFINITY PREDICTED BY RF-SCORE:    0.00 PKD
ROOT
HETATM    1  C   UNL     1     -10.932   5.837  66.586  1.00  0.00    -0.208 C  
HETATM    2  C   UNL     1      -9.788   5.151  67.339  1.00  0.00    -0.193 C  
HETATM    3  C   UNL     1      -8.257   5.242  67.166  1.00  0.00    -0.108 C  
HETATM    4  C   UNL     1      -9.610   3.882  66.264  1.00  0.00    -0.198 C  
HETATM    5  C   UNL     1      -7.782   6.435  66.695  1.00  0.00    -0.099 C  
HETATM    6  N   UNL     1      -7.755   4.309  68.214  1.00  0.00    -0.074 NA 
HETATM    7  C   UNL     1      -7.807   6.438  71.132  1.00  0.00    -0.114 A  
HETATM    8  C   UNL     1      -7.433   5.383  70.362  1.00  0.00    -0.075 A  
HETATM    9  C   UNL     1      -8.275   5.056  69.328  1.00  0.00    -0.083 A  
HETATM   10  C   UNL     1     -11.423   8.396  70.922  1.00  0.00    -0.295 A  
HETATM   11  C   UNL     1      -9.584   5.562  68.991  1.00  0.00    -0.180 A  
HETATM   12  C   UNL     1     -10.407   8.839  71.767  1.00  0.00    -0.413 A  
HETATM   13  C   UNL     1     -10.000   6.627  69.896  1.00  0.00    -0.188 A  
HETATM   14  C   UNL     1      -9.029   7.064  70.911  1.00  0.00    -0.152 A  
HETATM   15  C   UNL     1      -9.208   8.168  71.748  1.00  0.00    -0.232 A  
HETATM   16  C   UNL     1     -11.217   7.340  69.992  1.00  0.00    -0.234 A  
ENDROOT
BRANCH   5  17
HETATM   17  C   UNL     1      -7.962   7.765  67.360  1.00  0.00    -0.119 C  
HETATM   18  C   UNL     1      -7.050   8.423  68.096  1.00  0.00    -0.085 C  
BRANCH  18  19
HETATM   19  C   UNL     1      -7.146   9.800  68.588  1.00  0.00    -0.071 C  
HETATM   20  C   UNL     1      -8.015  10.755  68.205  1.00  0.00    -0.114 C  
BRANCH  20  21
HETATM   21  C   UNL     1      -7.939  12.157  68.625  1.00  0.00    -0.063 C  
HETATM   22  C   UNL     1      -7.710  14.607  67.827  1.00  0.00    -0.157 C  
HETATM   23  C   UNL     1      -5.848  20.771  69.057  1.00  0.00    -0.377 A  
HETATM   24  C   UNL     1      -7.487  16.627  66.921  1.00  0.00    -0.228 A  
HETATM   25  C   UNL     1      -8.000  13.145  67.717  1.00  0.00    -0.162 C  
HETATM   26  C   UNL     1      -6.629  16.712  68.011  1.00  0.00    -0.146 A  
HETATM   27  C   UNL     1      -6.118  20.400  67.748  1.00  0.00    -0.278 A  
HETATM   28  N   UNL     1      -8.243  15.453  66.994  1.00  0.00    -0.218 NA 
HETATM   29  C   UNL     1      -6.276  18.023  68.411  1.00  0.00    -0.190 A  
HETATM   30  C   UNL     1      -6.416  19.070  67.441  1.00  0.00    -0.202 A  
HETATM   31  C   UNL     1      -6.511  15.290  68.565  1.00  0.00    -0.092 C  
HETATM   32  C   UNL     1      -5.935  18.433  69.719  1.00  0.00    -0.243 A  
HETATM   33  C   UNL     1      -7.618  17.620  65.962  1.00  0.00    -0.256 A  
HETATM   34  C   UNL     1      -6.523  15.189  70.085  1.00  0.00    -0.115 C  
HETATM   35  C   UNL     1      -5.248  14.568  68.031  1.00  0.00    -0.105 C  
HETATM   36  C   UNL     1      -5.787  19.794  70.043  1.00  0.00    -0.320 A  
HETATM   37  C   UNL     1      -6.970  18.820  66.185  1.00  0.00    -0.285 A  
BRANCH  28  38
HETATM   38  C   UNL     1      -9.646  15.447  66.499  1.00  0.00    -0.275 C  
BRANCH  38  39
HETATM   39  C   UNL     1     -10.506  16.260  67.489  1.00  0.00    -0.302 C  
BRANCH  39  40
HETATM   40  C   UNL     1     -11.772  15.538  67.962  1.00  0.00    -0.198 C  
BRANCH  40  41
HETATM   41  C   UNL     1     -11.539  14.679  69.186  1.00  0.00    -0.301 C  
HETATM   42  O   UNL     1     -11.339  16.541  71.015  1.00  0.00    -0.307 OA 
HETATM   43  O   UNL     1     -13.607  15.450  70.606  1.00  0.00    -0.341 OA 
HETATM   44  S   UNL     1     -12.160  15.396  70.677  1.00  0.00    -0.404 S  
HETATM   45  O   UNL     1     -11.733  14.223  71.662  1.00  0.00    -0.130 OA 
ENDBRANCH  40  41
ENDBRANCH  39  40
ENDBRANCH  38  39
ENDBRANCH  28  38
ENDBRANCH  20  21
ENDBRANCH  18  19
ENDBRANCH   5  17
BRANCH   6  46
HETATM   46  C   UNL     1      -8.522   2.993  68.697  1.00  0.00    -0.068 C  
BRANCH  46  47
HETATM   47  C   UNL     1      -8.099   2.198  69.923  1.00  0.00    -0.057 C  
BRANCH  47  48
HETATM   48  C   UNL     1      -9.223   1.783  70.849  1.00  0.00    -0.168 C  
BRANCH  48  49
HETATM   49  C   UNL     1      -8.919   2.117  72.307  1.00  0.00    -0.070 C  
HETATM   50  O   UNL     1     -10.258   4.385  72.569  1.00  0.00    -0.171 OA 
HETATM   51  O   UNL     1      -9.576   3.099  74.554  1.00  0.00    -0.090 OA 
HETATM   52  O   UNL     1     -11.416   2.177  73.158  1.00  0.00    -0.122 OA 
HETATM   53  S   UNL     1     -10.260   3.026  73.066  1.00  0.00    -0.156 S  
ENDBRANCH  48  49
ENDBRANCH  47  48
ENDBRANCH  46  47
ENDBRANCH   6  46
TORSDOF 11
ENDMDL
MODEL        6
REMARK 921   NORMALIZED FREE ENERGY PREDICTED BY IDOCK:   -5.23 KCAL/MOL
REMARK 922        TOTAL FREE ENERGY PREDICTED BY IDOCK:  -13.02 KCAL/MOL
REMARK 923 INTER-LIGAND FREE ENERGY PREDICTED BY IDOCK:   -9.91 KCAL/MOL
REMARK 924 INTRA-LIGAND FREE ENERGY PREDICTED BY IDOCK:   -3.11 KCAL/MOL
REMARK 927      BINDING AFFINITY PREDICTED BY RF-SCORE:    0.00 PKD
ROOT
HETATM    1  C   UNL     1     -12.417  14.419  69.718  1.00  0.00    -0.262 C  
HETATM    2  C   UNL     1     -11.446  15.405  69.059  1.00  0.00    -0.349 C  
HETATM    3  C   UNL     1      -9.907  15.509  69.116  1.00  0.00    -0.246 C  
HETATM    4  C   UNL     1     -11.341  16.443  70.367  1.00  0.00    -0.209 C  
HETATM    5  C   UNL     1      -9.238  14.329  69.293  1.00  0.00     0.252 C  
HETATM    6  N   UNL     1      -9.630  16.698  68.262  1.00  0.00    -0.227 NA 
HETATM    7  C   UNL     1      -9.662  15.217  64.967  1.00  0.00     0.124 A  
HETATM    8  C   UNL     1      -9.363  16.139  65.919  1.00  0.00    -0.316 A  
HETATM    9  C   UNL     1     -10.144  16.122  67.048  1.00  0.00    -0.270 A  
HETATM   10  C   UNL     1     -12.953  12.743  64.974  1.00  0.00    -0.122 A  
HETATM   11  C   UNL     1     -11.339  15.371  67.348  1.00  0.00    -0.243 A  
HETATM   12  C   UNL     1     -11.967  12.636  63.994  1.00  0.00    -0.530 A  
HETATM   13  C   UNL     1     -11.690  14.461  66.264  1.00  0.00    -0.394 A  
HETATM   14  C   UNL     1     -10.765  14.386  65.123  1.00  0.00    -0.413 A  
HETATM   15  C   UNL     1     -10.870  13.460  64.084  1.00  0.00    -0.313 A  
HETATM   16  C   UNL     1     -12.806  13.608  66.093  1.00  0.00    -0.143 A  
ENDROOT
BRANCH   5  17
HETATM   17  C   UNL     1      -9.299  13.149  68.374  1.00  0.00    -0.154 C  
HETATM   18  C   UNL     1      -8.407  12.829  67.420  1.00  0.00    -0.189 C  
BRANCH  18  19
HETATM   19  C   UNL     1      -8.355  11.584  66.649  1.00  0.00    -0.167 C  
HETATM   20  C   UNL     1      -9.388  10.826  66.233  1.00  0.00    -0.205 C  
BRANCH  20  21
HETATM   21  C   UNL     1      -9.245   9.507  65.610  1.00  0.00    -0.281 C  
HETATM   22  C   UNL     1      -8.397   7.084  65.929  1.00  0.00    -0.141 C  
HETATM   23  C   UNL     1      -6.145   1.522  63.290  1.00  0.00    -0.009 A  
HETATM   24  C   UNL     1      -7.581   5.072  66.414  1.00  0.00    -0.088 A  
HETATM   25  C   UNL     1      -8.850   8.449  66.336  1.00  0.00    -0.181 C  
HETATM   26  C   UNL     1      -7.134   5.248  65.110  1.00  0.00    -0.065 A  
HETATM   27  C   UNL     1      -6.015   1.718  64.657  1.00  0.00    -0.013 A  
HETATM   28  N   UNL     1      -8.486   6.083  66.753  1.00  0.00    -0.109 NA 
HETATM   29  C   UNL     1      -6.742   4.070  64.432  1.00  0.00    -0.044 A  
HETATM   30  C   UNL     1      -6.390   2.933  65.233  1.00  0.00    -0.027 A  
HETATM   31  C   UNL     1      -7.424   6.711  64.761  1.00  0.00    -0.095 C  
HETATM   32  C   UNL     1      -6.799   3.850  63.038  1.00  0.00    -0.036 A  
HETATM   33  C   UNL     1      -7.233   3.991  67.210  1.00  0.00    -0.068 A  
HETATM   34  C   UNL     1      -7.959   6.942  63.353  1.00  0.00    -0.069 C  
HETATM   35  C   UNL     1      -6.180   7.610  64.972  1.00  0.00    -0.038 C  
HETATM   36  C   UNL     1      -6.565   2.576  62.489  1.00  0.00    -0.018 A  
HETATM   37  C   UNL     1      -6.523   2.961  66.621  1.00  0.00    -0.036 A  
BRANCH  28  38
HETATM   38  C   UNL     1      -9.627   5.777  67.659  1.00  0.00    -0.114 C  
BRANCH  38  39
HETATM   39  C   UNL     1      -9.428   6.577  68.963  1.00  0.00    -0.130 C  
BRANCH  39  40
HETATM   40  C   UNL     1     -10.734   6.949  69.677  1.00  0.00    -0.276 C  
BRANCH  40  41
HETATM   41  C   UNL     1     -10.654   6.776  71.178  1.00  0.00    -0.224 C  
HETATM   42  O   UNL     1      -9.115   8.803  71.788  1.00  0.00    -0.234 OA 
HETATM   43  O   UNL     1     -11.646   9.099  71.893  1.00  0.00    -0.358 OA 
HETATM   44  S   UNL     1     -10.447   8.299  72.052  1.00  0.00    -0.307 S  
HETATM   45  O   UNL     1     -10.421   7.690  73.520  1.00  0.00    -0.343 OA 
ENDBRANCH  40  41
ENDBRANCH  39  40
ENDBRANCH  38  39
ENDBRANCH  28  38
ENDBRANCH  20  21
ENDBRANCH  18  19
ENDBRANCH   5  17
BRANCH   6  46
HETATM   46  C   UNL     1     -10.605  17.956  68.118  1.00  0.00    -0.340 C  
BRANCH  46  47
HETATM   47  C   UNL     1     -10.125  19.390  68.284  1.00  0.00    -0.531 C  
BRANCH  47  48
HETATM   48  C   UNL     1      -8.644  19.554  68.551  1.00  0.00    -0.379 C  
BRANCH  48  49
HETATM   49  C   UNL     1      -7.804  19.317  67.298  1.00  0.00    -0.254 C  
HETATM   50  O   UNL     1      -5.480  20.310  68.082  1.00  0.00    -0.199 OA 
HETATM   51  O   UNL     1      -5.601  18.779  66.158  1.00  0.00    -0.149 OA 
HETATM   52  O   UNL     1      -5.949  17.815  68.424  1.00  0.00    -0.167 OA 
HETATM   53  S   UNL     1      -6.082  19.050  67.701  1.00  0.00    -0.211 S  
ENDBRANCH  48  49
ENDBRANCH  47  48
ENDBRANCH  46  47
ENDBRANCH   6  46
TORSDOF 11
ENDMDL
MODEL        7
REMARK 921   NORMALIZED FREE ENERGY PREDICTED BY IDOCK:   -5.21 KCAL/MOL
REMARK 922        TOTAL FREE ENERGY PREDICTED BY IDOCK:  -12.98 KCAL/MOL
REMARK 923 INTER-LIGAND FREE ENERGY PREDICTED BY IDOCK:   -9.44 KCAL/MOL
REMARK 924 INTRA-LIGAND FREE ENERGY PREDICTED BY IDOCK:   -3.55 KCAL/MOL
REMARK 927      BINDING AFFINITY PREDICTED BY RF-SCORE:    0.00 PKD
ROOT
HETATM    1  C   UNL     1      -8.423   5.613  66.376  1.00  0.00    -0.121 C  
HETATM    2  C   UNL     1      -7.894   5.091  67.715  1.00  0.00    -0.091 C  
HETATM    3  C   UNL     1      -6.479   5.119  68.331  1.00  0.00    -0.040 C  
HETATM    4  C   UNL     1      -7.367   3.616  67.128  1.00  0.00    -0.064 C  
HETATM    5  C   UNL     1      -5.691   6.174  67.961  1.00  0.00    -0.009 C  
HETATM    6  N   UNL     1      -6.679   4.430  69.636  1.00  0.00    -0.036 NA 
HETATM    7  C   UNL     1      -7.900   7.144  71.684  1.00  0.00    -0.097 A  
HETATM    8  C   UNL     1      -7.329   5.941  71.416  1.00  0.00    -0.084 A  
HETATM    9  C   UNL     1      -7.584   5.409  70.176  1.00  0.00    -0.073 A  
HETATM   10  C   UNL     1     -10.669   9.063  69.317  1.00  0.00    -0.189 A  
HETATM   11  C   UNL     1      -8.483   5.849  69.136  1.00  0.00    -0.112 A  
HETATM   12  C   UNL     1     -10.156   9.664  70.466  1.00  0.00    -0.338 A  
HETATM   13  C   UNL     1      -9.156   7.091  69.495  1.00  0.00    -0.146 A  
HETATM   14  C   UNL     1      -8.766   7.725  70.765  1.00  0.00    -0.134 A  
HETATM   15  C   UNL     1      -9.197   8.986  71.180  1.00  0.00    -0.326 A  
HETATM   16  C   UNL     1     -10.163   7.827  68.828  1.00  0.00    -0.212 A  
ENDROOT
BRANCH   5  17
HETATM   17  C   UNL     1      -6.010   7.619  68.189  1.00  0.00    -0.039 C  
HETATM   18  C   UNL     1      -6.439   8.500  67.270  1.00  0.00    -0.058 C  
BRANCH  18  19
HETATM   19  C   UNL     1      -6.934   9.858  67.518  1.00  0.00    -0.083 C  
HETATM   20  C   UNL     1      -7.171  10.446  68.706  1.00  0.00    -0.085 C  
BRANCH  20  21
HETATM   21  C   UNL     1      -7.823  11.749  68.866  1.00  0.00    -0.013 C  
HETATM   22  C   UNL     1      -8.999  13.703  67.646  1.00  0.00    -0.202 C  
HETATM   23  C   UNL     1     -10.627  20.051  67.463  1.00  0.00    -0.429 A  
HETATM   24  C   UNL     1      -9.956  15.273  66.393  1.00  0.00    -0.275 A  
HETATM   25  C   UNL     1      -8.471  12.318  67.837  1.00  0.00    -0.165 C  
HETATM   26  C   UNL     1      -9.198  16.039  67.270  1.00  0.00    -0.215 A  
HETATM   27  C   UNL     1     -10.755  19.291  66.310  1.00  0.00    -0.477 A  
HETATM   28  N   UNL     1      -9.961  13.936  66.803  1.00  0.00    -0.263 NA 
HETATM   29  C   UNL     1      -9.569  17.400  67.373  1.00  0.00    -0.257 A  
HETATM   30  C   UNL     1     -10.319  17.964  66.288  1.00  0.00    -0.364 A  
HETATM   31  C   UNL     1      -8.297  15.052  68.018  1.00  0.00    -0.148 C  
HETATM   32  C   UNL     1      -9.402  18.228  68.506  1.00  0.00    -0.334 A  
HETATM   33  C   UNL     1     -10.670  15.799  65.327  1.00  0.00    -0.446 A  
HETATM   34  C   UNL     1      -8.139  15.329  69.508  1.00  0.00    -0.196 C  
HETATM   35  C   UNL     1      -6.888  14.961  67.379  1.00  0.00    -0.121 C  
HETATM   36  C   UNL     1      -9.980  19.509  68.566  1.00  0.00    -0.538 A  
HETATM   37  C   UNL     1     -10.747  17.175  65.221  1.00  0.00    -0.067 A  
BRANCH  28  38
HETATM   38  C   UNL     1     -11.177  13.104  66.592  1.00  0.00    -0.304 C  
BRANCH  38  39
HETATM   39  C   UNL     1     -10.738  11.765  65.963  1.00  0.00    -0.324 C  
BRANCH  39  40
HETATM   40  C   UNL     1      -9.663  11.904  64.879  1.00  0.00    -0.158 C  
BRANCH  40  41
HETATM   41  C   UNL     1      -9.856  10.936  63.731  1.00  0.00    -0.337 C  
HETATM   42  O   UNL     1      -7.360  10.352  63.205  1.00  0.00    -0.136 OA 
HETATM   43  O   UNL     1      -8.677   8.840  64.781  1.00  0.00    -0.173 OA 
HETATM   44  S   UNL     1      -8.590   9.709  63.624  1.00  0.00    -0.223 S  
HETATM   45  O   UNL     1      -9.157   8.939  62.354  1.00  0.00    -0.142 OA 
ENDBRANCH  40  41
ENDBRANCH  39  40
ENDBRANCH  38  39
ENDBRANCH  28  38
ENDBRANCH  20  21
ENDBRANCH  18  19
ENDBRANCH   5  17
BRANCH   6  46
HETATM   46  C   UNL     1      -7.740   3.261  69.890  1.00  0.00    -0.043 C  
BRANCH  46  47
HETATM   47  C   UNL     1      -7.461   2.086  70.815  1.00  0.00    -0.033 C  
BRANCH  47  48
HETATM   48  C   UNL     1      -8.639   1.617  71.643  1.00  0.00    -0.077 C  
BRANCH  48  49
HETATM   49  C   UNL     1      -8.765   2.393  72.952  1.00  0.00    -0.070 C  
HETATM   50  O   UNL     1     -10.195   4.469  72.143  1.00  0.00    -0.188 OA 
HETATM   51  O   UNL     1     -10.055   3.902  74.534  1.00  0.00    -0.152 OA 
HETATM   52  O   UNL     1     -11.402   2.409  73.071  1.00  0.00    -0.067 OA 
HETATM   53  S   UNL     1     -10.293   3.322  73.020  1.00  0.00    -0.164 S  
ENDBRANCH  48  49
ENDBRANCH  47  48
ENDBRANCH  46  47
ENDBRANCH   6  46
TORSDOF 11
ENDMDL
MODEL        8
REMARK 921   NORMALIZED FREE ENERGY PREDICTED BY IDOCK:   -4.50 KCAL/MOL
REMARK 922        TOTAL FREE ENERGY PREDICTED BY IDOCK:  -11.82 KCAL/MOL
REMARK 923 INTER-LIGAND FREE ENERGY PREDICTED BY IDOCK:   -9.71 KCAL/MOL
REMARK 924 INTRA-LIGAND FREE ENERGY PREDICTED BY IDOCK:   -2.11 KCAL/MOL
REMARK 927      BINDING AFFINITY PREDICTED BY RF-SCORE:    0.00 PKD
ROOT
HETATM    1  C   UNL     1      -5.747   6.611  66.080  1.00  0.00    -0.025 C  
HETATM    2  C   UNL     1      -6.751   5.817  66.921  1.00  0.00    -0.058 C  
HETATM    3  C   UNL     1      -6.788   5.502  68.432  1.00  0.00    -0.059 C  
HETATM    4  C   UNL     1      -5.914   4.370  66.867  1.00  0.00    -0.024 C  
HETATM    5  C   UNL     1      -6.218   6.439  69.248  1.00  0.00    -0.034 C  
HETATM    6  N   UNL     1      -8.025   4.681  68.562  1.00  0.00    -0.080 NA 
HETATM    7  C   UNL     1     -10.554   7.252  68.777  1.00  0.00    -0.202 A  
HETATM    8  C   UNL     1     -10.012   6.016  68.936  1.00  0.00    -0.192 A  
HETATM    9  C   UNL     1      -8.929   5.721  68.147  1.00  0.00    -0.114 A  
HETATM   10  C   UNL     1      -9.536   9.955  65.843  1.00  0.00    -0.272 A  
HETATM   11  C   UNL     1      -8.335   6.459  67.058  1.00  0.00    -0.112 A  
HETATM   12  C   UNL     1     -10.443  10.284  66.849  1.00  0.00    -0.291 A  
HETATM   13  C   UNL     1      -9.002   7.738  66.848  1.00  0.00    -0.153 A  
HETATM   14  C   UNL     1     -10.069   8.104  67.792  1.00  0.00    -0.260 A  
HETATM   15  C   UNL     1     -10.696   9.351  67.826  1.00  0.00    -0.290 A  
HETATM   16  C   UNL     1      -8.813   8.730  65.857  1.00  0.00    -0.222 A  
ENDROOT
BRANCH   5  17
HETATM   17  C   UNL     1      -6.643   7.871  69.358  1.00  0.00    -0.035 C  
HETATM   18  C   UNL     1      -6.169   8.905  68.642  1.00  0.00    -0.046 C  
BRANCH  18  19
HETATM   19  C   UNL     1      -6.708  10.267  68.605  1.00  0.00    -0.053 C  
HETATM   20  C   UNL     1      -6.324  11.328  69.342  1.00  0.00    -0.092 C  
BRANCH  20  21
HETATM   21  C   UNL     1      -7.025  12.615  69.364  1.00  0.00     0.108 C  
HETATM   22  C   UNL     1      -8.428  14.296  67.988  1.00  0.00    -0.164 C  
HETATM   23  C   UNL     1     -10.409  20.462  66.972  1.00  0.00    -0.317 A  
HETATM   24  C   UNL     1      -9.599  15.600  66.617  1.00  0.00    -0.248 A  
HETATM   25  C   UNL     1      -7.809  12.982  68.337  1.00  0.00    -0.134 C  
HETATM   26  C   UNL     1      -8.793  16.528  67.266  1.00  0.00    -0.206 A  
HETATM   27  C   UNL     1     -10.619  19.517  65.979  1.00  0.00    -0.589 A  
HETATM   28  N   UNL     1      -9.487  14.350  67.234  1.00  0.00    -0.209 NA 
HETATM   29  C   UNL     1      -9.225  17.873  67.190  1.00  0.00    -0.258 A  
HETATM   30  C   UNL     1     -10.117  18.222  66.122  1.00  0.00    -0.354 A  
HETATM   31  C   UNL     1      -7.765  15.712  68.055  1.00  0.00    -0.133 C  
HETATM   32  C   UNL     1      -8.983  18.883  68.148  1.00  0.00    -0.346 A  
HETATM   33  C   UNL     1     -10.450  15.916  65.568  1.00  0.00    -0.425 A  
HETATM   34  C   UNL     1      -7.463  16.238  69.452  1.00  0.00    -0.152 C  
HETATM   35  C   UNL     1      -6.431  15.567  67.281  1.00  0.00    -0.049 C  
HETATM   36  C   UNL     1      -9.619  20.135  68.067  1.00  0.00    -0.427 A  
HETATM   37  C   UNL     1     -10.613  17.251  65.252  1.00  0.00    -0.002 A  
BRANCH  28  38
HETATM   38  C   UNL     1     -10.672  13.452  67.301  1.00  0.00    -0.260 C  
BRANCH  38  39
HETATM   39  C   UNL     1     -11.816  14.222  67.995  1.00  0.00    -0.379 C  
BRANCH  39  40
HETATM   40  C   UNL     1     -11.785  14.149  69.526  1.00  0.00    -0.364 C  
BRANCH  40  41
HETATM   41  C   UNL     1     -12.560  15.269  70.185  1.00  0.00    -0.296 C  
HETATM   42  O   UNL     1     -13.983  13.890  71.895  1.00  0.00    -0.422 OA 
HETATM   43  O   UNL     1     -11.766  14.892  72.658  1.00  0.00    -0.295 OA 
HETATM   44  S   UNL     1     -12.981  14.937  71.869  1.00  0.00    -0.361 S  
HETATM   45  O   UNL     1     -13.740  16.302  72.163  1.00  0.00     0.042 OA 
ENDBRANCH  40  41
ENDBRANCH  39  40
ENDBRANCH  38  39
ENDBRANCH  28  38
ENDBRANCH  20  21
ENDBRANCH  18  19
ENDBRANCH   5  17
BRANCH   6  46
HETATM   46  C   UNL     1      -8.583   3.699  67.432  1.00  0.00    -0.104 C  
BRANCH  46  47
HETATM   47  C   UNL     1      -9.124   2.311  67.743  1.00  0.00    -0.216 C  
BRANCH  47  48
HETATM   48  C   UNL     1      -9.531   2.080  69.182  1.00  0.00    -0.147 C  
BRANCH  48  49
HETATM   49  C   UNL     1      -8.647   2.851  70.160  1.00  0.00    -0.061 C  
HETATM   50  O   UNL     1     -10.491   4.023  71.653  1.00  0.00    -0.019 OA 
HETATM   51  O   UNL     1      -8.178   3.808  72.464  1.00  0.00    -0.086 OA 
HETATM   52  O   UNL     1      -9.566   1.746  72.374  1.00  0.00    -0.078 OA 
HETATM   53  S   UNL     1      -9.438   3.037  71.754  1.00  0.00    -0.150 S  
ENDBRANCH  48  49
ENDBRANCH  47  48
ENDBRANCH  46  47
ENDBRANCH   6  46
TORSDOF 11
ENDMDL
MODEL        9
REMARK 921   NORMALIZED FREE ENERGY PREDICTED BY IDOCK:   -4.28 KCAL/MOL
REMARK 922        TOTAL FREE ENERGY PREDICTED BY IDOCK:  -11.45 KCAL/MOL
REMARK 923 INTER-LIGAND FREE ENERGY PREDICTED BY IDOCK:   -8.31 KCAL/MOL
REMARK 924 INTRA-LIGAND FREE ENERGY PREDICTED BY IDOCK:   -3.15 KCAL/MOL
REMARK 927      BINDING AFFINITY PREDICTED BY RF-SCORE:    0.00 PKD
ROOT
HETATM    1  C   UNL     1     -11.295  15.887  66.445  1.00  0.00     0.222 C  
HETATM    2  C   UNL     1     -10.247  16.591  67.313  1.00  0.00    -0.287 C  
HETATM    3  C   UNL     1     -10.279  17.028  68.793  1.00  0.00    -0.317 C  
HETATM    4  C   UNL     1     -10.837  18.138  67.076  1.00  0.00    -0.162 C  
HETATM    5  C   UNL     1     -11.053  16.263  69.622  1.00  0.00    -0.333 C  
HETATM    6  N   UNL     1      -8.942  17.660  68.974  1.00  0.00    -0.105 NA 
HETATM    7  C   UNL     1      -6.877  14.765  69.610  1.00  0.00    -0.173 A  
HETATM    8  C   UNL     1      -7.227  16.078  69.627  1.00  0.00    -0.070 A  
HETATM    9  C   UNL     1      -8.185  16.463  68.722  1.00  0.00    -0.234 A  
HETATM   10  C   UNL     1      -8.077  12.000  66.806  1.00  0.00    -0.081 A  
HETATM   11  C   UNL     1      -8.800  15.731  67.641  1.00  0.00    -0.180 A  
HETATM   12  C   UNL     1      -7.316  11.627  67.912  1.00  0.00    -0.096 A  
HETATM   13  C   UNL     1      -8.331  14.352  67.589  1.00  0.00    -0.186 A  
HETATM   14  C   UNL     1      -7.412  13.913  68.651  1.00  0.00    -0.122 A  
HETATM   15  C   UNL     1      -6.995  12.594  68.835  1.00  0.00    -0.086 A  
HETATM   16  C   UNL     1      -8.596  13.317  66.662  1.00  0.00     0.054 A  
ENDROOT
BRANCH   5  17
HETATM   17  C   UNL     1     -10.870  14.800  69.877  1.00  0.00    -0.185 C  
HETATM   18  C   UNL     1     -11.439  13.790  69.196  1.00  0.00    -0.346 C  
BRANCH  18  19
HETATM   19  C   UNL     1     -11.121  12.364  69.311  1.00  0.00    -0.209 C  
HETATM   20  C   UNL     1     -11.307  11.399  68.389  1.00  0.00    -0.346 C  
BRANCH  20  21
HETATM   21  C   UNL     1     -11.117   9.968  68.642  1.00  0.00    -0.223 C  
HETATM   22  C   UNL     1      -9.382   8.071  68.931  1.00  0.00    -0.150 C  
HETATM   23  C   UNL     1      -7.901   1.698  68.534  1.00  0.00    -0.052 A  
HETATM   24  C   UNL     1      -7.724   6.601  69.125  1.00  0.00    -0.106 A  
HETATM   25  C   UNL     1      -9.891   9.476  68.885  1.00  0.00    -0.179 C  
HETATM   26  C   UNL     1      -8.637   5.893  68.352  1.00  0.00    -0.113 A  
HETATM   27  C   UNL     1      -6.873   2.620  68.662  1.00  0.00    -0.040 A  
HETATM   28  N   UNL     1      -8.308   7.778  69.604  1.00  0.00    -0.127 NA 
HETATM   29  C   UNL     1      -8.450   4.491  68.315  1.00  0.00    -0.099 A  
HETATM   30  C   UNL     1      -7.148   3.989  68.645  1.00  0.00    -0.054 A  
HETATM   31  C   UNL     1      -9.713   6.903  67.944  1.00  0.00    -0.136 C  
HETATM   32  C   UNL     1      -9.458   3.520  68.126  1.00  0.00    -0.215 A  
HETATM   33  C   UNL     1      -6.453   6.140  69.435  1.00  0.00    -0.043 A  
HETATM   34  C   UNL     1     -11.141   6.376  67.995  1.00  0.00    -0.365 C  
HETATM   35  C   UNL     1      -9.450   7.484  66.532  1.00  0.00    -0.237 C  
HETATM   36  C   UNL     1      -9.194   2.149  68.298  1.00  0.00    -0.238 A  
HETATM   37  C   UNL     1      -6.134   4.843  69.078  1.00  0.00    -0.029 A  
BRANCH  28  38
HETATM   38  C   UNL     1      -7.935   8.292  70.949  1.00  0.00    -0.101 C  
BRANCH  38  39
HETATM   39  C   UNL     1      -8.914   7.689  71.979  1.00  0.00    -0.158 C  
BRANCH  39  40
HETATM   40  C   UNL     1      -8.354   6.486  72.748  1.00  0.00    -0.116 C  
BRANCH  40  41
HETATM   41  C   UNL     1      -8.712   5.161  72.110  1.00  0.00    -0.129 C  
HETATM   42  O   UNL     1      -9.543   3.852  74.220  1.00  0.00    -0.102 OA 
HETATM   43  O   UNL     1     -11.250   5.078  72.775  1.00  0.00    -0.251 OA 
HETATM   44  S   UNL     1     -10.027   4.315  72.935  1.00  0.00    -0.154 S  
HETATM   45  O   UNL     1     -10.082   3.044  71.983  1.00  0.00    -0.167 OA 
ENDBRANCH  40  41
ENDBRANCH  39  40
ENDBRANCH  38  39
ENDBRANCH  28  38
ENDBRANCH  20  21
ENDBRANCH  18  19
ENDBRANCH   5  17
BRANCH   6  46
HETATM   46  C   UNL     1      -8.148  18.443  67.829  1.00  0.00    -0.254 C  
BRANCH  46  47
HETATM   47  C   UNL     1      -6.630  18.541  67.802  1.00  0.00    -0.214 C  
BRANCH  47  48
HETATM   48  C   UNL     1      -6.070  19.945  67.718  1.00  0.00    -0.232 C  
BRANCH  48  49
HETATM   49  C   UNL     1      -5.329  20.190  66.405  1.00  0.00    -0.162 C  
HETATM   50  O   UNL     1      -5.985  18.002  65.068  1.00  0.00    -0.073 OA 
HETATM   51  O   UNL     1      -5.134  19.983  63.883  1.00  0.00    -0.155 OA 
HETATM   52  O   UNL     1      -7.436  20.098  64.817  1.00  0.00    -0.118 OA 
HETATM   53  S   UNL     1      -6.177  19.435  65.022  1.00  0.00    -0.273 S  
ENDBRANCH  48  49
ENDBRANCH  47  48
ENDBRANCH  46  47
ENDBRANCH   6  46
TORSDOF 11
ENDMDL
MODEL       10
REMARK 921   NORMALIZED FREE ENERGY PREDICTED BY IDOCK:   -3.43 KCAL/MOL
REMARK 922        TOTAL FREE ENERGY PREDICTED BY IDOCK:  -10.05 KCAL/MOL
REMARK 923 INTER-LIGAND FREE ENERGY PREDICTED BY IDOCK:   -7.59 KCAL/MOL
REMARK 924 INTRA-LIGAND FREE ENERGY PREDICTED BY IDOCK:   -2.46 KCAL/MOL
REMARK 927      BINDING AFFINITY PREDICTED BY RF-SCORE:    0.00 PKD
ROOT
HETATM    1  C   UNL     1     -11.281  15.740  70.340  1.00  0.00    -0.383 C  
HETATM    2  C   UNL     1     -10.625  16.574  69.235  1.00  0.00    -0.327 C  
HETATM    3  C   UNL     1      -9.140  16.833  68.901  1.00  0.00    -0.230 C  
HETATM    4  C   UNL     1     -10.426  17.956  70.158  1.00  0.00     1.171 C  
HETATM    5  C   UNL     1      -8.274  15.825  69.224  1.00  0.00    -0.247 C  
HETATM    6  N   UNL     1      -9.225  17.739  67.721  1.00  0.00    -0.253 NA 
HETATM    7  C   UNL     1      -9.677  15.360  65.041  1.00  0.00     0.165 A  
HETATM    8  C   UNL     1      -9.343  16.544  65.617  1.00  0.00     0.057 A  
HETATM    9  C   UNL     1      -9.874  16.787  66.859  1.00  0.00    -0.266 A  
HETATM   10  C   UNL     1     -12.476  12.703  66.474  1.00  0.00     0.363 A  
HETATM   11  C   UNL     1     -10.854  16.049  67.619  1.00  0.00    -0.311 A  
HETATM   12  C   UNL     1     -11.699  12.404  65.356  1.00  0.00    -0.452 A  
HETATM   13  C   UNL     1     -11.266  14.833  66.929  1.00  0.00    -0.347 A  
HETATM   14  C   UNL     1     -10.585  14.512  65.666  1.00  0.00    -0.343 A  
HETATM   15  C   UNL     1     -10.748  13.316  64.964  1.00  0.00    -0.346 A  
HETATM   16  C   UNL     1     -12.247  13.868  67.257  1.00  0.00    -0.324 A  
ENDROOT
BRANCH   5  17
HETATM   17  C   UNL     1      -8.331  14.426  68.692  1.00  0.00    -0.147 C  
HETATM   18  C   UNL     1      -7.515  13.885  67.772  1.00  0.00    -0.174 C  
BRANCH  18  19
HETATM   19  C   UNL     1      -7.440  12.473  67.387  1.00  0.00    -0.153 C  
HETATM   20  C   UNL     1      -6.366  11.661  67.429  1.00  0.00    -0.100 C  
BRANCH  20  21
HETATM   21  C   UNL     1      -6.333  10.307  66.869  1.00  0.00    -0.069 C  
HETATM   22  C   UNL     1      -7.476   7.986  66.845  1.00  0.00    -0.091 C  
HETATM   23  C   UNL     1      -7.038   1.512  65.917  1.00  0.00    -0.046 A  
HETATM   24  C   UNL     1      -8.602   6.074  66.995  1.00  0.00    -0.107 A  
HETATM   25  C   UNL     1      -7.352   9.458  67.077  1.00  0.00    -0.087 C  
HETATM   26  C   UNL     1      -7.287   5.626  67.007  1.00  0.00    -0.080 A  
HETATM   27  C   UNL     1      -8.155   2.024  66.560  1.00  0.00    -0.080 A  
HETATM   28  N   UNL     1      -8.644   7.437  66.685  1.00  0.00    -0.122 NA 
HETATM   29  C   UNL     1      -7.103   4.257  66.697  1.00  0.00    -0.063 A  
HETATM   30  C   UNL     1      -8.229   3.385  66.865  1.00  0.00    -0.092 A  
HETATM   31  C   UNL     1      -6.419   6.877  67.163  1.00  0.00    -0.049 C  
HETATM   32  C   UNL     1      -5.960   3.683  66.099  1.00  0.00    -0.023 A  
HETATM   33  C   UNL     1      -9.702   5.248  67.177  1.00  0.00    -0.165 A  
HETATM   34  C   UNL     1      -5.159   6.896  66.307  1.00  0.00    -0.021 C  
HETATM   35  C   UNL     1      -6.017   7.118  68.640  1.00  0.00    -0.026 C  
HETATM   36  C   UNL     1      -5.958   2.347  65.660  1.00  0.00    -0.022 A  
HETATM   37  C   UNL     1      -9.480   3.884  67.227  1.00  0.00    -0.235 A  
BRANCH  28  38
HETATM   38  C   UNL     1      -9.778   7.978  65.887  1.00  0.00     0.204 C  
BRANCH  38  39
HETATM   39  C   UNL     1     -10.098   9.393  66.412  1.00  0.00    -0.332 C  
BRANCH  39  40
HETATM   40  C   UNL     1     -11.055   9.417  67.611  1.00  0.00     0.047 C  
BRANCH  40  41
HETATM   41  C   UNL     1     -10.352   9.706  68.920  1.00  0.00    -0.203 C  
HETATM   42  O   UNL     1     -12.302   9.222  70.597  1.00  0.00    -0.158 OA 
HETATM   43  O   UNL     1     -10.651   7.357  70.051  1.00  0.00    -0.221 OA 
HETATM   44  S   UNL     1     -10.970   8.754  70.274  1.00  0.00    -0.215 S  
HETATM   45  O   UNL     1      -9.999   9.334  71.391  1.00  0.00    -0.306 OA 
ENDBRANCH  40  41
ENDBRANCH  39  40
ENDBRANCH  38  39
ENDBRANCH  28  38
ENDBRANCH  20  21
ENDBRANCH  18  19
ENDBRANCH   5  17
BRANCH   6  46
HETATM   46  C   UNL     1     -10.393  18.803  67.480  1.00  0.00    -0.416 C  
BRANCH  46  47
HETATM   47  C   UNL     1     -10.605  19.501  66.144  1.00  0.00    -0.585 C  
BRANCH  47  48
HETATM   48  C   UNL     1      -9.440  20.335  65.655  1.00  0.00     0.071 C  
BRANCH  48  49
HETATM   49  C   UNL     1      -8.199  20.155  66.526  1.00  0.00    -0.271 C  
HETATM   50  O   UNL     1      -6.735  18.601  64.962  1.00  0.00    -0.526 OA 
HETATM   51  O   UNL     1      -5.694  19.856  66.804  1.00  0.00    -0.172 OA 
HETATM   52  O   UNL     1      -6.449  21.142  64.814  1.00  0.00    -0.180 OA 
HETATM   53  S   UNL     1      -6.727  19.929  65.534  1.00  0.00    -0.299 S  
ENDBRANCH  48  49
ENDBRANCH  47  48
ENDBRANCH  46  47
ENDBRANCH   6  46
TORSDOF 11
ENDMDL
MODEL       11
REMARK 921   NORMALIZED FREE ENERGY PREDICTED BY IDOCK:   -3.19 KCAL/MOL
REMARK 922        TOTAL FREE ENERGY PREDICTED BY IDOCK:   -9.66 KCAL/MOL
REMARK 923 INTER-LIGAND FREE ENERGY PREDICTED BY IDOCK:   -8.19 KCAL/MOL
REMARK 924 INTRA-LIGAND FREE ENERGY PREDICTED BY IDOCK:   -1.47 KCAL/MOL
REMARK 927      BINDING AFFINITY PREDICTED BY RF-SCORE:    0.00 PKD
ROOT
HETATM    1  C   UNL     1     -10.529   4.969  69.924  1.00  0.00    -0.214 C  
HETATM    2  C   UNL     1      -9.166   4.733  69.267  1.00  0.00    -0.172 C  
HETATM    3  C   UNL     1      -8.575   5.247  67.937  1.00  0.00    -0.103 C  
HETATM    4  C   UNL     1      -9.658   3.461  68.299  1.00  0.00    -0.149 C  
HETATM    5  C   UNL     1      -9.028   6.467  67.517  1.00  0.00    -0.110 C  
HETATM    6  N   UNL     1      -7.222   4.622  67.919  1.00  0.00    -0.065 NA 
HETATM    7  C   UNL     1      -5.347   6.952  69.944  1.00  0.00    -0.015 A  
HETATM    8  C   UNL     1      -5.541   5.973  69.022  1.00  0.00    -0.011 A  
HETATM    9  C   UNL     1      -6.737   5.303  69.089  1.00  0.00    -0.053 A  
HETATM   10  C   UNL     1      -7.796   7.736  73.159  1.00  0.00    -0.160 A  
HETATM   11  C   UNL     1      -7.791   5.365  70.073  1.00  0.00    -0.081 A  
HETATM   12  C   UNL     1      -6.699   8.546  72.869  1.00  0.00    -0.073 A  
HETATM   13  C   UNL     1      -7.507   6.356  71.105  1.00  0.00    -0.085 A  
HETATM   14  C   UNL     1      -6.290   7.166  70.943  1.00  0.00    -0.036 A  
HETATM   15  C   UNL     1      -5.956   8.255  71.750  1.00  0.00    -0.042 A  
HETATM   16  C   UNL     1      -8.207   6.690  72.287  1.00  0.00    -0.104 A  
ENDROOT
BRANCH   5  17
HETATM   17  C   UNL     1      -8.894   7.751  68.274  1.00  0.00    -0.129 C  
HETATM   18  C   UNL     1      -7.973   8.709  68.071  1.00  0.00    -0.107 C  
BRANCH  18  19
HETATM   19  C   UNL     1      -7.948  10.045  68.673  1.00  0.00    -0.097 C  
HETATM   20  C   UNL     1      -7.724  11.223  68.059  1.00  0.00    -0.108 C  
BRANCH  20  21
HETATM   21  C   UNL     1      -7.551  12.499  68.760  1.00  0.00    -0.024 C  
HETATM   22  C   UNL     1      -7.575  15.075  68.524  1.00  0.00    -0.118 C  
HETATM   23  C   UNL     1      -5.514  20.932  70.628  1.00  0.00    -0.096 A  
HETATM   24  C   UNL     1      -7.627  17.256  68.089  1.00  0.00    -0.211 A  
HETATM   25  C   UNL     1      -7.868  13.656  68.156  1.00  0.00    -0.143 C  
HETATM   26  C   UNL     1      -6.507  17.161  68.905  1.00  0.00    -0.192 A  
HETATM   27  C   UNL     1      -6.126  20.841  69.386  1.00  0.00    -0.174 A  
HETATM   28  N   UNL     1      -8.322  16.043  68.082  1.00  0.00    -0.158 NA 
HETATM   29  C   UNL     1      -6.072  18.372  69.493  1.00  0.00    -0.260 A  
HETATM   30  C   UNL     1      -6.482  19.595  68.866  1.00  0.00    -0.334 A  
HETATM   31  C   UNL     1      -6.227  15.663  69.061  1.00  0.00    -0.113 C  
HETATM   32  C   UNL     1      -5.392  18.506  70.724  1.00  0.00    -0.252 A  
HETATM   33  C   UNL     1      -8.025  18.425  67.457  1.00  0.00    -0.241 A  
HETATM   34  C   UNL     1      -5.824  15.227  70.464  1.00  0.00    -0.083 C  
HETATM   35  C   UNL     1      -5.150  15.173  68.061  1.00  0.00    -0.119 C  
HETATM   36  C   UNL     1      -5.177  19.768  71.307  1.00  0.00    -0.323 A  
HETATM   37  C   UNL     1      -7.353  19.590  67.777  1.00  0.00    -0.297 A  
BRANCH  28  38
HETATM   38  C   UNL     1      -9.807  16.044  67.984  1.00  0.00    -0.222 C  
BRANCH  38  39
HETATM   39  C   UNL     1     -10.358  15.099  69.073  1.00  0.00    -0.244 C  
BRANCH  39  40
HETATM   40  C   UNL     1     -11.884  14.949  69.061  1.00  0.00    -0.333 C  
BRANCH  40  41
HETATM   41  C   UNL     1     -12.398  14.064  70.175  1.00  0.00    -0.345 C  
HETATM   42  O   UNL     1     -11.610  15.447  72.253  1.00  0.00    -0.430 OA 
HETATM   43  O   UNL     1     -13.972  15.798  71.359  1.00  0.00    -0.512 OA 
HETATM   44  S   UNL     1     -12.827  14.955  71.640  1.00  0.00    -0.357 S  
HETATM   45  O   UNL     1     -13.301  13.709  72.506  1.00  0.00    -0.508 OA 
ENDBRANCH  40  41
ENDBRANCH  39  40
ENDBRANCH  38  39
ENDBRANCH  28  38
ENDBRANCH  20  21
ENDBRANCH  18  19
ENDBRANCH   5  17
BRANCH   6  46
HETATM   46  C   UNL     1      -6.873   3.201  68.561  1.00  0.00    -0.045 C  
BRANCH  46  47
HETATM   47  C   UNL     1      -6.150   3.056  69.891  1.00  0.00    -0.024 C  
BRANCH  47  48
HETATM   48  C   UNL     1      -6.883   2.255  70.946  1.00  0.00    -0.032 C  
BRANCH  48  49
HETATM   49  C   UNL     1      -6.009   1.981  72.169  1.00  0.00    -0.009 C  
HETATM   50  O   UNL     1      -5.498   4.455  72.958  1.00  0.00    -0.007 OA 
HETATM   51  O   UNL     1      -5.191   2.561  74.500  1.00  0.00     0.000 OA 
HETATM   52  O   UNL     1      -7.520   3.226  73.938  1.00  0.00    -0.057 OA 
HETATM   53  S   UNL     1      -6.187   3.263  73.404  1.00  0.00    -0.016 S  
ENDBRANCH  48  49
ENDBRANCH  47  48
ENDBRANCH  46  47
ENDBRANCH   6  46
TORSDOF 11
ENDMDL
MODEL       12
REMARK 921   NORMALIZED FREE ENERGY PREDICTED BY IDOCK:   -2.97 KCAL/MOL
REMARK 922        TOTAL FREE ENERGY PREDICTED BY IDOCK:   -9.31 KCAL/MOL
REMARK 923 INTER-LIGAND FREE ENERGY PREDICTED BY IDOCK:   -5.92 KCAL/MOL
REMARK 924 INTRA-LIGAND FREE ENERGY PREDICTED BY IDOCK:   -3.39 KCAL/MOL
REMARK 927      BINDING AFFINITY PREDICTED BY RF-SCORE:    0.00 PKD
ROOT
HETATM    1  C   UNL     1     -11.275  15.903  66.412  1.00  0.00     0.098 C  
HETATM    2  C   UNL     1     -10.346  16.719  67.316  1.00  0.00    -0.304 C  
HETATM    3  C   UNL     1     -10.460  17.110  68.805  1.00  0.00    -0.351 C  
HETATM    4  C   UNL     1     -11.136  18.178  67.103  1.00  0.00     0.155 C  
HETATM    5  C   UNL     1     -11.136  16.227  69.601  1.00  0.00    -0.333 C  
HETATM    6  N   UNL     1      -9.223  17.912  69.026  1.00  0.00    -0.117 NA 
HETATM    7  C   UNL     1      -6.796  15.307  69.633  1.00  0.00    -0.187 A  
HETATM    8  C   UNL     1      -7.320  16.560  69.674  1.00  0.00     0.154 A  
HETATM    9  C   UNL     1      -8.307  16.835  68.760  1.00  0.00    -0.248 A  
HETATM   10  C   UNL     1      -7.566  12.478  66.743  1.00  0.00     0.199 A  
HETATM   11  C   UNL     1      -8.801  16.055  67.651  1.00  0.00    -0.190 A  
HETATM   12  C   UNL     1      -6.778  12.183  67.855  1.00  0.00    -0.085 A  
HETATM   13  C   UNL     1      -8.148  14.753  67.576  1.00  0.00    -0.199 A  
HETATM   14  C   UNL     1      -7.195  14.415  68.644  1.00  0.00    -0.123 A  
HETATM   15  C   UNL     1      -6.606  13.160  68.806  1.00  0.00    -0.096 A  
HETATM   16  C   UNL     1      -8.256  13.716  66.620  1.00  0.00     0.358 A  
ENDROOT
BRANCH   5  17
HETATM   17  C   UNL     1     -10.760  14.795  69.825  1.00  0.00    -0.176 C  
HETATM   18  C   UNL     1     -11.220  13.730  69.146  1.00  0.00    -0.307 C  
BRANCH  18  19
HETATM   19  C   UNL     1     -10.720  12.354  69.227  1.00  0.00     0.004 C  
HETATM   20  C   UNL     1     -11.092  11.296  68.481  1.00  0.00    -0.288 C  
BRANCH  20  21
HETATM   21  C   UNL     1     -10.664   9.917  68.736  1.00  0.00    -0.247 C  
HETATM   22  C   UNL     1      -8.953   8.074  68.130  1.00  0.00    -0.135 C  
HETATM   23  C   UNL     1      -7.471   1.705  67.682  1.00  0.00    -0.054 A  
HETATM   24  C   UNL     1      -7.396   6.640  67.446  1.00  0.00    -0.095 A  
HETATM   25  C   UNL     1      -9.505   9.459  68.236  1.00  0.00    -0.147 C  
HETATM   26  C   UNL     1      -8.525   5.831  67.484  1.00  0.00    -0.103 A  
HETATM   27  C   UNL     1      -6.658   2.630  67.043  1.00  0.00    -0.036 A  
HETATM   28  N   UNL     1      -7.671   7.878  68.037  1.00  0.00    -0.122 NA 
HETATM   29  C   UNL     1      -8.279   4.437  67.510  1.00  0.00    -0.099 A  
HETATM   30  C   UNL     1      -7.005   3.983  67.033  1.00  0.00    -0.063 A  
HETATM   31  C   UNL     1      -9.711   6.775  67.700  1.00  0.00    -0.146 C  
HETATM   32  C   UNL     1      -9.107   3.454  68.095  1.00  0.00    -0.205 A  
HETATM   33  C   UNL     1      -6.162   6.223  66.968  1.00  0.00    -0.036 A  
HETATM   34  C   UNL     1     -10.766   6.268  68.676  1.00  0.00    -0.357 C  
HETATM   35  C   UNL     1     -10.406   7.139  66.365  1.00  0.00     0.061 C  
HETATM   36  C   UNL     1      -8.676   2.122  68.232  1.00  0.00    -0.125 A  
HETATM   37  C   UNL     1      -6.014   4.886  66.650  1.00  0.00    -0.027 A  
BRANCH  28  38
HETATM   38  C   UNL     1      -6.606   8.583  68.800  1.00  0.00    -0.054 C  
BRANCH  38  39
HETATM   39  C   UNL     1      -6.521   7.945  70.203  1.00  0.00    -0.037 C  
BRANCH  39  40
HETATM   40  C   UNL     1      -7.238   8.740  71.300  1.00  0.00    -0.105 C  
BRANCH  40  41
HETATM   41  C   UNL     1      -6.282   9.436  72.244  1.00  0.00     0.245 C  
HETATM   42  O   UNL     1      -7.618   9.217  74.485  1.00  0.00    -0.351 OA 
HETATM   43  O   UNL     1      -5.866   7.454  73.913  1.00  0.00    -0.059 OA 
HETATM   44  S   UNL     1      -6.353   8.819  73.898  1.00  0.00     0.025 S  
HETATM   45  O   UNL     1      -5.243   9.772  74.520  1.00  0.00    -0.148 OA 
ENDBRANCH  40  41
ENDBRANCH  39  40
ENDBRANCH  38  39
ENDBRANCH  28  38
ENDBRANCH  20  21
ENDBRANCH  18  19
ENDBRANCH   5  17
BRANCH   6  46
HETATM   46  C   UNL     1      -8.525  18.824  67.915  1.00  0.00    -0.292 C  
BRANCH  46  47
HETATM   47  C   UNL     1      -7.056  19.214  67.976  1.00  0.00    -0.271 C  
BRANCH  47  48
HETATM   48  C   UNL     1      -6.735  20.617  67.507  1.00  0.00    -0.371 C  
BRANCH  48  49
HETATM   49  C   UNL     1      -5.745  20.621  66.344  1.00  0.00    -0.190 C  
HETATM   50  O   UNL     1      -6.772  18.707  64.832  1.00  0.00    -0.501 OA 
HETATM   51  O   UNL     1      -5.196  20.340  63.882  1.00  0.00    -0.165 OA 
HETATM   52  O   UNL     1      -7.488  21.133  64.430  1.00  0.00     0.551 OA 
HETATM   53  S   UNL     1      -6.529  20.133  64.812  1.00  0.00    -0.226 S  
ENDBRANCH  48  49
ENDBRANCH  47  48
ENDBRANCH  46  47
ENDBRANCH   6  46
TORSDOF 11
ENDMDL
MODEL       13
REMARK 921   NORMALIZED FREE ENERGY PREDICTED BY IDOCK:   -2.73 KCAL/MOL
REMARK 922        TOTAL FREE ENERGY PREDICTED BY IDOCK:   -8.91 KCAL/MOL
REMARK 923 INTER-LIGAND FREE ENERGY PREDICTED BY IDOCK:   -7.23 KCAL/MOL
REMARK 924 INTRA-LIGAND FREE ENERGY PREDICTED BY IDOCK:   -1.68 KCAL/MOL
REMARK 927      BINDING AFFINITY PREDICTED BY RF-SCORE:    0.00 PKD
ROOT
HETATM    1  C   UNL     1     -10.531   4.975  69.924  1.00  0.00    -0.214 C  
HETATM    2  C   UNL     1      -9.171   4.723  69.268  1.00  0.00    -0.172 C  
HETATM    3  C   UNL     1      -8.580   5.213  67.929  1.00  0.00    -0.103 C  
HETATM    4  C   UNL     1      -9.671   3.439  68.321  1.00  0.00    -0.039 C  
HETATM    5  C   UNL     1      -9.028   6.430  67.492  1.00  0.00    -0.116 C  
HETATM    6  N   UNL     1      -7.231   4.581  67.918  1.00  0.00    -0.064 NA 
HETATM    7  C   UNL     1      -5.339   6.932  69.905  1.00  0.00    -0.015 A  
HETATM    8  C   UNL     1      -5.540   5.941  68.998  1.00  0.00    -0.011 A  
HETATM    9  C   UNL     1      -6.739   5.278  69.077  1.00  0.00    -0.053 A  
HETATM   10  C   UNL     1      -7.777   7.777  73.112  1.00  0.00    -0.153 A  
HETATM   11  C   UNL     1      -7.790   5.360  70.062  1.00  0.00    -0.081 A  
HETATM   12  C   UNL     1      -6.677   8.576  72.808  1.00  0.00    -0.074 A  
HETATM   13  C   UNL     1      -7.499   6.365  71.078  1.00  0.00    -0.085 A  
HETATM   14  C   UNL     1      -6.279   7.166  70.902  1.00  0.00    -0.036 A  
HETATM   15  C   UNL     1      -5.937   8.265  71.692  1.00  0.00    -0.040 A  
HETATM   16  C   UNL     1      -8.195   6.720  72.257  1.00  0.00    -0.106 A  
ENDROOT
BRANCH   5  17
HETATM   17  C   UNL     1      -8.886   7.725  68.230  1.00  0.00    -0.129 C  
HETATM   18  C   UNL     1      -7.965   8.678  68.005  1.00  0.00    -0.107 C  
BRANCH  18  19
HETATM   19  C   UNL     1      -7.934  10.023  68.587  1.00  0.00    -0.097 C  
HETATM   20  C   UNL     1      -7.723  11.193  67.953  1.00  0.00    -0.105 C  
BRANCH  20  21
HETATM   21  C   UNL     1      -7.542  12.479  68.633  1.00  0.00    -0.080 C  
HETATM   22  C   UNL     1      -7.582  15.051  68.363  1.00  0.00    -0.115 C  
HETATM   23  C   UNL     1      -5.506  20.945  70.344  1.00  0.00    -0.187 A  
HETATM   24  C   UNL     1      -7.654  17.226  67.900  1.00  0.00    -0.188 A  
HETATM   25  C   UNL     1      -7.876  13.626  68.021  1.00  0.00    -0.150 C  
HETATM   26  C   UNL     1      -6.516  17.146  68.694  1.00  0.00    -0.175 A  
HETATM   27  C   UNL     1      -6.143  20.835  69.117  1.00  0.00    -0.251 A  
HETATM   28  N   UNL     1      -8.343  16.009  67.923  1.00  0.00    -0.152 NA 
HETATM   29  C   UNL     1      -6.075  18.368  69.256  1.00  0.00    -0.247 A  
HETATM   30  C   UNL     1      -6.504  19.580  68.621  1.00  0.00    -0.303 A  
HETATM   31  C   UNL     1      -6.226  15.652  68.864  1.00  0.00    -0.109 C  
HETATM   32  C   UNL     1      -5.370  18.521  70.471  1.00  0.00    -0.247 A  
HETATM   33  C   UNL     1      -8.070  18.385  67.261  1.00  0.00    -0.243 A  
HETATM   34  C   UNL     1      -5.792  15.237  70.264  1.00  0.00    -0.141 C  
HETATM   35  C   UNL     1      -5.167  15.153  67.849  1.00  0.00    -0.106 C  
HETATM   36  C   UNL     1      -5.149  19.792  71.032  1.00  0.00    -0.265 A  
HETATM   37  C   UNL     1      -7.397  19.556  67.551  1.00  0.00    -0.270 A  
BRANCH  28  38
HETATM   38  C   UNL     1      -9.830  16.003  67.857  1.00  0.00    -0.226 C  
BRANCH  38  39
HETATM   39  C   UNL     1     -10.244  15.414  66.492  1.00  0.00    -0.287 C  
BRANCH  39  40
HETATM   40  C   UNL     1     -11.717  14.996  66.408  1.00  0.00    -0.110 C  
BRANCH  40  41
HETATM   41  C   UNL     1     -12.074  14.357  65.083  1.00  0.00    -0.395 C  
HETATM   42  O   UNL     1     -10.264  12.469  64.987  1.00  0.00    -0.285 OA 
HETATM   43  O   UNL     1     -12.567  11.926  65.941  1.00  0.00     0.180 OA 
HETATM   44  S   UNL     1     -11.704  12.631  65.012  1.00  0.00    -0.380 S  
HETATM   45  O   UNL     1     -12.217  12.373  63.530  1.00  0.00    -0.504 OA 
ENDBRANCH  40  41
ENDBRANCH  39  40
ENDBRANCH  38  39
ENDBRANCH  28  38
ENDBRANCH  20  21
ENDBRANCH  18  19
ENDBRANCH   5  17
BRANCH   6  46
HETATM   46  C   UNL     1      -6.887   3.168  68.581  1.00  0.00    -0.045 C  
BRANCH  46  47
HETATM   47  C   UNL     1      -6.168   3.040  69.915  1.00  0.00    -0.028 C  
BRANCH  47  48
HETATM   48  C   UNL     1      -6.839   2.143  70.932  1.00  0.00    -0.032 C  
BRANCH  48  49
HETATM   49  C   UNL     1      -5.960   1.906  72.158  1.00  0.00    -0.009 C  
HETATM   50  O   UNL     1      -5.789   4.369  73.110  1.00  0.00    -0.011 OA 
HETATM   51  O   UNL     1      -5.266   2.437  74.541  1.00  0.00     0.000 OA 
HETATM   52  O   UNL     1      -7.652   2.830  73.961  1.00  0.00    -0.048 OA 
HETATM   53  S   UNL     1      -6.324   3.073  73.464  1.00  0.00    -0.021 S  
ENDBRANCH  48  49
ENDBRANCH  47  48
ENDBRANCH  46  47
ENDBRANCH   6  46
TORSDOF 11
ENDMDL
MODEL       14
REMARK 921   NORMALIZED FREE ENERGY PREDICTED BY IDOCK:   -2.45 KCAL/MOL
REMARK 922        TOTAL FREE ENERGY PREDICTED BY IDOCK:   -8.45 KCAL/MOL
REMARK 923 INTER-LIGAND FREE ENERGY PREDICTED BY IDOCK:   -5.62 KCAL/MOL
REMARK 924 INTRA-LIGAND FREE ENERGY PREDICTED BY IDOCK:   -2.83 KCAL/MOL
REMARK 927      BINDING AFFINITY PREDICTED BY RF-SCORE:    0.00 PKD
ROOT
HETATM    1  C   UNL     1      -9.489  15.597  69.675  1.00  0.00    -0.243 C  
HETATM    2  C   UNL     1      -8.184  15.781  68.895  1.00  0.00    -0.210 C  
HETATM    3  C   UNL     1      -6.730  15.976  69.377  1.00  0.00    -0.200 C  
HETATM    4  C   UNL     1      -8.188  17.452  68.943  1.00  0.00    -0.170 C  
HETATM    5  C   UNL     1      -6.417  15.391  70.572  1.00  0.00     0.186 C  
HETATM    6  N   UNL     1      -5.978  16.102  68.097  1.00  0.00    -0.103 NA 
HETATM    7  C   UNL     1      -5.491  12.630  67.225  1.00  0.00    -0.011 A  
HETATM    8  C   UNL     1      -5.247  13.967  67.214  1.00  0.00     0.556 A  
HETATM    9  C   UNL     1      -6.277  14.776  67.627  1.00  0.00    -0.091 A  
HETATM   10  C   UNL     1      -9.144  10.865  67.920  1.00  0.00    -0.149 A  
HETATM   11  C   UNL     1      -7.647  14.456  67.947  1.00  0.00    -0.158 A  
HETATM   12  C   UNL     1      -7.989  10.101  67.756  1.00  0.00    -0.102 A  
HETATM   13  C   UNL     1      -7.902  13.024  67.854  1.00  0.00    -0.149 A  
HETATM   14  C   UNL     1      -6.756  12.154  67.550  1.00  0.00    -0.129 A  
HETATM   15  C   UNL     1      -6.796  10.759  67.579  1.00  0.00    -0.079 A  
HETATM   16  C   UNL     1      -9.099  12.284  67.997  1.00  0.00    -0.191 A  
ENDROOT
BRANCH   5  17
HETATM   17  C   UNL     1      -6.504  13.927  70.873  1.00  0.00     0.292 C  
HETATM   18  C   UNL     1      -5.473  13.083  71.054  1.00  0.00    -0.188 C  
BRANCH  18  19
HETATM   19  C   UNL     1      -5.545  11.700  71.534  1.00  0.00     0.328 C  
HETATM   20  C   UNL     1      -5.761  10.584  70.810  1.00  0.00    -0.100 C  
BRANCH  20  21
HETATM   21  C   UNL     1      -5.984   9.256  71.388  1.00  0.00    -0.075 C  
HETATM   22  C   UNL     1      -7.170   6.977  71.087  1.00  0.00    -0.075 C  
HETATM   23  C   UNL     1      -9.730   1.572  73.772  1.00  0.00    -0.094 A  
HETATM   24  C   UNL     1      -8.293   5.110  70.635  1.00  0.00    -0.111 A  
HETATM   25  C   UNL     1      -6.606   8.300  70.679  1.00  0.00    -0.037 C  
HETATM   26  C   UNL     1      -8.531   5.258  71.996  1.00  0.00    -0.126 A  
HETATM   27  C   UNL     1     -10.019   1.866  72.447  1.00  0.00    -0.211 A  
HETATM   28  N   UNL     1      -7.322   6.024  70.214  1.00  0.00    -0.085 NA 
HETATM   29  C   UNL     1      -8.975   4.095  72.670  1.00  0.00    -0.124 A  
HETATM   30  C   UNL     1      -9.574   3.061  71.878  1.00  0.00    -0.222 A  
HETATM   31  C   UNL     1      -8.013   6.651  72.364  1.00  0.00    -0.099 C  
HETATM   32  C   UNL     1      -8.756   3.785  74.031  1.00  0.00    -0.089 A  
HETATM   33  C   UNL     1      -8.881   4.130  69.850  1.00  0.00    -0.134 A  
HETATM   34  C   UNL     1      -7.266   6.730  73.690  1.00  0.00    -0.078 C  
HETATM   35  C   UNL     1      -9.150   7.704  72.373  1.00  0.00    -0.191 C  
HETATM   36  C   UNL     1      -9.073   2.517  74.551  1.00  0.00    -0.094 A  
HETATM   37  C   UNL     1      -9.629   3.158  70.488  1.00  0.00    -0.201 A  
BRANCH  28  38
HETATM   38  C   UNL     1      -6.363   5.641  69.143  1.00  0.00    -0.033 C  
BRANCH  38  39
HETATM   39  C   UNL     1      -6.964   6.073  67.788  1.00  0.00    -0.069 C  
BRANCH  39  40
HETATM   40  C   UNL     1      -6.081   5.749  66.577  1.00  0.00    -0.026 C  
BRANCH  40  41
HETATM   41  C   UNL     1      -6.876   5.546  65.306  1.00  0.00    -0.052 C  
HETATM   42  O   UNL     1      -7.393   8.037  64.691  1.00  0.00    -0.075 OA 
HETATM   43  O   UNL     1      -5.348   6.910  63.665  1.00  0.00    -0.027 OA 
HETATM   44  S   UNL     1      -6.712   6.876  64.153  1.00  0.00    -0.047 S  
HETATM   45  O   UNL     1      -7.653   6.281  63.019  1.00  0.00    -0.066 OA 
ENDBRANCH  40  41
ENDBRANCH  39  40
ENDBRANCH  38  39
ENDBRANCH  28  38
ENDBRANCH  20  21
ENDBRANCH  18  19
ENDBRANCH   5  17
BRANCH   6  46
HETATM   46  C   UNL     1      -6.569  16.745  66.759  1.00  0.00    -0.212 C  
BRANCH  46  47
HETATM   47  C   UNL     1      -6.036  18.041  66.165  1.00  0.00    -0.235 C  
BRANCH  47  48
HETATM   48  C   UNL     1      -7.083  18.976  65.599  1.00  0.00    -0.250 C  
BRANCH  48  49
HETATM   49  C   UNL     1      -7.941  19.608  66.693  1.00  0.00    -0.300 C  
HETATM   50  O   UNL     1     -10.082  20.288  65.293  1.00  0.00    -0.124 OA 
HETATM   51  O   UNL     1     -10.194  20.116  67.746  1.00  0.00    -0.407 OA 
HETATM   52  O   UNL     1     -10.021  18.002  66.448  1.00  0.00    -0.334 OA 
HETATM   53  S   UNL     1      -9.687  19.397  66.363  1.00  0.00    -0.408 S  
ENDBRANCH  48  49
ENDBRANCH  47  48
ENDBRANCH  46  47
ENDBRANCH   6  46
TORSDOF 11
ENDMDL
MODEL       15
REMARK 921   NORMALIZED FREE ENERGY PREDICTED BY IDOCK:   -1.32 KCAL/MOL
REMARK 922        TOTAL FREE ENERGY PREDICTED BY IDOCK:   -6.59 KCAL/MOL
REMARK 923 INTER-LIGAND FREE ENERGY PREDICTED BY IDOCK:   -4.26 KCAL/MOL
REMARK 924 INTRA-LIGAND FREE ENERGY PREDICTED BY IDOCK:   -2.34 KCAL/MOL
REMARK 927      BINDING AFFINITY PREDICTED BY RF-SCORE:    0.00 PKD
ROOT
HETATM    1  C   UNL     1     -11.275  15.903  66.412  1.00  0.00     0.098 C  
HETATM    2  C   UNL     1     -10.344  16.699  67.332  1.00  0.00    -0.292 C  
HETATM    3  C   UNL     1     -10.449  17.045  68.832  1.00  0.00    -0.347 C  
HETATM    4  C   UNL     1     -11.148  18.157  67.169  1.00  0.00     0.155 C  
HETATM    5  C   UNL     1     -11.111  16.134  69.608  1.00  0.00    -0.344 C  
HETATM    6  N   UNL     1      -9.217  17.850  69.067  1.00  0.00    -0.117 NA 
HETATM    7  C   UNL     1      -6.764  15.248  69.577  1.00  0.00    -0.172 A  
HETATM    8  C   UNL     1      -7.298  16.495  69.659  1.00  0.00     0.154 A  
HETATM    9  C   UNL     1      -8.295  16.789  68.762  1.00  0.00    -0.248 A  
HETATM   10  C   UNL     1      -7.537  12.500  66.611  1.00  0.00     0.362 A  
HETATM   11  C   UNL     1      -8.792  16.038  67.635  1.00  0.00    -0.190 A  
HETATM   12  C   UNL     1      -6.738  12.178  67.707  1.00  0.00    -0.103 A  
HETATM   13  C   UNL     1      -8.129  14.744  67.515  1.00  0.00    -0.199 A  
HETATM   14  C   UNL     1      -7.165  14.383  68.566  1.00  0.00    -0.119 A  
HETATM   15  C   UNL     1      -6.565  13.128  68.685  1.00  0.00    -0.092 A  
HETATM   16  C   UNL     1      -8.237  13.735  66.531  1.00  0.00     0.574 A  
ENDROOT
BRANCH   5  17
HETATM   17  C   UNL     1     -10.722  14.699  69.786  1.00  0.00    -0.129 C  
HETATM   18  C   UNL     1     -11.198  13.648  69.096  1.00  0.00    -0.309 C  
BRANCH  18  19
HETATM   19  C   UNL     1     -10.690  12.273  69.129  1.00  0.00    -0.089 C  
HETATM   20  C   UNL     1      -9.547  11.828  69.687  1.00  0.00     1.230 C  
BRANCH  20  21
HETATM   21  C   UNL     1      -9.030  10.466  69.531  1.00  0.00    -0.127 C  
HETATM   22  C   UNL     1      -8.915   8.102  70.576  1.00  0.00    -0.145 C  
HETATM   23  C   UNL     1      -5.751   2.400  71.249  1.00  0.00    -0.013 A  
HETATM   24  C   UNL     1      -8.931   6.160  71.661  1.00  0.00    -0.142 A  
HETATM   25  C   UNL     1      -9.439   9.484  70.350  1.00  0.00    -0.317 C  
HETATM   26  C   UNL     1      -7.607   6.238  71.248  1.00  0.00    -0.094 A  
HETATM   27  C   UNL     1      -6.768   2.713  72.139  1.00  0.00    -0.015 A  
HETATM   28  N   UNL     1      -9.685   7.171  71.056  1.00  0.00    -0.166 NA 
HETATM   29  C   UNL     1      -6.891   5.018  71.253  1.00  0.00    -0.040 A  
HETATM   30  C   UNL     1      -7.390   3.962  72.086  1.00  0.00    -0.056 A  
HETATM   31  C   UNL     1      -7.420   7.658  70.706  1.00  0.00    -0.071 C  
HETATM   32  C   UNL     1      -5.811   4.680  70.407  1.00  0.00    -0.017 A  
HETATM   33  C   UNL     1      -9.426   5.159  72.485  1.00  0.00    -0.166 A  
HETATM   34  C   UNL     1      -6.585   7.756  69.435  1.00  0.00    -0.039 C  
HETATM   35  C   UNL     1      -6.811   8.604  71.771  1.00  0.00    -0.087 C  
HETATM   36  C   UNL     1      -5.297   3.371  70.366  1.00  0.00    -0.012 A  
HETATM   37  C   UNL     1      -8.588   4.103  72.788  1.00  0.00    -0.101 A  
BRANCH  28  38
HETATM   38  C   UNL     1     -11.103   6.912  70.685  1.00  0.00    -0.278 C  
BRANCH  38  39
HETATM   39  C   UNL     1     -11.114   6.163  69.336  1.00  0.00    -0.479 C  
BRANCH  39  40
HETATM   40  C   UNL     1      -9.726   5.741  68.840  1.00  0.00    -0.174 C  
BRANCH  40  41
HETATM   41  C   UNL     1      -9.448   6.182  67.419  1.00  0.00    -0.114 C  
HETATM   42  O   UNL     1      -8.499   3.953  66.429  1.00  0.00    -0.107 OA 
HETATM   43  O   UNL     1     -10.984   4.461  66.167  1.00  0.00     0.233 OA 
HETATM   44  S   UNL     1      -9.597   4.878  66.236  1.00  0.00    -0.192 S  
HETATM   45  O   UNL     1      -9.249   5.734  64.943  1.00  0.00     0.153 OA 
ENDBRANCH  40  41
ENDBRANCH  39  40
ENDBRANCH  38  39
ENDBRANCH  28  38
ENDBRANCH  20  21
ENDBRANCH  18  19
ENDBRANCH   5  17
BRANCH   6  46
HETATM   46  C   UNL     1      -8.535  18.800  67.978  1.00  0.00    -0.292 C  
BRANCH  46  47
HETATM   47  C   UNL     1      -7.068  19.200  68.039  1.00  0.00    -0.271 C  
BRANCH  47  48
HETATM   48  C   UNL     1      -6.762  20.619  67.609  1.00  0.00    -0.375 C  
BRANCH  48  49
HETATM   49  C   UNL     1      -5.763  20.666  66.455  1.00  0.00    -0.183 C  
HETATM   50  O   UNL     1      -6.752  18.778  64.885  1.00  0.00    -0.508 OA 
HETATM   51  O   UNL     1      -5.189  20.456  63.992  1.00  0.00    -0.167 OA 
HETATM   52  O   UNL     1      -7.497  21.204  64.539  1.00  0.00     0.548 OA 
HETATM   53  S   UNL     1      -6.527  20.207  64.904  1.00  0.00    -0.263 S  
ENDBRANCH  48  49
ENDBRANCH  47  48
ENDBRANCH  46  47
ENDBRANCH   6  46
TORSDOF 11
ENDMDL
MODEL       16
REMARK 921   NORMALIZED FREE ENERGY PREDICTED BY IDOCK:   -0.67 KCAL/MOL
REMARK 922        TOTAL FREE ENERGY PREDICTED BY IDOCK:   -5.53 KCAL/MOL
REMARK 923 INTER-LIGAND FREE ENERGY PREDICTED BY IDOCK:   -3.69 KCAL/MOL
REMARK 924 INTRA-LIGAND FREE ENERGY PREDICTED BY IDOCK:   -1.84 KCAL/MOL
REMARK 927      BINDING AFFINITY PREDICTED BY RF-SCORE:    0.00 PKD
ROOT
HETATM    1  C   UNL     1     -14.204  14.721  69.830  1.00  0.00     3.027 C  
HETATM    2  C   UNL     1     -12.733  15.123  69.978  1.00  0.00    -0.200 C  
HETATM    3  C   UNL     1     -11.623  14.594  70.911  1.00  0.00    -0.225 C  
HETATM    4  C   UNL     1     -12.973  16.194  71.240  1.00  0.00     0.460 C  
HETATM    5  C   UNL     1     -11.729  13.280  71.275  1.00  0.00     0.920 C  
HETATM    6  N   UNL     1     -10.453  15.436  70.534  1.00  0.00    -0.220 NA 
HETATM    7  C   UNL     1      -9.216  13.665  67.639  1.00  0.00    -0.213 A  
HETATM    8  C   UNL     1      -9.164  14.503  68.707  1.00  0.00    -0.162 A  
HETATM    9  C   UNL     1     -10.369  14.962  69.179  1.00  0.00    -0.245 A  
HETATM   10  C   UNL     1     -12.587  12.783  65.446  1.00  0.00    -0.387 A  
HETATM   11  C   UNL     1     -11.701  14.815  68.644  1.00  0.00    -0.356 A  
HETATM   12  C   UNL     1     -11.372  12.149  65.194  1.00  0.00    -0.379 A  
HETATM   13  C   UNL     1     -11.711  13.990  67.442  1.00  0.00    -0.421 A  
HETATM   14  C   UNL     1     -10.434  13.388  67.028  1.00  0.00    -0.257 A  
HETATM   15  C   UNL     1     -10.301  12.454  65.999  1.00  0.00    -0.275 A  
HETATM   16  C   UNL     1     -12.761  13.656  66.555  1.00  0.00    -0.043 A  
ENDROOT
BRANCH   5  17
HETATM   17  C   UNL     1     -11.736  12.115  70.334  1.00  0.00    -0.150 C  
HETATM   18  C   UNL     1     -10.681  11.357  69.990  1.00  0.00     0.382 C  
BRANCH  18  19
HETATM   19  C   UNL     1     -10.710  10.106  69.225  1.00  0.00    -0.259 C  
HETATM   20  C   UNL     1     -10.602   8.849  69.695  1.00  0.00    -0.230 C  
BRANCH  20  21
HETATM   21  C   UNL     1     -10.474   7.659  68.848  1.00  0.00    -0.211 C  
HETATM   22  C   UNL     1      -8.827   5.961  67.801  1.00  0.00    -0.109 C  
HETATM   23  C   UNL     1      -7.433   1.691  63.027  1.00  0.00    -0.045 A  
HETATM   24  C   UNL     1      -7.236   4.633  66.992  1.00  0.00    -0.076 A  
HETATM   25  C   UNL     1      -9.298   7.017  68.748  1.00  0.00    -0.134 C  
HETATM   26  C   UNL     1      -8.057   4.794  65.883  1.00  0.00    -0.107 A  
HETATM   27  C   UNL     1      -6.411   2.127  63.857  1.00  0.00    -0.018 A  
HETATM   28  N   UNL     1      -7.853   5.164  68.129  1.00  0.00    -0.087 NA 
HETATM   29  C   UNL     1      -7.895   3.833  64.857  1.00  0.00    -0.085 A  
HETATM   30  C   UNL     1      -6.655   3.113  64.815  1.00  0.00    -0.039 A  
HETATM   31  C   UNL     1      -9.053   5.897  66.254  1.00  0.00    -0.157 C  
HETATM   32  C   UNL     1      -8.890   3.404  63.950  1.00  0.00    -0.093 A  
HETATM   33  C   UNL     1      -6.023   3.960  66.965  1.00  0.00    -0.024 A  
HETATM   34  C   UNL     1     -10.486   5.647  65.802  1.00  0.00     0.300 C  
HETATM   35  C   UNL     1      -8.601   7.281  65.725  1.00  0.00    -0.143 C  
HETATM   36  C   UNL     1      -8.676   2.307  63.096  1.00  0.00    -0.085 A  
HETATM   37  C   UNL     1      -5.688   3.286  65.805  1.00  0.00    -0.018 A  
BRANCH  28  38
HETATM   38  C   UNL     1      -7.644   4.516  69.452  1.00  0.00    -0.055 C  
BRANCH  38  39
HETATM   39  C   UNL     1      -8.772   3.485  69.664  1.00  0.00    -0.127 C  
BRANCH  39  40
HETATM   40  C   UNL     1      -9.429   3.547  71.048  1.00  0.00    -0.226 C  
BRANCH  40  41
HETATM   41  C   UNL     1     -10.256   4.798  71.252  1.00  0.00    -0.158 C  
HETATM   42  O   UNL     1     -11.389   4.224  73.541  1.00  0.00    -0.283 OA 
HETATM   43  O   UNL     1      -9.228   5.577  73.538  1.00  0.00    -0.131 OA 
HETATM   44  S   UNL     1     -10.502   5.208  72.954  1.00  0.00    -0.227 S  
HETATM   45  O   UNL     1     -11.367   6.522  72.724  1.00  0.00    -0.250 OA 
ENDBRANCH  40  41
ENDBRANCH  39  40
ENDBRANCH  38  39
ENDBRANCH  28  38
ENDBRANCH  20  21
ENDBRANCH  18  19
ENDBRANCH   5  17
BRANCH   6  46
HETATM   46  C   UNL     1     -10.552  16.951  70.034  1.00  0.00     0.071 C  
BRANCH  46  47
HETATM   47  C   UNL     1      -9.862  17.445  68.771  1.00  0.00    -0.311 C  
BRANCH  47  48
HETATM   48  C   UNL     1      -8.492  18.055  68.974  1.00  0.00    -0.019 C  
BRANCH  48  49
HETATM   49  C   UNL     1      -8.229  19.208  68.008  1.00  0.00    -0.304 C  
HETATM   50  O   UNL     1      -7.299  17.879  65.916  1.00  0.00    -0.436 OA 
HETATM   51  O   UNL     1      -8.141  20.178  65.664  1.00  0.00    -0.218 OA 
HETATM   52  O   UNL     1      -9.808  18.376  66.064  1.00  0.00    -0.489 OA 
HETATM   53  S   UNL     1      -8.428  18.697  66.305  1.00  0.00    -0.162 S  
ENDBRANCH  48  49
ENDBRANCH  47  48
ENDBRANCH  46  47
ENDBRANCH   6  46
TORSDOF 11
ENDMDL
MODEL       17
REMARK 921   NORMALIZED FREE ENERGY PREDICTED BY IDOCK:    0.04 KCAL/MOL
REMARK 922        TOTAL FREE ENERGY PREDICTED BY IDOCK:   -4.37 KCAL/MOL
REMARK 923 INTER-LIGAND FREE ENERGY PREDICTED BY IDOCK:   -2.10 KCAL/MOL
REMARK 924 INTRA-LIGAND FREE ENERGY PREDICTED BY IDOCK:   -2.27 KCAL/MOL
REMARK 927      BINDING AFFINITY PREDICTED BY RF-SCORE:    0.00 PKD
ROOT
HETATM    1  C   UNL     1     -14.318  14.258  69.894  1.00  0.00     4.267 C  
HETATM    2  C   UNL     1     -12.885  14.741  70.139  1.00  0.00    -0.191 C  
HETATM    3  C   UNL     1     -11.792  14.236  71.104  1.00  0.00    -0.195 C  
HETATM    4  C   UNL     1     -13.257  15.732  71.434  1.00  0.00    -0.396 C  
HETATM    5  C   UNL     1     -11.833  12.901  71.401  1.00  0.00     1.041 C  
HETATM    6  N   UNL     1     -10.661  15.166  70.830  1.00  0.00    -0.042 NA 
HETATM    7  C   UNL     1      -9.169  13.618  67.927  1.00  0.00    -0.203 A  
HETATM    8  C   UNL     1      -9.224  14.405  69.033  1.00  0.00    -0.014 A  
HETATM    9  C   UNL     1     -10.478  14.765  69.461  1.00  0.00    -0.152 A  
HETATM   10  C   UNL     1     -12.361  12.641  65.518  1.00  0.00    -0.455 A  
HETATM   11  C   UNL     1     -11.770  14.563  68.849  1.00  0.00    -0.354 A  
HETATM   12  C   UNL     1     -11.097  12.096  65.302  1.00  0.00    -0.367 A  
HETATM   13  C   UNL     1     -11.666  13.800  67.611  1.00  0.00    -0.402 A  
HETATM   14  C   UNL     1     -10.334  13.298  67.239  1.00  0.00    -0.247 A  
HETATM   15  C   UNL     1     -10.089  12.426  66.177  1.00  0.00    -0.265 A  
HETATM   16  C   UNL     1     -12.646  13.446  66.655  1.00  0.00    -0.040 A  
ENDROOT
BRANCH   5  17
HETATM   17  C   UNL     1     -11.717  11.786  70.409  1.00  0.00    -0.253 C  
HETATM   18  C   UNL     1     -10.623  11.047  70.157  1.00  0.00     0.315 C  
BRANCH  18  19
HETATM   19  C   UNL     1     -10.551   9.837  69.332  1.00  0.00    -0.248 C  
HETATM   20  C   UNL     1     -10.868   8.577  69.686  1.00  0.00    -0.157 C  
BRANCH  20  21
HETATM   21  C   UNL     1     -10.610   7.397  68.855  1.00  0.00    -0.191 C  
HETATM   22  C   UNL     1      -8.788   5.861  67.848  1.00  0.00    -0.105 C  
HETATM   23  C   UNL     1      -6.912   1.700  63.143  1.00  0.00    -0.027 A  
HETATM   24  C   UNL     1      -7.062   4.692  67.074  1.00  0.00    -0.072 A  
HETATM   25  C   UNL     1      -9.376   6.875  68.777  1.00  0.00    -0.129 C  
HETATM   26  C   UNL     1      -7.881   4.756  65.953  1.00  0.00    -0.095 A  
HETATM   27  C   UNL     1      -5.950   2.246  63.980  1.00  0.00    -0.014 A  
HETATM   28  N   UNL     1      -7.744   5.170  68.197  1.00  0.00    -0.083 NA 
HETATM   29  C   UNL     1      -7.610   3.805  64.941  1.00  0.00    -0.077 A  
HETATM   30  C   UNL     1      -6.304   3.214  64.923  1.00  0.00    -0.024 A  
HETATM   31  C   UNL     1      -8.987   5.757  66.299  1.00  0.00    -0.149 C  
HETATM   32  C   UNL     1      -8.546   3.268  64.029  1.00  0.00    -0.089 A  
HETATM   33  C   UNL     1      -5.788   4.143  67.069  1.00  0.00    -0.023 A  
HETATM   34  C   UNL     1     -10.382   5.359  65.835  1.00  0.00    -0.029 C  
HETATM   35  C   UNL     1      -8.671   7.174  65.758  1.00  0.00    -0.125 C  
HETATM   36  C   UNL     1      -8.212   2.189  63.191  1.00  0.00    -0.073 A  
HETATM   37  C   UNL     1      -5.372   3.494  65.921  1.00  0.00    -0.009 A  
BRANCH  28  38
HETATM   38  C   UNL     1      -7.487   4.561  69.530  1.00  0.00    -0.051 C  
BRANCH  38  39
HETATM   39  C   UNL     1      -6.197   5.188  70.101  1.00  0.00    -0.022 C  
BRANCH  39  40
HETATM   40  C   UNL     1      -6.382   5.888  71.452  1.00  0.00    -0.044 C  
BRANCH  40  41
HETATM   41  C   UNL     1      -7.263   7.115  71.365  1.00  0.00    -0.077 C  
HETATM   42  O   UNL     1      -5.493   8.980  71.857  1.00  0.00    -0.048 OA 
HETATM   43  O   UNL     1      -6.000   8.367  69.434  1.00  0.00    -0.036 OA 
HETATM   44  S   UNL     1      -6.405   8.559  70.813  1.00  0.00    -0.042 S  
HETATM   45  O   UNL     1      -7.639   9.559  70.856  1.00  0.00    -0.270 OA 
ENDBRANCH  40  41
ENDBRANCH  39  40
ENDBRANCH  38  39
ENDBRANCH  28  38
ENDBRANCH  20  21
ENDBRANCH  18  19
ENDBRANCH   5  17
BRANCH   6  46
HETATM   46  C   UNL     1     -10.830  16.694  70.396  1.00  0.00     0.035 C  
BRANCH  46  47
HETATM   47  C   UNL     1      -9.876  17.385  69.433  1.00  0.00     0.042 C  
BRANCH  47  48
HETATM   48  C   UNL     1     -10.472  17.782  68.099  1.00  0.00    -0.382 C  
BRANCH  48  49
HETATM   49  C   UNL     1      -9.421  18.344  67.145  1.00  0.00    -0.282 C  
HETATM   50  O   UNL     1      -7.544  16.489  67.353  1.00  0.00    -0.132 OA 
HETATM   51  O   UNL     1      -7.566  18.036  65.439  1.00  0.00    -0.412 OA 
HETATM   52  O   UNL     1      -9.315  16.270  65.516  1.00  0.00    -0.424 OA 
HETATM   53  S   UNL     1      -8.464  17.039  66.381  1.00  0.00    -0.278 S  
ENDBRANCH  48  49
ENDBRANCH  47  48
ENDBRANCH  46  47
ENDBRANCH   6  46
TORSDOF 11
ENDMDL
MODEL       18
REMARK 921   NORMALIZED FREE ENERGY PREDICTED BY IDOCK:    1.37 KCAL/MOL
REMARK 922        TOTAL FREE ENERGY PREDICTED BY IDOCK:   -2.17 KCAL/MOL
REMARK 923 INTER-LIGAND FREE ENERGY PREDICTED BY IDOCK:    1.59 KCAL/MOL
REMARK 924 INTRA-LIGAND FREE ENERGY PREDICTED BY IDOCK:   -3.76 KCAL/MOL
REMARK 927      BINDING AFFINITY PREDICTED BY RF-SCORE:    0.00 PKD
ROOT
HETATM    1  C   UNL     1      -9.084  15.685  70.312  1.00  0.00     0.820 C  
HETATM    2  C   UNL     1      -7.983  16.235  69.401  1.00  0.00    -0.065 C  
HETATM    3  C   UNL     1      -6.515  16.612  69.692  1.00  0.00    -0.195 C  
HETATM    4  C   UNL     1      -8.238  17.845  69.775  1.00  0.00     1.255 C  
HETATM    5  C   UNL     1      -5.906  15.903  70.691  1.00  0.00     0.065 C  
HETATM    6  N   UNL     1      -6.032  17.088  68.365  1.00  0.00    -0.141 NA 
HETATM    7  C   UNL     1      -5.177  13.963  66.769  1.00  0.00     1.989 A  
HETATM    8  C   UNL     1      -5.149  15.304  66.984  1.00  0.00     0.843 A  
HETATM    9  C   UNL     1      -6.201  15.827  67.693  1.00  0.00    -0.159 A  
HETATM   10  C   UNL     1      -8.329  11.460  67.634  1.00  0.00    -0.129 A  
HETATM   11  C   UNL     1      -7.426  15.211  68.143  1.00  0.00    -0.118 A  
HETATM   12  C   UNL     1      -7.119  10.962  67.155  1.00  0.00    -0.103 A  
HETATM   13  C   UNL     1      -7.469  13.792  67.810  1.00  0.00    -0.168 A  
HETATM   14  C   UNL     1      -6.274  13.213  67.177  1.00  0.00     0.334 A  
HETATM   15  C   UNL     1      -6.092  11.850  66.937  1.00  0.00    -0.120 A  
HETATM   16  C   UNL     1      -8.492  12.830  67.980  1.00  0.00    -0.177 A  
ENDROOT
BRANCH   5  17
HETATM   17  C   UNL     1      -5.711  14.419  70.708  1.00  0.00    -0.184 C  
HETATM   18  C   UNL     1      -5.976  13.588  71.730  1.00  0.00     0.438 C  
BRANCH  18  19
HETATM   19  C   UNL     1      -5.970  12.122  71.695  1.00  0.00     1.325 C  
HETATM   20  C   UNL     1      -5.750  11.323  70.633  1.00  0.00    -0.123 C  
BRANCH  20  21
HETATM   21  C   UNL     1      -5.926   9.868  70.646  1.00  0.00    -0.087 C  
HETATM   22  C   UNL     1      -7.643   7.933  70.666  1.00  0.00    -0.077 C  
HETATM   23  C   UNL     1      -9.108   1.731  72.201  1.00  0.00    -0.116 A  
HETATM   24  C   UNL     1      -9.289   6.436  70.702  1.00  0.00    -0.162 A  
HETATM   25  C   UNL     1      -7.142   9.327  70.464  1.00  0.00    -0.100 C  
HETATM   26  C   UNL     1      -8.396   5.894  71.619  1.00  0.00    -0.127 A  
HETATM   27  C   UNL     1     -10.136   2.602  71.874  1.00  0.00    -0.154 A  
HETATM   28  N   UNL     1      -8.695   7.509  70.029  1.00  0.00    -0.139 NA 
HETATM   29  C   UNL     1      -8.578   4.521  71.911  1.00  0.00    -0.121 A  
HETATM   30  C   UNL     1      -9.867   3.953  71.644  1.00  0.00    -0.247 A  
HETATM   31  C   UNL     1      -7.337   6.972  71.863  1.00  0.00    -0.086 C  
HETATM   32  C   UNL     1      -7.571   3.612  72.307  1.00  0.00    -0.058 A  
HETATM   33  C   UNL     1     -10.548   5.913  70.447  1.00  0.00    -0.353 A  
HETATM   34  C   UNL     1      -5.906   6.459  71.952  1.00  0.00    -0.037 C  
HETATM   35  C   UNL     1      -7.645   7.804  73.133  1.00  0.00    -0.145 C  
HETATM   36  C   UNL     1      -7.825   2.231  72.386  1.00  0.00    -0.053 A  
HETATM   37  C   UNL     1     -10.871   4.702  71.030  1.00  0.00     0.444 A  
BRANCH  28  38
HETATM   38  C   UNL     1      -9.030   7.760  68.601  1.00  0.00    -0.133 C  
BRANCH  38  39
HETATM   39  C   UNL     1      -7.776   7.453  67.756  1.00  0.00    -0.112 C  
BRANCH  39  40
HETATM   40  C   UNL     1      -7.738   6.033  67.179  1.00  0.00    -0.101 C  
BRANCH  40  41
HETATM   41  C   UNL     1      -8.460   5.916  65.854  1.00  0.00    -0.141 C  
HETATM   42  O   UNL     1      -8.781   3.321  65.741  1.00  0.00    -0.115 OA 
HETATM   43  O   UNL     1     -10.655   4.757  66.705  1.00  0.00    -0.193 OA 
HETATM   44  S   UNL     1      -9.565   4.539  65.774  1.00  0.00    -0.204 S  
HETATM   45  O   UNL     1     -10.091   4.784  64.295  1.00  0.00     0.194 OA 
ENDBRANCH  40  41
ENDBRANCH  39  40
ENDBRANCH  38  39
ENDBRANCH  28  38
ENDBRANCH  20  21
ENDBRANCH  18  19
ENDBRANCH   5  17
BRANCH   6  46
HETATM   46  C   UNL     1      -6.945  17.826  67.281  1.00  0.00    -0.177 C  
BRANCH  46  47
HETATM   47  C   UNL     1      -7.019  19.341  67.163  1.00  0.00    -0.212 C  
BRANCH  47  48
HETATM   48  C   UNL     1      -8.367  19.897  66.756  1.00  0.00    -0.364 C  
BRANCH  48  49
HETATM   49  C   UNL     1      -9.084  18.990  65.758  1.00  0.00     0.373 C  
HETATM   50  O   UNL     1     -10.735  17.704  67.379  1.00  0.00    -0.340 OA 
HETATM   51  O   UNL     1     -11.150  17.753  64.954  1.00  0.00    -0.821 OA 
HETATM   52  O   UNL     1     -11.533  19.851  66.234  1.00  0.00     0.274 OA 
HETATM   53  S   UNL     1     -10.761  18.640  66.276  1.00  0.00    -0.106 S  
ENDBRANCH  48  49
ENDBRANCH  47  48
ENDBRANCH  46  47
ENDBRANCH   6  46
TORSDOF 11
ENDMDL
MODEL       19
REMARK 921   NORMALIZED FREE ENERGY PREDICTED BY IDOCK:    1.65 KCAL/MOL
REMARK 922        TOTAL FREE ENERGY PREDICTED BY IDOCK:   -1.71 KCAL/MOL
REMARK 923 INTER-LIGAND FREE ENERGY PREDICTED BY IDOCK:   -4.74 KCAL/MOL
REMARK 924 INTRA-LIGAND FREE ENERGY PREDICTED BY IDOCK:    3.03 KCAL/MOL
REMARK 927      BINDING AFFINITY PREDICTED BY RF-SCORE:    0.00 PKD
ROOT
HETATM    1  C   UNL     1     -11.772  15.945  67.186  1.00  0.00     0.432 C  
HETATM    2  C   UNL     1     -10.554  16.446  67.967  1.00  0.00    -0.314 C  
HETATM    3  C   UNL     1     -10.287  16.542  69.484  1.00  0.00    -0.266 C  
HETATM    4  C   UNL     1     -11.123  18.002  68.195  1.00  0.00     0.217 C  
HETATM    5  C   UNL     1     -10.915  15.606  70.259  1.00  0.00    -0.363 C  
HETATM    6  N   UNL     1      -8.919  17.129  69.537  1.00  0.00     0.339 NA 
HETATM    7  C   UNL     1      -6.875  14.181  69.108  1.00  0.00    -0.113 A  
HETATM    8  C   UNL     1      -7.168  15.454  69.480  1.00  0.00    -0.202 A  
HETATM    9  C   UNL     1      -8.266  16.024  68.886  1.00  0.00    -0.223 A  
HETATM   10  C   UNL     1      -8.685  12.101  66.050  1.00  0.00     0.174 A  
HETATM   11  C   UNL     1      -9.102  15.546  67.811  1.00  0.00    -0.178 A  
HETATM   12  C   UNL     1      -7.740  11.497  66.878  1.00  0.00    -0.157 A  
HETATM   13  C   UNL     1      -8.700  14.217  67.366  1.00  0.00    -0.217 A  
HETATM   14  C   UNL     1      -7.613  13.560  68.107  1.00  0.00    -0.138 A  
HETATM   15  C   UNL     1      -7.215  12.236  67.911  1.00  0.00    -0.106 A  
HETATM   16  C   UNL     1      -9.174  13.413  66.304  1.00  0.00    -0.068 A  
ENDROOT
BRANCH   5  17
HETATM   17  C   UNL     1     -10.739  14.123  70.144  1.00  0.00     0.407 C  
HETATM   18  C   UNL     1     -11.295  13.319  69.222  1.00  0.00    -0.311 C  
BRANCH  18  19
HETATM   19  C   UNL     1     -10.980  11.907  68.984  1.00  0.00    -0.267 C  
HETATM   20  C   UNL     1     -11.440  11.113  67.998  1.00  0.00    -0.366 C  
BRANCH  20  21
HETATM   21  C   UNL     1     -11.208   9.668  67.926  1.00  0.00     0.033 C  
HETATM   22  C   UNL     1      -9.418   7.801  67.851  1.00  0.00    -0.144 C  
HETATM   23  C   UNL     1      -7.698   1.730  66.076  1.00  0.00    -0.067 A  
HETATM   24  C   UNL     1      -7.717   6.370  67.776  1.00  0.00    -0.103 A  
HETATM   25  C   UNL     1      -9.975   9.165  68.104  1.00  0.00    -0.206 C  
HETATM   26  C   UNL     1      -8.575   5.834  66.824  1.00  0.00    -0.112 A  
HETATM   27  C   UNL     1      -6.708   2.624  66.456  1.00  0.00    -0.040 A  
HETATM   28  N   UNL     1      -8.361   7.389  68.485  1.00  0.00    -0.125 NA 
HETATM   29  C   UNL     1      -8.338   4.483  66.476  1.00  0.00    -0.106 A  
HETATM   30  C   UNL     1      -7.031   3.953  66.739  1.00  0.00    -0.059 A  
HETATM   31  C   UNL     1      -9.671   6.882  66.609  1.00  0.00    -0.221 C  
HETATM   32  C   UNL     1      -9.303   3.555  66.026  1.00  0.00    -0.163 A  
HETATM   33  C   UNL     1      -6.443   5.884  68.028  1.00  0.00    -0.043 A  
HETATM   34  C   UNL     1     -11.081   6.320  66.476  1.00  0.00     0.060 C  
HETATM   35  C   UNL     1      -9.377   7.778  65.380  1.00  0.00     0.451 C  
HETATM   36  C   UNL     1      -8.996   2.189  65.892  1.00  0.00    -0.106 A  
HETATM   37  C   UNL     1      -6.065   4.712  67.400  1.00  0.00    -0.027 A  
BRANCH  28  38
HETATM   38  C   UNL     1      -8.056   7.591  69.927  1.00  0.00    -0.129 C  
BRANCH  38  39
HETATM   39  C   UNL     1      -9.324   7.246  70.736  1.00  0.00    -0.160 C  
BRANCH  39  40
HETATM   40  C   UNL     1     -10.605   7.900  70.205  1.00  0.00    -0.231 C  
BRANCH  40  41
HETATM   41  C   UNL     1     -11.374   8.644  71.275  1.00  0.00    -0.281 C  
HETATM   42  O   UNL     1     -13.361   6.980  71.645  1.00  0.00    -0.369 OA 
HETATM   43  O   UNL     1     -11.310   6.809  73.151  1.00  0.00    -0.161 OA 
HETATM   44  S   UNL     1     -12.261   7.579  72.373  1.00  0.00    -0.058 S  
HETATM   45  O   UNL     1     -12.888   8.713  73.295  1.00  0.00     0.038 OA 
ENDBRANCH  40  41
ENDBRANCH  39  40
ENDBRANCH  38  39
ENDBRANCH  28  38
ENDBRANCH  20  21
ENDBRANCH  18  19
ENDBRANCH   5  17
BRANCH   6  46
HETATM   46  C   UNL     1      -8.331  18.153  68.461  1.00  0.00    -0.301 C  
BRANCH  46  47
HETATM   47  C   UNL     1      -7.250  17.766  67.462  1.00  0.00    -0.201 C  
BRANCH  47  48
HETATM   48  C   UNL     1      -6.335  18.889  67.026  1.00  0.00    -0.193 C  
BRANCH  48  49
HETATM   49  C   UNL     1      -6.965  19.751  65.933  1.00  0.00    -0.285 C  
HETATM   50  O   UNL     1      -9.270  18.495  65.601  1.00  0.00    -0.284 OA 
HETATM   51  O   UNL     1      -8.982  20.809  64.813  1.00  0.00     1.069 OA 
HETATM   52  O   UNL     1      -9.137  20.436  67.267  1.00  0.00    -0.365 OA 
HETATM   53  S   UNL     1      -8.750  19.766  66.056  1.00  0.00    -0.135 S  
ENDBRANCH  48  49
ENDBRANCH  47  48
ENDBRANCH  46  47
ENDBRANCH   6  46
TORSDOF 11
ENDMDL
MODEL       20
REMARK 921   NORMALIZED FREE ENERGY PREDICTED BY IDOCK:    2.06 KCAL/MOL
REMARK 922        TOTAL FREE ENERGY PREDICTED BY IDOCK:   -1.04 KCAL/MOL
REMARK 923 INTER-LIGAND FREE ENERGY PREDICTED BY IDOCK:    1.55 KCAL/MOL
REMARK 924 INTRA-LIGAND FREE ENERGY PREDICTED BY IDOCK:   -2.60 KCAL/MOL
REMARK 927      BINDING AFFINITY PREDICTED BY RF-SCORE:    0.00 PKD
ROOT
HETATM    1  C   UNL     1      -9.138  16.394  70.213  1.00  0.00     1.712 C  
HETATM    2  C   UNL     1      -8.035  16.959  69.313  1.00  0.00     0.009 C  
HETATM    3  C   UNL     1      -6.578  17.365  69.621  1.00  0.00    -0.100 C  
HETATM    4  C   UNL     1      -8.324  18.566  69.675  1.00  0.00     0.772 C  
HETATM    5  C   UNL     1      -5.969  16.673  70.632  1.00  0.00     0.324 C  
HETATM    6  N   UNL     1      -6.086  17.843  68.298  1.00  0.00    -0.174 NA 
HETATM    7  C   UNL     1      -5.153  14.725  66.730  1.00  0.00     1.902 A  
HETATM    8  C   UNL     1      -5.153  16.068  66.938  1.00  0.00     0.413 A  
HETATM    9  C   UNL     1      -6.224  16.576  67.631  1.00  0.00    -0.144 A  
HETATM   10  C   UNL     1      -8.271  12.170  67.567  1.00  0.00    -0.167 A  
HETATM   11  C   UNL     1      -7.443  15.939  68.068  1.00  0.00    -0.135 A  
HETATM   12  C   UNL     1      -7.045  11.692  67.107  1.00  0.00    -0.143 A  
HETATM   13  C   UNL     1      -7.455  14.518  67.742  1.00  0.00    -0.182 A  
HETATM   14  C   UNL     1      -6.242  13.958  67.127  1.00  0.00     0.707 A  
HETATM   15  C   UNL     1      -6.032  12.597  66.898  1.00  0.00     0.438 A  
HETATM   16  C   UNL     1      -8.463  13.538  67.904  1.00  0.00    -0.179 A  
ENDROOT
BRANCH   5  17
HETATM   17  C   UNL     1      -5.747  15.192  70.659  1.00  0.00    -0.102 C  
HETATM   18  C   UNL     1      -6.314  14.313  71.503  1.00  0.00     0.438 C  
BRANCH  18  19
HETATM   19  C   UNL     1      -6.253  12.851  71.418  1.00  0.00     1.344 C  
HETATM   20  C   UNL     1      -5.806  12.100  70.393  1.00  0.00    -0.154 C  
BRANCH  20  21
HETATM   21  C   UNL     1      -5.933  10.642  70.320  1.00  0.00    -0.111 C  
HETATM   22  C   UNL     1      -7.364   8.596  70.996  1.00  0.00    -0.083 C  
HETATM   23  C   UNL     1      -7.738   2.184  72.311  1.00  0.00    -0.045 A  
HETATM   24  C   UNL     1      -8.729   6.987  71.701  1.00  0.00    -0.116 A  
HETATM   25  C   UNL     1      -7.058  10.035  70.732  1.00  0.00     0.106 C  
HETATM   26  C   UNL     1      -7.483   6.425  71.949  1.00  0.00    -0.094 A  
HETATM   27  C   UNL     1      -8.795   3.007  72.672  1.00  0.00    -0.101 A  
HETATM   28  N   UNL     1      -8.588   8.160  70.952  1.00  0.00    -0.130 NA 
HETATM   29  C   UNL     1      -7.469   5.021  72.125  1.00  0.00    -0.092 A  
HETATM   30  C   UNL     1      -8.702   4.390  72.500  1.00  0.00    -0.116 A  
HETATM   31  C   UNL     1      -6.465   7.548  71.735  1.00  0.00    -0.042 C  
HETATM   32  C   UNL     1      -6.395   4.152  71.828  1.00  0.00    -0.018 A  
HETATM   33  C   UNL     1      -9.930   6.401  72.076  1.00  0.00    -0.183 A  
HETATM   34  C   UNL     1      -5.193   7.134  71.006  1.00  0.00    -0.027 C  
HETATM   35  C   UNL     1      -6.071   8.229  73.070  1.00  0.00    -0.075 C  
HETATM   36  C   UNL     1      -6.554   2.755  71.861  1.00  0.00    -0.015 A  
HETATM   37  C   UNL     1      -9.886   5.120  72.592  1.00  0.00    -0.193 A  
BRANCH  28  38
HETATM   38  C   UNL     1      -9.624   8.522  69.948  1.00  0.00    -0.171 C  
BRANCH  38  39
HETATM   39  C   UNL     1     -10.298   9.832  70.408  1.00  0.00    -0.354 C  
BRANCH  39  40
HETATM   40  C   UNL     1     -11.763   9.971  69.975  1.00  0.00    -0.242 C  
BRANCH  40  41
HETATM   41  C   UNL     1     -12.699  10.226  71.137  1.00  0.00    -0.403 C  
HETATM   42  O   UNL     1     -13.928   7.917  71.244  1.00  0.00    -0.295 OA 
HETATM   43  O   UNL     1     -11.887   8.300  72.725  1.00  0.00    -0.388 OA 
HETATM   44  S   UNL     1     -13.087   8.770  72.060  1.00  0.00    -0.420 S  
HETATM   45  O   UNL     1     -14.039   9.456  73.133  1.00  0.00    -0.186 OA 
ENDBRANCH  40  41
ENDBRANCH  39  40
ENDBRANCH  38  39
ENDBRANCH  28  38
ENDBRANCH  20  21
ENDBRANCH  18  19
ENDBRANCH   5  17
BRANCH   6  46
HETATM   46  C   UNL     1      -6.998  18.558  67.198  1.00  0.00    -0.202 C  
BRANCH  46  47
HETATM   47  C   UNL     1      -7.202  20.065  67.154  1.00  0.00    -0.284 C  
BRANCH  47  48
HETATM   48  C   UNL     1      -8.610  20.522  66.839  1.00  0.00    -0.271 C  
BRANCH  48  49
HETATM   49  C   UNL     1      -9.254  19.681  65.738  1.00  0.00     0.059 C  
HETATM   50  O   UNL     1     -10.326  17.740  67.183  1.00  0.00    -0.335 OA 
HETATM   51  O   UNL     1     -11.097  18.161  64.884  1.00  0.00    -0.673 OA 
HETATM   52  O   UNL     1     -11.733  19.809  66.634  1.00  0.00     0.617 OA 
HETATM   53  S   UNL     1     -10.718  18.838  66.327  1.00  0.00    -0.144 S  
ENDBRANCH  48  49
ENDBRANCH  47  48
ENDBRANCH  46  47
ENDBRANCH   6  46
TORSDOF 11
ENDMDL
MODEL       21
REMARK 921   NORMALIZED FREE ENERGY PREDICTED BY IDOCK:    2.82 KCAL/MOL
REMARK 922        TOTAL FREE ENERGY PREDICTED BY IDOCK:    0.21 KCAL/MOL
REMARK 923 INTER-LIGAND FREE ENERGY PREDICTED BY IDOCK:   -2.61 KCAL/MOL
REMARK 924 INTRA-LIGAND FREE ENERGY PREDICTED BY IDOCK:    2.82 KCAL/MOL
REMARK 927      BINDING AFFINITY PREDICTED BY RF-SCORE:    0.00 PKD
ROOT
HETATM    1  C   UNL     1      -8.126   5.755  66.215  1.00  0.00    -0.107 C  
HETATM    2  C   UNL     1      -8.670   5.120  67.498  1.00  0.00    -0.103 C  
HETATM    3  C   UNL     1      -7.997   4.839  68.859  1.00  0.00    -0.076 C  
HETATM    4  C   UNL     1      -8.133   3.571  67.166  1.00  0.00    -0.087 C  
HETATM    5  C   UNL     1      -7.000   5.704  69.219  1.00  0.00    -0.063 C  
HETATM    6  N   UNL     1      -9.094   4.197  69.638  1.00  0.00    -0.106 NA 
HETATM    7  C   UNL     1     -10.891   7.093  70.836  1.00  0.00    -0.266 A  
HETATM    8  C   UNL     1     -10.481   5.798  70.815  1.00  0.00    -0.324 A  
HETATM    9  C   UNL     1      -9.963   5.343  69.627  1.00  0.00    -0.227 A  
HETATM   10  C   UNL     1     -11.148   9.580  67.566  1.00  0.00     0.021 A  
HETATM   11  C   UNL     1      -9.902   5.974  68.331  1.00  0.00    -0.152 A  
HETATM   12  C   UNL     1     -11.404  10.048  68.854  1.00  0.00    -0.123 A  
HETATM   13  C   UNL     1     -10.440   7.329  68.365  1.00  0.00    -0.228 A  
HETATM   14  C   UNL     1     -10.860   7.854  69.673  1.00  0.00    -0.177 A  
HETATM   15  C   UNL     1     -11.248   9.174  69.904  1.00  0.00    -0.118 A  
HETATM   16  C   UNL     1     -10.652   8.269  67.329  1.00  0.00    -0.335 A  
ENDROOT
BRANCH   5  17
HETATM   17  C   UNL     1      -7.156   7.182  69.403  1.00  0.00    -0.075 C  
HETATM   18  C   UNL     1      -7.108   8.119  68.440  1.00  0.00    -0.077 C  
BRANCH  18  19
HETATM   19  C   UNL     1      -7.447   9.538  68.579  1.00  0.00    -0.080 C  
HETATM   20  C   UNL     1      -6.664  10.533  69.040  1.00  0.00    -0.063 C  
BRANCH  20  21
HETATM   21  C   UNL     1      -7.133  11.897  69.303  1.00  0.00    -0.004 C  
HETATM   22  C   UNL     1      -8.336  13.961  68.312  1.00  0.00    -0.163 C  
HETATM   23  C   UNL     1      -9.316  20.443  68.328  1.00  0.00    -0.046 A  
HETATM   24  C   UNL     1      -9.372  15.620  67.252  1.00  0.00    -0.215 A  
HETATM   25  C   UNL     1      -7.922  12.529  68.419  1.00  0.00    -0.139 C  
HETATM   26  C   UNL     1      -8.372  16.304  67.932  1.00  0.00    -0.170 A  
HETATM   27  C   UNL     1      -9.761  19.699  67.245  1.00  0.00    -0.474 A  
HETATM   28  N   UNL     1      -9.426  14.291  67.684  1.00  0.00    -0.207 NA 
HETATM   29  C   UNL     1      -8.575  17.697  68.080  1.00  0.00    -0.248 A  
HETATM   30  C   UNL     1      -9.476  18.334  67.164  1.00  0.00    -0.268 A  
HETATM   31  C   UNL     1      -7.439  15.230  68.497  1.00  0.00    -0.121 C  
HETATM   32  C   UNL     1      -8.089  18.504  69.133  1.00  0.00    -0.006 A  
HETATM   33  C   UNL     1     -10.238  16.216  66.347  1.00  0.00    -0.315 A  
HETATM   34  C   UNL     1      -6.942  15.491  69.914  1.00  0.00    -0.073 C  
HETATM   35  C   UNL     1      -6.213  14.993  67.580  1.00  0.00    -0.057 C  
HETATM   36  C   UNL     1      -8.509  19.838  69.284  1.00  0.00     0.120 A  
HETATM   37  C   UNL     1     -10.196  17.592  66.228  1.00  0.00    -0.362 A  
BRANCH  28  38
HETATM   38  C   UNL     1     -10.737  13.590  67.753  1.00  0.00    -0.252 C  
BRANCH  38  39
HETATM   39  C   UNL     1     -10.838  12.647  66.535  1.00  0.00    -0.285 C  
BRANCH  39  40
HETATM   40  C   UNL     1     -12.246  12.546  65.934  1.00  0.00    -0.310 C  
BRANCH  40  41
HETATM   41  C   UNL     1     -12.267  11.833  64.600  1.00  0.00     0.049 C  
HETATM   42  O   UNL     1      -9.939  12.570  63.655  1.00  0.00    -0.355 OA 
HETATM   43  O   UNL     1     -10.120  10.357  64.910  1.00  0.00    -0.322 OA 
HETATM   44  S   UNL     1     -10.662  11.369  64.024  1.00  0.00    -0.391 S  
HETATM   45  O   UNL     1     -11.122  10.679  62.669  1.00  0.00     1.021 OA 
ENDBRANCH  40  41
ENDBRANCH  39  40
ENDBRANCH  38  39
ENDBRANCH  28  38
ENDBRANCH  20  21
ENDBRANCH  18  19
ENDBRANCH   5  17
BRANCH   6  46
HETATM   46  C   UNL     1     -10.239   3.281  69.002  1.00  0.00     1.205 C  
BRANCH  46  47
HETATM   47  C   UNL     1     -10.014   1.822  68.636  1.00  0.00     0.376 C  
BRANCH  47  48
HETATM   48  C   UNL     1      -9.609   1.567  67.200  1.00  0.00     0.204 C  
BRANCH  48  49
HETATM   49  C   UNL     1      -9.903   2.764  66.299  1.00  0.00     0.568 C  
HETATM   50  O   UNL     1      -8.909   1.896  64.005  1.00  0.00    -0.088 OA 
HETATM   51  O   UNL     1     -10.509   3.765  64.046  1.00  0.00    -0.238 OA 
HETATM   52  O   UNL     1     -11.383   1.487  64.526  1.00  0.00     1.177 OA 
HETATM   53  S   UNL     1     -10.174   2.261  64.604  1.00  0.00     0.546 S  
ENDBRANCH  48  49
ENDBRANCH  47  48
ENDBRANCH  46  47
ENDBRANCH   6  46
TORSDOF 11
ENDMDL
MODEL       22
REMARK 921   NORMALIZED FREE ENERGY PREDICTED BY IDOCK:    3.57 KCAL/MOL
REMARK 922        TOTAL FREE ENERGY PREDICTED BY IDOCK:    1.44 KCAL/MOL
REMARK 923 INTER-LIGAND FREE ENERGY PREDICTED BY IDOCK:   -6.62 KCAL/MOL
REMARK 924 INTRA-LIGAND FREE ENERGY PREDICTED BY IDOCK:    8.06 KCAL/MOL
REMARK 927      BINDING AFFINITY PREDICTED BY RF-SCORE:    0.00 PKD
ROOT
HETATM    1  C   UNL     1     -10.993  16.214  70.773  1.00  0.00    -0.174 C  
HETATM    2  C   UNL     1     -10.583  16.753  69.399  1.00  0.00    -0.318 C  
HETATM    3  C   UNL     1      -9.193  17.005  68.778  1.00  0.00    -0.252 C  
HETATM    4  C   UNL     1     -10.408  18.344  69.884  1.00  0.00     0.977 C  
HETATM    5  C   UNL     1      -8.190  16.181  69.212  1.00  0.00    -0.183 C  
HETATM    6  N   UNL     1      -9.532  17.544  67.431  1.00  0.00    -0.252 NA 
HETATM    7  C   UNL     1     -10.090  14.496  65.575  1.00  0.00    -0.394 A  
HETATM    8  C   UNL     1      -9.807  15.812  65.759  1.00  0.00    -0.383 A  
HETATM    9  C   UNL     1     -10.187  16.352  66.963  1.00  0.00    -0.282 A  
HETATM   10  C   UNL     1     -12.376  12.161  68.080  1.00  0.00     0.561 A  
HETATM   11  C   UNL     1     -10.973  15.790  68.035  1.00  0.00    -0.330 A  
HETATM   12  C   UNL     1     -11.730  11.617  66.970  1.00  0.00    -0.176 A  
HETATM   13  C   UNL     1     -11.345  14.407  67.762  1.00  0.00    -0.331 A  
HETATM   14  C   UNL     1     -10.811  13.796  66.536  1.00  0.00    -0.287 A  
HETATM   15  C   UNL     1     -10.942  12.445  66.207  1.00  0.00    -0.323 A  
HETATM   16  C   UNL     1     -12.166  13.509  68.483  1.00  0.00    -0.160 A  
ENDROOT
BRANCH   5  17
HETATM   17  C   UNL     1      -8.172  14.690  69.081  1.00  0.00    -0.068 C  
HETATM   18  C   UNL     1      -9.038  13.937  68.382  1.00  0.00    -0.184 C  
BRANCH  18  19
HETATM   19  C   UNL     1      -8.920  12.505  68.091  1.00  0.00    -0.199 C  
HETATM   20  C   UNL     1      -8.396  11.925  66.994  1.00  0.00    -0.178 C  
BRANCH  20  21
HETATM   21  C   UNL     1      -8.467  10.490  66.705  1.00  0.00    -0.127 C  
HETATM   22  C   UNL     1      -7.671   8.135  67.421  1.00  0.00    -0.102 C  
HETATM   23  C   UNL     1      -6.372   1.912  65.822  1.00  0.00    -0.023 A  
HETATM   24  C   UNL     1      -6.850   6.218  68.197  1.00  0.00    -0.070 A  
HETATM   25  C   UNL     1      -7.953   9.596  67.565  1.00  0.00    -0.106 C  
HETATM   26  C   UNL     1      -6.727   6.040  66.825  1.00  0.00    -0.057 A  
HETATM   27  C   UNL     1      -5.905   2.406  67.031  1.00  0.00    -0.022 A  
HETATM   28  N   UNL     1      -7.601   7.367  68.468  1.00  0.00    -0.111 NA 
HETATM   29  C   UNL     1      -6.562   4.702  66.394  1.00  0.00    -0.046 A  
HETATM   30  C   UNL     1      -6.075   3.754  67.353  1.00  0.00    -0.028 A  
HETATM   31  C   UNL     1      -7.029   7.403  66.196  1.00  0.00    -0.065 C  
HETATM   32  C   UNL     1      -6.966   4.171  65.149  1.00  0.00    -0.058 A  
HETATM   33  C   UNL     1      -6.366   5.323  69.139  1.00  0.00    -0.034 A  
HETATM   34  C   UNL     1      -7.880   7.353  64.932  1.00  0.00    -0.125 C  
HETATM   35  C   UNL     1      -5.733   8.195  65.889  1.00  0.00    -0.037 C  
HETATM   36  C   UNL     1      -6.928   2.787  64.898  1.00  0.00    -0.049 A  
HETATM   37  C   UNL     1      -5.866   4.118  68.683  1.00  0.00    -0.025 A  
BRANCH  28  38
HETATM   38  C   UNL     1      -8.499   7.398  69.654  1.00  0.00    -0.133 C  
BRANCH  38  39
HETATM   39  C   UNL     1      -8.010   8.520  70.595  1.00  0.00    -0.104 C  
BRANCH  39  40
HETATM   40  C   UNL     1      -7.617   8.038  71.996  1.00  0.00    -0.108 C  
BRANCH  40  41
HETATM   41  C   UNL     1      -8.498   6.916  72.502  1.00  0.00    -0.117 C  
HETATM   42  O   UNL     1      -9.910   8.216  74.283  1.00  0.00     0.998 OA 
HETATM   43  O   UNL     1     -10.835   7.960  71.920  1.00  0.00    -0.225 OA 
HETATM   44  S   UNL     1     -10.085   7.463  73.057  1.00  0.00    -0.306 S  
HETATM   45  O   UNL     1     -10.657   6.040  73.474  1.00  0.00    -0.242 OA 
ENDBRANCH  40  41
ENDBRANCH  39  40
ENDBRANCH  38  39
ENDBRANCH  28  38
ENDBRANCH  20  21
ENDBRANCH  18  19
ENDBRANCH   5  17
BRANCH   6  46
HETATM   46  C   UNL     1     -10.826  18.423  67.107  1.00  0.00    -0.231 C  
BRANCH  46  47
HETATM   47  C   UNL     1     -10.768  19.693  66.271  1.00  0.00    -0.524 C  
BRANCH  47  48
HETATM   48  C   UNL     1      -9.419  20.378  66.220  1.00  0.00    -0.302 C  
BRANCH  48  49
HETATM   49  C   UNL     1      -8.591  20.109  67.475  1.00  0.00    -0.336 C  
HETATM   50  O   UNL     1      -6.545  18.796  66.429  1.00  0.00    -0.185 OA 
HETATM   51  O   UNL     1      -6.364  19.821  68.659  1.00  0.00    -0.250 OA 
HETATM   52  O   UNL     1      -6.393  21.339  66.689  1.00  0.00    -0.298 OA 
HETATM   53  S   UNL     1      -6.842  20.039  67.106  1.00  0.00    -0.231 S  
ENDBRANCH  48  49
ENDBRANCH  47  48
ENDBRANCH  46  47
ENDBRANCH   6  46
TORSDOF 11
ENDMDL
MODEL       23
REMARK 921   NORMALIZED FREE ENERGY PREDICTED BY IDOCK:    4.51 KCAL/MOL
REMARK 922        TOTAL FREE ENERGY PREDICTED BY IDOCK:    2.98 KCAL/MOL
REMARK 923 INTER-LIGAND FREE ENERGY PREDICTED BY IDOCK:    4.37 KCAL/MOL
REMARK 924 INTRA-LIGAND FREE ENERGY PREDICTED BY IDOCK:   -1.39 KCAL/MOL
REMARK 927      BINDING AFFINITY PREDICTED BY RF-SCORE:    0.00 PKD
ROOT
HETATM    1  C   UNL     1      -9.249  17.083  70.046  1.00  0.00     1.540 C  
HETATM    2  C   UNL     1      -8.127  17.643  69.167  1.00  0.00     0.057 C  
HETATM    3  C   UNL     1      -6.685  18.074  69.509  1.00  0.00    -0.091 C  
HETATM    4  C   UNL     1      -8.446  19.254  69.486  1.00  0.00     0.260 C  
HETATM    5  C   UNL     1      -6.098  17.410  70.551  1.00  0.00     0.418 C  
HETATM    6  N   UNL     1      -6.161  18.529  68.190  1.00  0.00    -0.191 NA 
HETATM    7  C   UNL     1      -5.145  15.391  66.717  1.00  0.00     1.348 A  
HETATM    8  C   UNL     1      -5.167  16.738  66.896  1.00  0.00    -0.118 A  
HETATM    9  C   UNL     1      -6.263  17.247  67.547  1.00  0.00    -0.149 A  
HETATM   10  C   UNL     1      -8.256  12.816  67.517  1.00  0.00    -0.179 A  
HETATM   11  C   UNL     1      -7.487  16.604  67.962  1.00  0.00    -0.170 A  
HETATM   12  C   UNL     1      -7.011  12.343  67.104  1.00  0.00    -0.079 A  
HETATM   13  C   UNL     1      -7.473  15.177  67.666  1.00  0.00    -0.202 A  
HETATM   14  C   UNL     1      -6.236  14.619  67.099  1.00  0.00     0.658 A  
HETATM   15  C   UNL     1      -6.003  13.256  66.904  1.00  0.00     1.136 A  
HETATM   16  C   UNL     1      -8.474  14.188  67.819  1.00  0.00    -0.178 A  
ENDROOT
BRANCH   5  17
HETATM   17  C   UNL     1      -5.860  15.933  70.617  1.00  0.00     0.065 C  
HETATM   18  C   UNL     1      -6.369  15.079  71.520  1.00  0.00     0.740 C  
BRANCH  18  19
HETATM   19  C   UNL     1      -6.298  13.615  71.482  1.00  0.00     0.951 C  
HETATM   20  C   UNL     1      -6.043  12.828  70.419  1.00  0.00    -0.024 C  
BRANCH  20  21
HETATM   21  C   UNL     1      -6.155  11.366  70.429  1.00  0.00    -0.110 C  
HETATM   22  C   UNL     1      -7.781   9.358  70.536  1.00  0.00    -0.161 C  
HETATM   23  C   UNL     1      -8.877   3.087  72.102  1.00  0.00    -0.116 A  
HETATM   24  C   UNL     1      -9.354   7.789  70.658  1.00  0.00    -0.162 A  
HETATM   25  C   UNL     1      -7.354  10.774  70.317  1.00  0.00     0.483 C  
HETATM   26  C   UNL     1      -8.385   7.281  71.514  1.00  0.00    -0.109 A  
HETATM   27  C   UNL     1      -9.960   3.915  71.845  1.00  0.00    -0.238 A  
HETATM   28  N   UNL     1      -8.850   8.891  69.960  1.00  0.00    -0.150 NA 
HETATM   29  C   UNL     1      -8.488   5.900  71.805  1.00  0.00    -0.131 A  
HETATM   30  C   UNL     1      -9.765   5.278  71.611  1.00  0.00    -0.211 A  
HETATM   31  C   UNL     1      -7.361   8.404  71.703  1.00  0.00    -0.110 C  
HETATM   32  C   UNL     1      -7.421   5.034  72.131  1.00  0.00    -0.092 A  
HETATM   33  C   UNL     1     -10.602   7.213  70.475  1.00  0.00    -0.243 A  
HETATM   34  C   UNL     1      -5.906   7.954  71.702  1.00  0.00    -0.035 C  
HETATM   35  C   UNL     1      -7.627   9.213  72.998  1.00  0.00     0.835 C  
HETATM   36  C   UNL     1      -7.608   3.642  72.213  1.00  0.00    -0.058 A  
HETATM   37  C   UNL     1     -10.836   5.985  71.066  1.00  0.00    -0.345 A  
BRANCH  28  38
HETATM   38  C   UNL     1      -9.281   9.136  68.557  1.00  0.00    -0.136 C  
BRANCH  38  39
HETATM   39  C   UNL     1     -10.064  10.466  68.523  1.00  0.00    -0.186 C  
BRANCH  39  40
HETATM   40  C   UNL     1     -11.192  10.505  67.486  1.00  0.00    -0.299 C  
BRANCH  40  41
HETATM   41  C   UNL     1     -10.989  11.575  66.435  1.00  0.00    -0.284 C  
HETATM   42  O   UNL     1     -13.230  12.902  66.699  1.00  0.00     1.107 OA 
HETATM   43  O   UNL     1     -11.171  13.686  67.984  1.00  0.00    -0.247 OA 
HETATM   44  S   UNL     1     -11.799  13.099  66.816  1.00  0.00    -0.374 S  
HETATM   45  O   UNL     1     -11.342  13.902  65.523  1.00  0.00    -0.302 OA 
ENDBRANCH  40  41
ENDBRANCH  39  40
ENDBRANCH  38  39
ENDBRANCH  28  38
ENDBRANCH  20  21
ENDBRANCH  18  19
ENDBRANCH   5  17
BRANCH   6  46
HETATM   46  C   UNL     1      -7.048  19.210  67.049  1.00  0.00    -0.203 C  
BRANCH  46  47
HETATM   47  C   UNL     1      -7.304  20.709  66.992  1.00  0.00    -0.370 C  
BRANCH  47  48
HETATM   48  C   UNL     1      -8.723  21.115  66.658  1.00  0.00     0.683 C  
BRANCH  48  49
HETATM   49  C   UNL     1      -9.330  20.234  65.567  1.00  0.00     0.380 C  
HETATM   50  O   UNL     1     -10.116  18.158  67.009  1.00  0.00    -0.319 OA 
HETATM   51  O   UNL     1     -11.045  18.544  64.763  1.00  0.00    -0.398 OA 
HETATM   52  O   UNL     1     -11.760  20.076  66.586  1.00  0.00     0.788 OA 
HETATM   53  S   UNL     1     -10.665  19.227  66.203  1.00  0.00    -0.313 S  
ENDBRANCH  48  49
ENDBRANCH  47  48
ENDBRANCH  46  47
ENDBRANCH   6  46
TORSDOF 11
ENDMDL
MODEL       24
REMARK 921   NORMALIZED FREE ENERGY PREDICTED BY IDOCK:    6.30 KCAL/MOL
REMARK 922        TOTAL FREE ENERGY PREDICTED BY IDOCK:    5.93 KCAL/MOL
REMARK 923 INTER-LIGAND FREE ENERGY PREDICTED BY IDOCK:    2.32 KCAL/MOL
REMARK 924 INTRA-LIGAND FREE ENERGY PREDICTED BY IDOCK:    3.62 KCAL/MOL
REMARK 927      BINDING AFFINITY PREDICTED BY RF-SCORE:    0.00 PKD
ROOT
HETATM    1  C   UNL     1      -9.217   5.450  65.997  1.00  0.00    -0.166 C  
HETATM    2  C   UNL     1      -7.994   5.480  66.918  1.00  0.00    -0.101 C  
HETATM    3  C   UNL     1      -6.579   6.062  66.712  1.00  0.00    -0.056 C  
HETATM    4  C   UNL     1      -7.276   4.104  66.295  1.00  0.00    -0.068 C  
HETATM    5  C   UNL     1      -6.498   7.149  65.886  1.00  0.00    -0.048 C  
HETATM    6  N   UNL     1      -5.900   5.728  67.996  1.00  0.00    -0.012 NA 
HETATM    7  C   UNL     1      -6.992   8.457  70.096  1.00  0.00    -0.042 A  
HETATM    8  C   UNL     1      -6.198   7.431  69.694  1.00  0.00    -0.031 A  
HETATM    9  C   UNL     1      -6.761   6.532  68.823  1.00  0.00    -0.057 A  
HETATM   10  C   UNL     1     -11.018   8.821  69.312  1.00  0.00    -0.006 A  
HETATM   11  C   UNL     1      -8.120   6.406  68.356  1.00  0.00    -0.113 A  
HETATM   12  C   UNL     1     -10.312   9.830  69.967  1.00  0.00    -0.307 A  
HETATM   13  C   UNL     1      -8.971   7.466  68.883  1.00  0.00    -0.130 A  
HETATM   14  C   UNL     1      -8.324   8.504  69.700  1.00  0.00    -0.121 A  
HETATM   15  C   UNL     1      -8.960   9.663  70.149  1.00  0.00    -0.273 A  
HETATM   16  C   UNL     1     -10.363   7.686  68.760  1.00  0.00    -0.218 A  
ENDROOT
BRANCH   5  17
HETATM   17  C   UNL     1      -7.195   8.456  66.099  1.00  0.00    -0.077 C  
HETATM   18  C   UNL     1      -8.456   8.632  66.532  1.00  0.00    -0.118 C  
BRANCH  18  19
HETATM   19  C   UNL     1      -9.081   9.897  66.925  1.00  0.00    -0.162 C  
HETATM   20  C   UNL     1      -9.208  11.020  66.191  1.00  0.00    -0.209 C  
BRANCH  20  21
HETATM   21  C   UNL     1      -9.698  12.298  66.715  1.00  0.00    -0.219 C  
HETATM   22  C   UNL     1      -9.232  14.834  66.913  1.00  0.00    -0.245 C  
HETATM   23  C   UNL     1     -10.047  20.464  70.172  1.00  0.00     0.732 A  
HETATM   24  C   UNL     1      -8.623  16.973  66.977  1.00  0.00    -0.210 A  
HETATM   25  C   UNL     1      -9.108  13.451  66.361  1.00  0.00    -0.063 C  
HETATM   26  C   UNL     1      -9.073  16.772  68.276  1.00  0.00    -0.228 A  
HETATM   27  C   UNL     1      -9.060  20.386  69.201  1.00  0.00     0.710 A  
HETATM   28  N   UNL     1      -8.941  15.869  66.180  1.00  0.00    -0.341 NA 
HETATM   29  C   UNL     1      -9.385  17.944  69.005  1.00  0.00    -0.075 A  
HETATM   30  C   UNL     1      -8.793  19.173  68.563  1.00  0.00    -0.406 A  
HETATM   31  C   UNL     1      -9.283  15.261  68.418  1.00  0.00    -0.194 C  
HETATM   32  C   UNL     1     -10.338  18.053  70.042  1.00  0.00     1.007 A  
HETATM   33  C   UNL     1      -8.029  18.148  66.539  1.00  0.00    -0.290 A  
HETATM   34  C   UNL     1     -10.537  14.855  69.181  1.00  0.00    -0.248 C  
HETATM   35  C   UNL     1      -8.060  14.570  69.072  1.00  0.00    -0.085 C  
HETATM   36  C   UNL     1     -10.705  19.305  70.568  1.00  0.00     2.315 A  
HETATM   37  C   UNL     1      -8.019  19.225  67.404  1.00  0.00    -0.292 A  
BRANCH  28  38
HETATM   38  C   UNL     1      -9.291  16.069  64.748  1.00  0.00     2.387 C  
BRANCH  38  39
HETATM   39  C   UNL     1     -10.738  15.576  64.536  1.00  0.00    -0.012 C  
BRANCH  39  40
HETATM   40  C   UNL     1     -10.854  14.077  64.236  1.00  0.00    -0.124 C  
BRANCH  40  41
HETATM   41  C   UNL     1     -12.266  13.652  63.893  1.00  0.00    -0.374 C  
HETATM   42  O   UNL     1     -11.902  11.079  63.581  1.00  0.00     0.379 OA 
HETATM   43  O   UNL     1     -12.653  11.954  65.856  1.00  0.00     0.180 OA 
HETATM   44  S   UNL     1     -12.650  12.006  64.407  1.00  0.00    -0.046 S  
HETATM   45  O   UNL     1     -14.150  11.973  63.884  1.00  0.00     0.770 OA 
ENDBRANCH  40  41
ENDBRANCH  39  40
ENDBRANCH  38  39
ENDBRANCH  28  38
ENDBRANCH  20  21
ENDBRANCH  18  19
ENDBRANCH   5  17
BRANCH   6  46
HETATM   46  C   UNL     1      -6.212   4.431  68.874  1.00  0.00    -0.031 C  
BRANCH  46  47
HETATM   47  C   UNL     1      -6.395   4.485  70.384  1.00  0.00    -0.026 C  
BRANCH  47  48
HETATM   48  C   UNL     1      -6.076   3.204  71.125  1.00  0.00    -0.018 C  
BRANCH  48  49
HETATM   49  C   UNL     1      -6.735   3.157  72.501  1.00  0.00    -0.022 C  
HETATM   50  O   UNL     1      -5.909   5.461  73.508  1.00  0.00    -0.029 OA 
HETATM   51  O   UNL     1      -7.842   4.292  74.483  1.00  0.00    -0.085 OA 
HETATM   52  O   UNL     1      -8.147   5.375  72.265  1.00  0.00    -0.105 OA 
HETATM   53  S   UNL     1      -7.127   4.798  73.098  1.00  0.00    -0.081 S  
ENDBRANCH  48  49
ENDBRANCH  47  48
ENDBRANCH  46  47
ENDBRANCH   6  46
TORSDOF 11
ENDMDL
MODEL       25
REMARK 921   NORMALIZED FREE ENERGY PREDICTED BY IDOCK:   10.90 KCAL/MOL
REMARK 922        TOTAL FREE ENERGY PREDICTED BY IDOCK:   13.49 KCAL/MOL
REMARK 923 INTER-LIGAND FREE ENERGY PREDICTED BY IDOCK:    9.54 KCAL/MOL
REMARK 924 INTRA-LIGAND FREE ENERGY PREDICTED BY IDOCK:    3.95 KCAL/MOL
REMARK 927      BINDING AFFINITY PREDICTED BY RF-SCORE:    0.00 PKD
ROOT
HETATM    1  C   UNL     1     -14.146  14.973  70.893  1.00  0.00    -0.163 C  
HETATM    2  C   UNL     1     -12.666  15.363  70.940  1.00  0.00    -0.520 C  
HETATM    3  C   UNL     1     -11.517  14.890  71.856  1.00  0.00    -0.172 C  
HETATM    4  C   UNL     1     -12.832  16.530  72.127  1.00  0.00     0.771 C  
HETATM    5  C   UNL     1     -11.619  13.609  72.323  1.00  0.00     2.271 C  
HETATM    6  N   UNL     1     -10.358  15.685  71.361  1.00  0.00     0.734 NA 
HETATM    7  C   UNL     1      -9.282  13.685  68.552  1.00  0.00    -0.121 A  
HETATM    8  C   UNL     1      -9.169  14.600  69.550  1.00  0.00     0.207 A  
HETATM    9  C   UNL     1     -10.345  15.110  70.043  1.00  0.00    -0.158 A  
HETATM   10  C   UNL     1     -12.765  12.688  66.596  1.00  0.00     1.188 A  
HETATM   11  C   UNL     1     -11.703  14.942  69.585  1.00  0.00    -0.356 A  
HETATM   12  C   UNL     1     -11.570  12.020  66.334  1.00  0.00    -0.381 A  
HETATM   13  C   UNL     1     -11.780  14.029  68.450  1.00  0.00    -0.389 A  
HETATM   14  C   UNL     1     -10.531  13.380  68.023  1.00  0.00    -0.243 A  
HETATM   15  C   UNL     1     -10.457  12.370  67.062  1.00  0.00    -0.238 A  
HETATM   16  C   UNL     1     -12.875  13.644  67.643  1.00  0.00     1.318 A  
ENDROOT
BRANCH   5  17
HETATM   17  C   UNL     1     -11.683  12.377  71.474  1.00  0.00     1.844 C  
HETATM   18  C   UNL     1     -11.027  12.163  70.321  1.00  0.00     1.005 C  
BRANCH  18  19
HETATM   19  C   UNL     1     -10.933  10.899  69.585  1.00  0.00    -0.311 C  
HETATM   20  C   UNL     1     -11.706   9.804  69.722  1.00  0.00    -0.008 C  
BRANCH  20  21
HETATM   21  C   UNL     1     -11.442   8.520  69.066  1.00  0.00     0.752 C  
HETATM   22  C   UNL     1      -9.700   7.111  67.772  1.00  0.00    -0.138 C  
HETATM   23  C   UNL     1      -8.407   2.322  63.487  1.00  0.00    -0.081 A  
HETATM   24  C   UNL     1      -8.063   6.092  66.664  1.00  0.00    -0.106 A  
HETATM   25  C   UNL     1     -10.201   8.205  68.659  1.00  0.00    -0.226 C  
HETATM   26  C   UNL     1      -9.172   5.754  65.898  1.00  0.00    -0.128 A  
HETATM   27  C   UNL     1      -7.393   3.201  63.838  1.00  0.00    -0.061 A  
HETATM   28  N   UNL     1      -8.468   6.703  67.854  1.00  0.00    -0.119 NA 
HETATM   29  C   UNL     1      -9.004   4.648  65.031  1.00  0.00    -0.152 A  
HETATM   30  C   UNL     1      -7.663   4.292  64.667  1.00  0.00    -0.077 A  
HETATM   31  C   UNL     1     -10.325   6.612  66.427  1.00  0.00    -0.002 C  
HETATM   32  C   UNL     1     -10.018   3.764  64.599  1.00  0.00    -0.199 A  
HETATM   33  C   UNL     1      -6.758   5.774  66.316  1.00  0.00    -0.057 A  
HETATM   34  C   UNL     1     -11.662   5.892  66.542  1.00  0.00     1.404 C  
HETATM   35  C   UNL     1     -10.524   7.893  65.578  1.00  0.00     2.859 C  
HETATM   36  C   UNL     1      -9.709   2.587  63.893  1.00  0.00    -0.140 A  
HETATM   37  C   UNL     1      -6.566   4.950  65.223  1.00  0.00    -0.037 A  
BRANCH  28  38
HETATM   38  C   UNL     1      -7.689   6.478  69.102  1.00  0.00    -0.102 C  
BRANCH  38  39
HETATM   39  C   UNL     1      -6.278   7.070  68.897  1.00  0.00    -0.027 C  
BRANCH  39  40
HETATM   40  C   UNL     1      -6.177   8.571  69.195  1.00  0.00    -0.043 C  
BRANCH  40  41
HETATM   41  C   UNL     1      -5.892   9.399  67.960  1.00  0.00    -0.041 C  
HETATM   42  O   UNL     1      -8.332  10.060  67.283  1.00  0.00    -0.121 OA 
HETATM   43  O   UNL     1      -6.979  11.656  68.741  1.00  0.00    -0.084 OA 
HETATM   44  S   UNL     1      -7.081  10.675  67.678  1.00  0.00    -0.085 S  
HETATM   45  O   UNL     1      -6.429  11.273  66.358  1.00  0.00    -0.132 OA 
ENDBRANCH  40  41
ENDBRANCH  39  40
ENDBRANCH  38  39
ENDBRANCH  28  38
ENDBRANCH  20  21
ENDBRANCH  18  19
ENDBRANCH   5  17
BRANCH   6  46
HETATM   46  C   UNL     1     -10.465  17.159  70.753  1.00  0.00     1.502 C  
BRANCH  46  47
HETATM   47  C   UNL     1      -9.912  17.525  69.384  1.00  0.00     0.002 C  
BRANCH  47  48
HETATM   48  C   UNL     1      -9.367  18.932  69.257  1.00  0.00    -0.029 C  
BRANCH  48  49
HETATM   49  C   UNL     1      -8.106  18.984  68.396  1.00  0.00    -0.346 C  
HETATM   50  O   UNL     1      -6.970  16.691  69.072  1.00  0.00    -0.188 OA 
HETATM   51  O   UNL     1      -6.307  17.856  67.007  1.00  0.00    -0.153 OA 
HETATM   52  O   UNL     1      -8.537  16.757  67.047  1.00  0.00    -0.192 OA 
HETATM   53  S   UNL     1      -7.564  17.345  67.926  1.00  0.00    -0.198 S  
ENDBRANCH  48  49
ENDBRANCH  47  48
ENDBRANCH  46  47
ENDBRANCH   6  46
TORSDOF 11
ENDMDL
MODEL       26
REMARK 921   NORMALIZED FREE ENERGY PREDICTED BY IDOCK:   25.32 KCAL/MOL
REMARK 922        TOTAL FREE ENERGY PREDICTED BY IDOCK:   37.17 KCAL/MOL
REMARK 923 INTER-LIGAND FREE ENERGY PREDICTED BY IDOCK:    8.16 KCAL/MOL
REMARK 924 INTRA-LIGAND FREE ENERGY PREDICTED BY IDOCK:   29.01 KCAL/MOL
REMARK 927      BINDING AFFINITY PREDICTED BY RF-SCORE:    0.00 PKD
ROOT
HETATM    1  C   UNL     1     -10.564   4.431  71.180  1.00  0.00     0.258 C  
HETATM    2  C   UNL     1      -9.773   4.328  69.873  1.00  0.00    -0.291 C  
HETATM    3  C   UNL     1     -10.093   4.827  68.448  1.00  0.00    -0.041 C  
HETATM    4  C   UNL     1     -10.533   2.945  69.319  1.00  0.00     2.337 C  
HETATM    5  C   UNL     1     -10.869   5.951  68.372  1.00  0.00    -0.322 C  
HETATM    6  N   UNL     1      -8.904   4.378  67.671  1.00  0.00    -0.105 NA 
HETATM    7  C   UNL     1      -6.570   7.049  68.355  1.00  0.00    -0.055 A  
HETATM    8  C   UNL     1      -7.102   5.997  67.678  1.00  0.00    -0.074 A  
HETATM    9  C   UNL     1      -7.954   5.187  68.386  1.00  0.00    -0.087 A  
HETATM   10  C   UNL     1      -6.919   7.719  72.402  1.00  0.00    -0.071 A  
HETATM   11  C   UNL     1      -8.286   5.178  69.791  1.00  0.00    -0.089 A  
HETATM   12  C   UNL     1      -6.291   8.641  71.565  1.00  0.00    -0.066 A  
HETATM   13  C   UNL     1      -7.622   6.260  70.508  1.00  0.00    -0.096 A  
HETATM   14  C   UNL     1      -6.824   7.205  69.712  1.00  0.00    -0.050 A  
HETATM   15  C   UNL     1      -6.256   8.376  70.217  1.00  0.00    -0.034 A  
HETATM   16  C   UNL     1      -7.591   6.577  71.886  1.00  0.00    -0.094 A  
ENDROOT
BRANCH   5  17
HETATM   17  C   UNL     1     -10.520   7.288  68.950  1.00  0.00    -0.216 C  
HETATM   18  C   UNL     1     -10.173   8.391  68.265  1.00  0.00    -0.244 C  
BRANCH  18  19
HETATM   19  C   UNL     1     -10.018   9.746  68.803  1.00  0.00    -0.179 C  
HETATM   20  C   UNL     1     -10.099  10.914  68.137  1.00  0.00    -0.190 C  
BRANCH  20  21
HETATM   21  C   UNL     1      -9.766  12.219  68.715  1.00  0.00     0.017 C  
HETATM   22  C   UNL     1      -8.448  14.419  68.381  1.00  0.00    -0.165 C  
HETATM   23  C   UNL     1      -5.431  19.618  70.996  1.00  0.00    -0.294 A  
HETATM   24  C   UNL     1      -7.226  16.214  67.897  1.00  0.00    -0.130 A  
HETATM   25  C   UNL     1      -9.114  13.140  67.988  1.00  0.00    -0.207 C  
HETATM   26  C   UNL     1      -6.940  16.036  69.245  1.00  0.00    -0.205 A  
HETATM   27  C   UNL     1      -5.218  19.321  69.659  1.00  0.00    -0.203 A  
HETATM   28  N   UNL     1      -8.272  15.369  67.511  1.00  0.00    -0.156 NA 
HETATM   29  C   UNL     1      -6.394  17.161  69.908  1.00  0.00    -0.049 A  
HETATM   30  C   UNL     1      -5.763  18.163  69.099  1.00  0.00    -0.211 A  
HETATM   31  C   UNL     1      -7.532  14.676  69.624  1.00  0.00    -0.029 C  
HETATM   32  C   UNL     1      -6.534  17.471  71.279  1.00  0.00     2.713 A  
HETATM   33  C   UNL     1      -6.609  17.163  67.095  1.00  0.00    -0.210 A  
HETATM   34  C   UNL     1      -8.225  14.632  70.980  1.00  0.00     2.981 C  
HETATM   35  C   UNL     1      -6.467  13.552  69.576  1.00  0.00    -0.089 C  
HETATM   36  C   UNL     1      -6.114  18.710  71.795  1.00  0.00     1.150 A  
HETATM   37  C   UNL     1      -5.773  18.077  67.707  1.00  0.00    -0.152 A  
BRANCH  28  38
HETATM   38  C   UNL     1      -9.248  15.825  66.484  1.00  0.00    -0.283 C  
BRANCH  38  39
HETATM   39  C   UNL     1     -10.655  15.373  66.928  1.00  0.00    -0.309 C  
BRANCH  39  40
HETATM   40  C   UNL     1     -11.753  16.418  66.698  1.00  0.00     1.110 C  
BRANCH  40  41
HETATM   41  C   UNL     1     -11.949  17.338  67.883  1.00  0.00     1.658 C  
HETATM   42  O   UNL     1     -10.584  16.037  69.698  1.00  0.00    -0.263 OA 
HETATM   43  O   UNL     1      -9.429  17.886  68.374  1.00  0.00    -0.282 OA 
HETATM   44  S   UNL     1     -10.596  17.318  69.021  1.00  0.00    -0.150 S  
HETATM   45  O   UNL     1     -11.182  18.374  70.054  1.00  0.00     2.242 OA 
ENDBRANCH  40  41
ENDBRANCH  39  40
ENDBRANCH  38  39
ENDBRANCH  28  38
ENDBRANCH  20  21
ENDBRANCH  18  19
ENDBRANCH   5  17
BRANCH   6  46
HETATM   46  C   UNL     1      -8.064   3.055  67.985  1.00  0.00    -0.077 C  
BRANCH  46  47
HETATM   47  C   UNL     1      -7.848   2.536  69.399  1.00  0.00    -0.049 C  
BRANCH  47  48
HETATM   48  C   UNL     1      -7.013   3.424  70.298  1.00  0.00    -0.034 C  
BRANCH  48  49
HETATM   49  C   UNL     1      -7.869   4.425  71.071  1.00  0.00    -0.068 C  
HETATM   50  O   UNL     1      -9.631   2.793  72.182  1.00  0.00    -0.113 OA 
HETATM   51  O   UNL     1      -9.295   5.064  73.071  1.00  0.00    -0.129 OA 
HETATM   52  O   UNL     1      -7.499   3.390  73.470  1.00  0.00    -0.054 OA 
HETATM   53  S   UNL     1      -8.561   3.694  72.550  1.00  0.00    -0.090 S  
ENDBRANCH  48  49
ENDBRANCH  47  48
ENDBRANCH  46  47
ENDBRANCH   6  46
TORSDOF 11
ENDMDL
MODEL       27
REMARK 921   NORMALIZED FREE ENERGY PREDICTED BY IDOCK:   37.02 KCAL/MOL
REMARK 922        TOTAL FREE ENERGY PREDICTED BY IDOCK:   56.40 KCAL/MOL
REMARK 923 INTER-LIGAND FREE ENERGY PREDICTED BY IDOCK:   11.63 KCAL/MOL
REMARK 924 INTRA-LIGAND FREE ENERGY PREDICTED BY IDOCK:   44.77 KCAL/MOL
REMARK 927      BINDING AFFINITY PREDICTED BY RF-SCORE:    0.00 PKD
ROOT
HETATM    1  C   UNL     1      -8.192  16.736  70.592  1.00  0.00     4.073 C  
HETATM    2  C   UNL     1      -7.545  16.821  69.207  1.00  0.00    -0.103 C  
HETATM    3  C   UNL     1      -6.066  16.752  68.769  1.00  0.00    -0.147 C  
HETATM    4  C   UNL     1      -7.217  18.460  69.271  1.00  0.00    -0.108 C  
HETATM    5  C   UNL     1      -5.247  15.994  69.560  1.00  0.00    -0.111 C  
HETATM    6  N   UNL     1      -6.157  16.917  67.291  1.00  0.00    -0.146 NA 
HETATM    7  C   UNL     1      -6.886  13.536  66.251  1.00  0.00     3.567 A  
HETATM    8  C   UNL     1      -6.453  14.817  66.120  1.00  0.00     5.024 A  
HETATM    9  C   UNL     1      -6.904  15.710  67.060  1.00  0.00     0.026 A  
HETATM   10  C   UNL     1      -9.763  12.237  68.894  1.00  0.00     0.126 A  
HETATM   11  C   UNL     1      -7.887  15.553  68.105  1.00  0.00    -0.129 A  
HETATM   12  C   UNL     1      -9.064  11.341  68.086  1.00  0.00    -0.166 A  
HETATM   13  C   UNL     1      -8.406  14.191  68.156  1.00  0.00    -0.161 A  
HETATM   14  C   UNL     1      -7.810  13.209  67.237  1.00  0.00    -0.125 A  
HETATM   15  C   UNL     1      -8.081  11.840  67.264  1.00  0.00    -0.164 A  
HETATM   16  C   UNL     1      -9.425  13.617  68.950  1.00  0.00     0.118 A  
ENDROOT
BRANCH   5  17
HETATM   17  C   UNL     1      -5.415  14.532  69.836  1.00  0.00    -0.098 C  
HETATM   18  C   UNL     1      -6.570  13.844  69.835  1.00  0.00    -0.028 C  
BRANCH  18  19
HETATM   19  C   UNL     1      -6.725  12.389  69.914  1.00  0.00     0.221 C  
HETATM   20  C   UNL     1      -7.105  11.544  68.936  1.00  0.00    -0.111 C  
BRANCH  20  21
HETATM   21  C   UNL     1      -7.397  10.122  69.140  1.00  0.00    -0.089 C  
HETATM   22  C   UNL     1      -7.832   8.271  70.893  1.00  0.00    -0.091 C  
HETATM   23  C   UNL     1      -7.649   1.928  72.536  1.00  0.00    -0.043 A  
HETATM   24  C   UNL     1      -8.159   6.843  72.567  1.00  0.00    -0.102 A  
HETATM   25  C   UNL     1      -7.727   9.663  70.358  1.00  0.00    -0.178 C  
HETATM   26  C   UNL     1      -7.343   6.101  71.722  1.00  0.00    -0.093 A  
HETATM   27  C   UNL     1      -7.826   2.875  73.533  1.00  0.00    -0.060 A  
HETATM   28  N   UNL     1      -8.578   8.014  71.927  1.00  0.00    -0.125 NA 
HETATM   29  C   UNL     1      -7.343   4.703  71.941  1.00  0.00    -0.070 A  
HETATM   30  C   UNL     1      -7.766   4.237  73.230  1.00  0.00    -0.082 A  
HETATM   31  C   UNL     1      -6.847   7.079  70.653  1.00  0.00    -0.054 C  
HETATM   32  C   UNL     1      -7.108   3.706  70.969  1.00  0.00    -0.033 A  
HETATM   33  C   UNL     1      -8.559   6.416  73.825  1.00  0.00    -0.130 A  
HETATM   34  C   UNL     1      -6.815   6.520  69.236  1.00  0.00    -0.065 C  
HETATM   35  C   UNL     1      -5.445   7.642  70.995  1.00  0.00    -0.030 C  
HETATM   36  C   UNL     1      -7.321   2.345  71.252  1.00  0.00    -0.033 A  
HETATM   37  C   UNL     1      -8.248   5.121  74.194  1.00  0.00    -0.103 A  
BRANCH  28  38
HETATM   38  C   UNL     1      -9.935   8.559  72.200  1.00  0.00    -0.317 C  
BRANCH  38  39
HETATM   39  C   UNL     1     -10.431   9.269  70.923  1.00  0.00    -0.372 C  
BRANCH  39  40
HETATM   40  C   UNL     1     -11.718   8.679  70.334  1.00  0.00    -0.016 C  
BRANCH  40  41
HETATM   41  C   UNL     1     -11.948   9.085  68.895  1.00  0.00     1.839 C  
HETATM   42  O   UNL     1     -13.312  11.289  69.259  1.00  0.00     0.915 OA 
HETATM   43  O   UNL     1     -10.784  11.436  68.960  1.00  0.00    -0.205 OA 
HETATM   44  S   UNL     1     -12.070  10.834  68.668  1.00  0.00     0.312 S  
HETATM   45  O   UNL     1     -12.291  10.821  67.095  1.00  0.00     1.240 OA 
ENDBRANCH  40  41
ENDBRANCH  39  40
ENDBRANCH  38  39
ENDBRANCH  28  38
ENDBRANCH  20  21
ENDBRANCH  18  19
ENDBRANCH   5  17
BRANCH   6  46
HETATM   46  C   UNL     1      -7.269  17.788  66.544  1.00  0.00    -0.243 C  
BRANCH  46  47
HETATM   47  C   UNL     1      -7.596  19.220  66.943  1.00  0.00    -0.253 C  
BRANCH  47  48
HETATM   48  C   UNL     1      -9.067  19.520  67.138  1.00  0.00    -0.375 C  
BRANCH  48  49
HETATM   49  C   UNL     1      -9.743  18.505  68.056  1.00  0.00    -0.327 C  
HETATM   50  O   UNL     1     -11.011  17.015  66.273  1.00  0.00    -0.029 OA 
HETATM   51  O   UNL     1     -10.601  16.167  68.547  1.00  0.00    -0.256 OA 
HETATM   52  O   UNL     1      -8.653  16.340  67.012  1.00  0.00    -0.176 OA 
HETATM   53  S   UNL     1      -9.946  16.921  67.248  1.00  0.00    -0.285 S  
ENDBRANCH  48  49
ENDBRANCH  47  48
ENDBRANCH  46  47
ENDBRANCH   6  46
TORSDOF 11
ENDMDL
MODEL       28
REMARK 921   NORMALIZED FREE ENERGY PREDICTED BY IDOCK:   37.05 KCAL/MOL
REMARK 922        TOTAL FREE ENERGY PREDICTED BY IDOCK:   56.44 KCAL/MOL
REMARK 923 INTER-LIGAND FREE ENERGY PREDICTED BY IDOCK:   25.82 KCAL/MOL
REMARK 924 INTRA-LIGAND FREE ENERGY PREDICTED BY IDOCK:   30.63 KCAL/MOL
REMARK 927      BINDING AFFINITY PREDICTED BY RF-SCORE:    0.00 PKD
ROOT
HETATM    1  C   UNL     1      -9.330   5.116  65.846  1.00  0.00    -0.167 C  
HETATM    2  C   UNL     1      -8.441   5.158  67.092  1.00  0.00    -0.106 C  
HETATM    3  C   UNL     1      -7.033   5.748  67.318  1.00  0.00    -0.065 C  
HETATM    4  C   UNL     1      -7.562   3.784  66.722  1.00  0.00    -0.080 C  
HETATM    5  C   UNL     1      -6.713   6.833  66.549  1.00  0.00    -0.049 C  
HETATM    6  N   UNL     1      -6.771   5.424  68.749  1.00  0.00    -0.051 NA 
HETATM    7  C   UNL     1      -8.459   8.153  70.408  1.00  0.00    -0.129 A  
HETATM    8  C   UNL     1      -7.575   7.131  70.269  1.00  0.00    -0.090 A  
HETATM    9  C   UNL     1      -7.844   6.225  69.274  1.00  0.00    -0.105 A  
HETATM   10  C   UNL     1     -12.063   8.487  68.446  1.00  0.00     3.503 A  
HETATM   11  C   UNL     1      -9.000   6.089  68.420  1.00  0.00    -0.114 A  
HETATM   12  C   UNL     1     -11.593   9.503  69.277  1.00  0.00     0.281 A  
HETATM   13  C   UNL     1      -9.975   7.145  68.661  1.00  0.00    -0.161 A  
HETATM   14  C   UNL     1      -9.610   8.190  69.629  1.00  0.00    -0.168 A  
HETATM   15  C   UNL     1     -10.358   9.347  69.859  1.00  0.00    -0.252 A  
HETATM   16  C   UNL     1     -11.267   7.355  68.123  1.00  0.00     0.268 A  
ENDROOT
BRANCH   5  17
HETATM   17  C   UNL     1      -7.449   8.137  66.536  1.00  0.00    -0.088 C  
HETATM   18  C   UNL     1      -8.638   8.392  67.108  1.00  0.00    -0.123 C  
BRANCH  18  19
HETATM   19  C   UNL     1      -9.274   9.703  67.265  1.00  0.00    -0.154 C  
HETATM   20  C   UNL     1      -9.463  10.647  66.324  1.00  0.00    -0.213 C  
BRANCH  20  21
HETATM   21  C   UNL     1      -9.958  12.000  66.599  1.00  0.00    -0.219 C  
HETATM   22  C   UNL     1      -9.328  14.503  66.757  1.00  0.00    -0.261 C  
HETATM   23  C   UNL     1     -10.492  20.447  69.266  1.00  0.00     0.245 A  
HETATM   24  C   UNL     1      -8.561  16.590  66.854  1.00  0.00    -0.207 A  
HETATM   25  C   UNL     1      -9.185  13.070  66.357  1.00  0.00    -0.141 C  
HETATM   26  C   UNL     1      -9.377  16.538  67.978  1.00  0.00    -0.218 A  
HETATM   27  C   UNL     1      -9.283  20.211  68.630  1.00  0.00     0.002 A  
HETATM   28  N   UNL     1      -8.745  15.444  66.074  1.00  0.00    -0.107 NA 
HETATM   29  C   UNL     1      -9.769  17.791  68.508  1.00  0.00    -0.343 A  
HETATM   30  C   UNL     1      -8.963  18.930  68.177  1.00  0.00    -0.346 A  
HETATM   31  C   UNL     1      -9.761  15.066  68.152  1.00  0.00    -0.215 C  
HETATM   32  C   UNL     1     -10.962  18.062  69.215  1.00  0.00     1.053 A  
HETATM   33  C   UNL     1      -7.759  17.674  66.531  1.00  0.00    -0.305 A  
HETATM   34  C   UNL     1     -11.213  14.822  68.544  1.00  0.00    -0.291 C  
HETATM   35  C   UNL     1      -8.844  14.350  69.175  1.00  0.00     0.096 C  
HETATM   36  C   UNL     1     -11.342  19.379  69.529  1.00  0.00     3.485 A  
HETATM   37  C   UNL     1      -7.891  18.821  67.290  1.00  0.00    -0.243 A  
BRANCH  28  38
HETATM   38  C   UNL     1      -8.655  15.539  64.592  1.00  0.00     6.323 C  
BRANCH  38  39
HETATM   39  C   UNL     1      -9.754  14.640  63.987  1.00  0.00     3.718 C  
BRANCH  39  40
HETATM   40  C   UNL     1     -11.146  14.858  64.591  1.00  0.00    -0.335 C  
BRANCH  40  41
HETATM   41  C   UNL     1     -11.739  13.594  65.177  1.00  0.00    -0.331 C  
HETATM   42  O   UNL     1     -14.278  14.228  65.147  1.00  0.00     1.354 OA 
HETATM   43  O   UNL     1     -13.305  12.932  63.178  1.00  0.00     0.373 OA 
HETATM   44  S   UNL     1     -13.369  13.245  64.592  1.00  0.00     1.198 S  
HETATM   45  O   UNL     1     -13.597  11.902  65.411  1.00  0.00     2.512 OA 
ENDBRANCH  40  41
ENDBRANCH  39  40
ENDBRANCH  38  39
ENDBRANCH  28  38
ENDBRANCH  20  21
ENDBRANCH  18  19
ENDBRANCH   5  17
BRANCH   6  46
HETATM   46  C   UNL     1      -7.326   4.128  69.500  1.00  0.00    -0.050 C  
BRANCH  46  47
HETATM   47  C   UNL     1      -7.479   2.781  68.809  1.00  0.00    -0.048 C  
BRANCH  47  48
HETATM   48  C   UNL     1      -7.320   2.800  67.304  1.00  0.00    -0.057 C  
BRANCH  48  49
HETATM   49  C   UNL     1      -8.651   2.592  66.583  1.00  0.00    -0.112 C  
HETATM   50  O   UNL     1     -10.082   1.500  68.524  1.00  0.00     0.130 OA 
HETATM   51  O   UNL     1     -11.187   2.501  66.566  1.00  0.00     5.898 OA 
HETATM   52  O   UNL     1     -10.137   4.042  68.212  1.00  0.00     0.042 OA 
HETATM   53  S   UNL     1     -10.033   2.698  67.713  1.00  0.00     1.281 S  
ENDBRANCH  48  49
ENDBRANCH  47  48
ENDBRANCH  46  47
ENDBRANCH   6  46
TORSDOF 11
ENDMDL
MODEL       29
REMARK 921   NORMALIZED FREE ENERGY PREDICTED BY IDOCK:   45.62 KCAL/MOL
REMARK 922        TOTAL FREE ENERGY PREDICTED BY IDOCK:   70.53 KCAL/MOL
REMARK 923 INTER-LIGAND FREE ENERGY PREDICTED BY IDOCK:   56.63 KCAL/MOL
REMARK 924 INTRA-LIGAND FREE ENERGY PREDICTED BY IDOCK:   13.90 KCAL/MOL
REMARK 927      BINDING AFFINITY PREDICTED BY RF-SCORE:    0.00 PKD
ROOT
HETATM    1  C   UNL     1     -12.287  14.586  71.137  1.00  0.00    -0.415 C  
HETATM    2  C   UNL     1     -11.007  15.416  70.999  1.00  0.00    -0.309 C  
HETATM    3  C   UNL     1      -9.621  15.265  71.661  1.00  0.00     3.317 C  
HETATM    4  C   UNL     1     -11.289  16.389  72.330  1.00  0.00     0.164 C  
HETATM    5  C   UNL     1      -9.250  13.988  71.980  1.00  0.00     9.333 C  
HETATM    6  N   UNL     1      -8.862  16.414  71.091  1.00  0.00     4.779 NA 
HETATM    7  C   UNL     1      -7.782  15.043  67.929  1.00  0.00    -0.145 A  
HETATM    8  C   UNL     1      -7.763  15.879  68.999  1.00  0.00    -0.209 A  
HETATM    9  C   UNL     1      -8.924  15.962  69.727  1.00  0.00     0.134 A  
HETATM   10  C   UNL     1     -11.113  13.141  66.432  1.00  0.00    -0.311 A  
HETATM   11  C   UNL     1     -10.231  15.408  69.470  1.00  0.00    -0.273 A  
HETATM   12  C   UNL     1      -9.844  12.899  65.909  1.00  0.00    -0.239 A  
HETATM   13  C   UNL     1     -10.243  14.596  68.259  1.00  0.00    -0.227 A  
HETATM   14  C   UNL     1      -8.960  14.400  67.567  1.00  0.00    -0.192 A  
HETATM   15  C   UNL     1      -8.770  13.530  66.492  1.00  0.00     0.087 A  
HETATM   16  C   UNL     1     -11.306  13.942  67.592  1.00  0.00    -0.335 A  
ENDROOT
BRANCH   5  17
HETATM   17  C   UNL     1      -9.103  12.858  71.009  1.00  0.00    10.974 C  
HETATM   18  C   UNL     1      -9.588  12.809  69.756  1.00  0.00     2.172 C  
BRANCH  18  19
HETATM   19  C   UNL     1      -9.290  11.798  68.738  1.00  0.00    -0.019 C  
HETATM   20  C   UNL     1      -9.992  11.516  67.624  1.00  0.00    -0.199 C  
BRANCH  20  21
HETATM   21  C   UNL     1      -9.719  10.377  66.742  1.00  0.00    -0.224 C  
HETATM   22  C   UNL     1      -9.045   7.882  66.638  1.00  0.00    -0.163 C  
HETATM   23  C   UNL     1      -6.301   2.932  63.330  1.00  0.00    -0.018 A  
HETATM   24  C   UNL     1      -8.438   5.746  66.784  1.00  0.00    -0.112 A  
HETATM   25  C   UNL     1      -9.559   9.145  67.251  1.00  0.00    -0.200 C  
HETATM   26  C   UNL     1      -7.654   6.188  65.726  1.00  0.00    -0.084 A  
HETATM   27  C   UNL     1      -6.539   2.782  64.688  1.00  0.00    -0.035 A  
HETATM   28  N   UNL     1      -9.377   6.724  67.129  1.00  0.00    -0.132 NA 
HETATM   29  C   UNL     1      -7.122   5.175  64.893  1.00  0.00    -0.062 A  
HETATM   30  C   UNL     1      -7.026   3.853  65.440  1.00  0.00    -0.061 A  
HETATM   31  C   UNL     1      -7.804   7.712  65.700  1.00  0.00    -0.109 C  
HETATM   32  C   UNL     1      -6.808   5.302  63.522  1.00  0.00    -0.041 A  
HETATM   33  C   UNL     1      -8.343   4.479  67.339  1.00  0.00    -0.104 A  
HETATM   34  C   UNL     1      -7.935   8.321  64.310  1.00  0.00    -0.148 C  
HETATM   35  C   UNL     1      -6.641   8.417  66.442  1.00  0.00    -0.058 C  
HETATM   36  C   UNL     1      -6.465   4.181  62.744  1.00  0.00    -0.022 A  
HETATM   37  C   UNL     1      -7.527   3.560  66.708  1.00  0.00    -0.076 A  
BRANCH  28  38
HETATM   38  C   UNL     1     -10.726   6.316  67.606  1.00  0.00    -0.313 C  
BRANCH  38  39
HETATM   39  C   UNL     1     -10.847   6.711  69.093  1.00  0.00    -0.329 C  
BRANCH  39  40
HETATM   40  C   UNL     1     -10.139   5.753  70.058  1.00  0.00    -0.279 C  
BRANCH  40  41
HETATM   41  C   UNL     1     -11.046   4.656  70.571  1.00  0.00     1.622 C  
HETATM   42  O   UNL     1     -11.704   3.516  68.309  1.00  0.00     9.470 OA 
HETATM   43  O   UNL     1      -9.731   2.588  69.632  1.00  0.00    -0.041 OA 
HETATM   44  S   UNL     1     -11.040   3.207  69.560  1.00  0.00     7.244 S  
HETATM   45  O   UNL     1     -12.066   2.352  70.422  1.00  0.00    10.006 OA 
ENDBRANCH  40  41
ENDBRANCH  39  40
ENDBRANCH  38  39
ENDBRANCH  28  38
ENDBRANCH  20  21
ENDBRANCH  18  19
ENDBRANCH   5  17
BRANCH   6  46
HETATM   46  C   UNL     1      -9.512  17.818  70.690  1.00  0.00     3.827 C  
BRANCH  46  47
HETATM   47  C   UNL     1      -9.631  18.285  69.247  1.00  0.00     0.045 C  
BRANCH  47  48
HETATM   48  C   UNL     1      -8.798  19.497  68.885  1.00  0.00    -0.297 C  
BRANCH  48  49
HETATM   49  C   UNL     1      -7.982  19.274  67.613  1.00  0.00    -0.278 C  
HETATM   50  O   UNL     1      -9.865  18.372  65.986  1.00  0.00    -0.489 OA 
HETATM   51  O   UNL     1      -7.752  19.255  65.086  1.00  0.00    -0.134 OA 
HETATM   52  O   UNL     1      -9.367  20.884  66.046  1.00  0.00     0.363 OA 
HETATM   53  S   UNL     1      -8.978  19.504  66.145  1.00  0.00    -0.229 S  
ENDBRANCH  48  49
ENDBRANCH  47  48
ENDBRANCH  46  47
ENDBRANCH   6  46
TORSDOF 11
ENDMDL
MODEL       30
REMARK 921   NORMALIZED FREE ENERGY PREDICTED BY IDOCK:   57.15 KCAL/MOL
REMARK 922        TOTAL FREE ENERGY PREDICTED BY IDOCK:   89.48 KCAL/MOL
REMARK 923 INTER-LIGAND FREE ENERGY PREDICTED BY IDOCK:   72.91 KCAL/MOL
REMARK 924 INTRA-LIGAND FREE ENERGY PREDICTED BY IDOCK:   16.57 KCAL/MOL
REMARK 927      BINDING AFFINITY PREDICTED BY RF-SCORE:    0.00 PKD
ROOT
HETATM    1  C   UNL     1     -13.903  16.959  73.050  1.00  0.00     2.141 C  
HETATM    2  C   UNL     1     -12.479  17.382  72.678  1.00  0.00     2.948 C  
HETATM    3  C   UNL     1     -11.116  17.038  73.317  1.00  0.00     2.251 C  
HETATM    4  C   UNL     1     -12.399  18.672  73.740  1.00  0.00     5.424 C  
HETATM    5  C   UNL     1     -11.037  15.816  73.926  1.00  0.00     2.143 C  
HETATM    6  N   UNL     1     -10.157  17.795  72.464  1.00  0.00     6.431 NA 
HETATM    7  C   UNL     1      -9.723  15.510  69.700  1.00  0.00    -0.276 A  
HETATM    8  C   UNL     1      -9.409  16.535  70.534  1.00  0.00     2.397 A  
HETATM    9  C   UNL     1     -10.447  17.074  71.253  1.00  0.00     2.326 A  
HETATM   10  C   UNL     1     -13.533  14.230  68.806  1.00  0.00     4.055 A  
HETATM   11  C   UNL     1     -11.867  16.828  71.175  1.00  0.00     0.714 A  
HETATM   12  C   UNL     1     -12.410  13.559  68.322  1.00  0.00     0.060 A  
HETATM   13  C   UNL     1     -12.181  15.792  70.199  1.00  0.00    -0.340 A  
HETATM   14  C   UNL     1     -11.049  15.123  69.540  1.00  0.00    -0.287 A  
HETATM   15  C   UNL     1     -11.170  14.012  68.703  1.00  0.00    -0.294 A  
HETATM   16  C   UNL     1     -13.424  15.296  69.741  1.00  0.00     1.026 A  
ENDROOT
BRANCH   5  17
HETATM   17  C   UNL     1     -11.253  14.495  73.256  1.00  0.00     1.414 C  
HETATM   18  C   UNL     1     -10.639  14.050  72.146  1.00  0.00     4.746 C  
BRANCH  18  19
HETATM   19  C   UNL     1     -10.700  12.694  71.593  1.00  0.00     7.452 C  
HETATM   20  C   UNL     1     -11.601  11.730  71.865  1.00  0.00     3.238 C  
BRANCH  20  21
HETATM   21  C   UNL     1     -11.495  10.346  71.396  1.00  0.00     0.034 C  
HETATM   22  C   UNL     1     -10.177   8.703  69.894  1.00  0.00    -0.203 C  
HETATM   23  C   UNL     1     -10.058   3.200  66.333  1.00  0.00     0.860 A  
HETATM   24  C   UNL     1      -8.919   7.479  68.527  1.00  0.00    -0.128 A  
HETATM   25  C   UNL     1     -10.428   9.946  70.685  1.00  0.00    -0.301 C  
HETATM   26  C   UNL     1     -10.194   7.022  68.218  1.00  0.00    -0.206 A  
HETATM   27  C   UNL     1      -9.026   4.116  66.190  1.00  0.00    -0.126 A  
HETATM   28  N   UNL     1      -8.963   8.302  69.658  1.00  0.00    -0.148 NA 
HETATM   29  C   UNL     1     -10.252   5.776  67.551  1.00  0.00    -0.239 A  
HETATM   30  C   UNL     1      -9.075   5.342  66.855  1.00  0.00    -0.114 A  
HETATM   31  C   UNL     1     -11.164   7.977  68.920  1.00  0.00     0.409 C  
HETATM   32  C   UNL     1     -11.309   4.841  67.620  1.00  0.00     3.041 A  
HETATM   33  C   UNL     1      -7.773   7.088  67.851  1.00  0.00    -0.113 A  
HETATM   34  C   UNL     1     -12.366   7.306  69.572  1.00  0.00     1.325 C  
HETATM   35  C   UNL     1     -11.673   9.084  67.964  1.00  0.00     1.940 C  
HETATM   36  C   UNL     1     -11.182   3.552  67.072  1.00  0.00     5.794 A  
HETATM   37  C   UNL     1      -7.891   6.077  66.917  1.00  0.00    -0.101 A  
BRANCH  28  38
HETATM   38  C   UNL     1      -7.827   8.296  70.619  1.00  0.00    -0.092 C  
BRANCH  38  39
HETATM   39  C   UNL     1      -6.599   8.906  69.910  1.00  0.00    -0.042 C  
BRANCH  39  40
HETATM   40  C   UNL     1      -6.592  10.439  69.871  1.00  0.00    -0.124 C  
BRANCH  40  41
HETATM   41  C   UNL     1      -6.961  10.995  68.512  1.00  0.00    -0.070 C  
HETATM   42  O   UNL     1      -5.378   9.568  66.993  1.00  0.00    -0.038 OA 
HETATM   43  O   UNL     1      -7.768   8.769  67.382  1.00  0.00    -0.095 OA 
HETATM   44  S   UNL     1      -6.790   9.823  67.201  1.00  0.00    -0.084 S  
HETATM   45  O   UNL     1      -7.262  10.771  66.016  1.00  0.00    -0.135 OA 
ENDBRANCH  40  41
ENDBRANCH  39  40
ENDBRANCH  38  39
ENDBRANCH  28  38
ENDBRANCH  20  21
ENDBRANCH  18  19
ENDBRANCH   5  17
BRANCH   6  46
HETATM   46  C   UNL     1     -10.483  19.188  71.752  1.00  0.00     3.457 C  
BRANCH  46  47
HETATM   47  C   UNL     1     -10.496  19.354  70.239  1.00  0.00     1.297 C  
BRANCH  47  48
HETATM   48  C   UNL     1      -9.782  20.581  69.714  1.00  0.00     0.779 C  
BRANCH  48  49
HETATM   49  C   UNL     1      -8.274  20.365  69.606  1.00  0.00     1.142 C  
HETATM   50  O   UNL     1      -7.748  19.435  72.027  1.00  0.00     3.267 OA 
HETATM   51  O   UNL     1      -6.157  19.088  70.181  1.00  0.00    -0.238 OA 
HETATM   52  O   UNL     1      -8.273  17.781  70.143  1.00  0.00     1.793 OA 
HETATM   53  S   UNL     1      -7.728  19.014  70.643  1.00  0.00     2.799 S  
ENDBRANCH  48  49
ENDBRANCH  47  48
ENDBRANCH  46  47
ENDBRANCH   6  46
TORSDOF 11
ENDMDL
