MODEL        1
REMARK 921   NORMALIZED FREE ENERGY PREDICTED BY IDOCK:   -7.30 KCAL/MOL
REMARK 922        TOTAL FREE ENERGY PREDICTED BY IDOCK:   -9.51 KCAL/MOL
REMARK 923 INTER-LIGAND FREE ENERGY PREDICTED BY IDOCK:   -8.58 KCAL/MOL
REMARK 924 INTRA-LIGAND FREE ENERGY PREDICTED BY IDOCK:   -0.93 KCAL/MOL
REMARK 927      BINDING AFFINITY PREDICTED BY RF-SCORE:    0.00 PKD
ROOT
HETATM    1  C   UNL     1     -12.135  15.979  72.817  1.00  0.00    -0.531 C  
HETATM    2  O   UNL     1     -11.902  14.773  72.096  1.00  0.00    -0.327 OA 
ENDROOT
BRANCH   2   3
HETATM    3  C   UNL     1     -11.766  14.885  70.739  1.00  0.00    -0.311 A  
HETATM    4  C   UNL     1     -11.766  13.822  69.837  1.00  0.00    -0.353 A  
HETATM    5  C   UNL     1     -11.587  14.061  68.454  1.00  0.00    -0.366 A  
HETATM    6  C   UNL     1     -11.368  15.363  68.003  1.00  0.00    -0.341 A  
HETATM    7  C   UNL     1     -11.470  16.447  68.898  1.00  0.00    -0.216 A  
HETATM    8  N   UNL     1     -11.069  15.302  66.630  1.00  0.00    -0.309 N  
HETATM    9  C   UNL     1     -10.591  16.377  65.820  1.00  0.00    -0.315 C  
HETATM   10  C   UNL     1     -11.639  16.182  70.262  1.00  0.00    -0.271 A  
HETATM   11  C   UNL     1     -11.331  13.987  66.207  1.00  0.00    -0.333 A  
HETATM   12  C   UNL     1     -11.637  13.206  67.318  1.00  0.00    -0.404 A  
HETATM   13  O   UNL     1     -10.829  16.331  64.617  1.00  0.00    -0.687 OA 
HETATM   14  C   UNL     1     -11.187  13.507  64.794  1.00  0.00    -0.363 C  
BRANCH   9  15
HETATM   15  C   UNL     1      -9.847  17.576  66.308  1.00  0.00    -0.295 A  
HETATM   16  C   UNL     1      -8.560  17.390  66.835  1.00  0.00    -0.270 A  
HETATM   17  C   UNL     1     -10.390  18.867  66.267  1.00  0.00    -0.512 A  
HETATM   18  C   UNL     1      -9.597  19.969  66.603  1.00  0.00    -0.548 A  
HETATM   19 CL   UNL     1      -7.284  21.136  67.368  1.00  0.00    -0.373 Cl 
HETATM   20  C   UNL     1      -8.287  19.777  67.040  1.00  0.00    -0.309 A  
HETATM   21  C   UNL     1      -7.778  18.490  67.196  1.00  0.00    -0.232 A  
ENDBRANCH   9  15
BRANCH  12  22
HETATM   22  C   UNL     1     -11.896  11.721  67.341  1.00  0.00    -0.210 C  
HETATM   23  O   UNL     1      -9.520  11.334  67.831  1.00  0.00    -0.169 OA 
HETATM   24  C   UNL     1     -10.710  10.788  67.512  1.00  0.00    -0.264 C  
HETATM   25  O   UNL     1     -10.827   9.575  67.379  1.00  0.00    -0.269 OA 
ENDBRANCH  12  22
ENDBRANCH   2   3
TORSDOF 3
ENDMDL
MODEL        2
REMARK 921   NORMALIZED FREE ENERGY PREDICTED BY IDOCK:   -7.26 KCAL/MOL
REMARK 922        TOTAL FREE ENERGY PREDICTED BY IDOCK:   -9.46 KCAL/MOL
REMARK 923 INTER-LIGAND FREE ENERGY PREDICTED BY IDOCK:   -8.70 KCAL/MOL
REMARK 924 INTRA-LIGAND FREE ENERGY PREDICTED BY IDOCK:   -0.76 KCAL/MOL
REMARK 927      BINDING AFFINITY PREDICTED BY RF-SCORE:    0.00 PKD
ROOT
HETATM    1  C   UNL     1     -10.666  19.134  66.938  1.00  0.00    -0.424 C  
HETATM    2  O   UNL     1     -10.038  18.413  67.994  1.00  0.00    -0.332 OA 
ENDROOT
BRANCH   2   3
HETATM    3  C   UNL     1     -10.530  17.166  68.263  1.00  0.00    -0.373 A  
HETATM    4  C   UNL     1     -10.867  16.686  69.528  1.00  0.00    -0.285 A  
HETATM    5  C   UNL     1     -11.341  15.363  69.686  1.00  0.00    -0.315 A  
HETATM    6  C   UNL     1     -11.431  14.526  68.573  1.00  0.00    -0.301 A  
HETATM    7  C   UNL     1     -11.191  15.039  67.282  1.00  0.00    -0.339 A  
HETATM    8  N   UNL     1     -11.774  13.239  69.023  1.00  0.00    -0.302 N  
HETATM    9  C   UNL     1     -11.779  12.043  68.243  1.00  0.00    -0.334 C  
HETATM   10  C   UNL     1     -10.713  16.350  67.155  1.00  0.00    -0.233 A  
HETATM   11  C   UNL     1     -12.114  13.353  70.383  1.00  0.00    -0.333 A  
HETATM   12  C   UNL     1     -11.840  14.649  70.811  1.00  0.00    -0.372 A  
HETATM   13  O   UNL     1     -12.527  11.137  68.598  1.00  0.00    -0.463 OA 
HETATM   14  C   UNL     1     -12.587  12.216  71.237  1.00  0.00    -0.341 C  
BRANCH   9  15
HETATM   15  C   UNL     1     -10.974  11.800  67.010  1.00  0.00    -0.333 A  
HETATM   16  C   UNL     1      -9.668  11.308  67.156  1.00  0.00    -0.201 A  
HETATM   17  C   UNL     1     -11.470  12.054  65.725  1.00  0.00    -0.377 A  
HETATM   18  C   UNL     1     -10.727  11.674  64.602  1.00  0.00    -0.371 A  
HETATM   19 CL   UNL     1      -8.592  10.553  63.386  1.00  0.00    -0.178 Cl 
HETATM   20  C   UNL     1      -9.466  11.101  64.762  1.00  0.00    -0.218 A  
HETATM   21  C   UNL     1      -8.916  10.953  66.033  1.00  0.00    -0.200 A  
ENDBRANCH   9  15
BRANCH  12  22
HETATM   22  C   UNL     1     -11.966  15.189  72.214  1.00  0.00    -0.485 C  
HETATM   23  O   UNL     1     -14.330  15.704  71.783  1.00  0.00    -0.448 OA 
HETATM   24  C   UNL     1     -13.282  15.829  72.621  1.00  0.00    -0.502 C  
HETATM   25  O   UNL     1     -13.399  16.427  73.685  1.00  0.00    -0.640 OA 
ENDBRANCH  12  22
ENDBRANCH   2   3
TORSDOF 3
ENDMDL
MODEL        3
REMARK 921   NORMALIZED FREE ENERGY PREDICTED BY IDOCK:   -7.02 KCAL/MOL
REMARK 922        TOTAL FREE ENERGY PREDICTED BY IDOCK:   -9.18 KCAL/MOL
REMARK 923 INTER-LIGAND FREE ENERGY PREDICTED BY IDOCK:   -8.32 KCAL/MOL
REMARK 924 INTRA-LIGAND FREE ENERGY PREDICTED BY IDOCK:   -0.86 KCAL/MOL
REMARK 927      BINDING AFFINITY PREDICTED BY RF-SCORE:    0.00 PKD
ROOT
HETATM    1  C   UNL     1     -12.577  15.671  74.190  1.00  0.00    -0.616 C  
HETATM    2  O   UNL     1     -13.525  15.024  73.346  1.00  0.00    -0.487 OA 
ENDROOT
BRANCH   2   3
HETATM    3  C   UNL     1     -13.059  14.548  72.151  1.00  0.00    -0.356 A  
HETATM    4  C   UNL     1     -12.932  13.201  71.812  1.00  0.00    -0.435 A  
HETATM    5  C   UNL     1     -12.408  12.829  70.553  1.00  0.00    -0.355 A  
HETATM    6  C   UNL     1     -11.979  13.817  69.666  1.00  0.00    -0.342 A  
HETATM    7  C   UNL     1     -12.201  15.177  69.963  1.00  0.00    -0.379 A  
HETATM    8  N   UNL     1     -11.365  13.182  68.572  1.00  0.00    -0.265 N  
HETATM    9  C   UNL     1     -10.619  13.819  67.534  1.00  0.00    -0.244 C  
HETATM   10  C   UNL     1     -12.713  15.518  71.221  1.00  0.00    -0.526 A  
HETATM   11  C   UNL     1     -11.628  11.806  68.691  1.00  0.00    -0.309 A  
HETATM   12  C   UNL     1     -12.256  11.569  69.910  1.00  0.00    -0.328 A  
HETATM   13  O   UNL     1     -10.565  13.255  66.445  1.00  0.00    -0.279 OA 
HETATM   14  C   UNL     1     -11.191  10.771  67.699  1.00  0.00    -0.370 C  
BRANCH   9  15
HETATM   15  C   UNL     1      -9.916  15.131  67.642  1.00  0.00    -0.229 A  
HETATM   16  C   UNL     1     -10.404  16.209  66.888  1.00  0.00    -0.297 A  
HETATM   17  C   UNL     1      -8.790  15.318  68.455  1.00  0.00    -0.179 A  
HETATM   18  C   UNL     1      -8.260  16.601  68.629  1.00  0.00    -0.245 A  
HETATM   19 CL   UNL     1      -8.217  19.271  68.224  1.00  0.00    -0.359 Cl 
HETATM   20  C   UNL     1      -8.812  17.682  67.943  1.00  0.00    -0.246 A  
HETATM   21  C   UNL     1      -9.856  17.486  67.042  1.00  0.00    -0.295 A  
ENDBRANCH   9  15
BRANCH  12  22
HETATM   22  C   UNL     1     -12.638  10.230  70.491  1.00  0.00    -0.338 C  
HETATM   23  O   UNL     1     -10.277   9.814  71.030  1.00  0.00    -0.249 OA 
HETATM   24  C   UNL     1     -11.525   9.311  70.967  1.00  0.00    -0.319 C  
HETATM   25  O   UNL     1     -11.753   8.152  71.298  1.00  0.00    -0.272 OA 
ENDBRANCH  12  22
ENDBRANCH   2   3
TORSDOF 3
ENDMDL
MODEL        4
REMARK 921   NORMALIZED FREE ENERGY PREDICTED BY IDOCK:   -6.96 KCAL/MOL
REMARK 922        TOTAL FREE ENERGY PREDICTED BY IDOCK:   -9.11 KCAL/MOL
REMARK 923 INTER-LIGAND FREE ENERGY PREDICTED BY IDOCK:   -8.28 KCAL/MOL
REMARK 924 INTRA-LIGAND FREE ENERGY PREDICTED BY IDOCK:   -0.83 KCAL/MOL
REMARK 927      BINDING AFFINITY PREDICTED BY RF-SCORE:    0.00 PKD
ROOT
HETATM    1  C   UNL     1     -12.303   8.475  71.932  1.00  0.00    -0.352 C  
HETATM    2  O   UNL     1     -13.152   9.607  71.765  1.00  0.00    -0.361 OA 
ENDROOT
BRANCH   2   3
HETATM    3  C   UNL     1     -12.628  10.671  71.084  1.00  0.00    -0.423 A  
HETATM    4  C   UNL     1     -13.033  11.998  71.223  1.00  0.00    -0.315 A  
HETATM    5  C   UNL     1     -12.435  13.012  70.439  1.00  0.00    -0.266 A  
HETATM    6  C   UNL     1     -11.465  12.672  69.495  1.00  0.00    -0.225 A  
HETATM    7  C   UNL     1     -10.982  11.350  69.425  1.00  0.00    -0.260 A  
HETATM    8  N   UNL     1     -11.154  13.826  68.756  1.00  0.00    -0.256 N  
HETATM    9  C   UNL     1     -10.360  13.883  67.570  1.00  0.00    -0.245 C  
HETATM   10  C   UNL     1     -11.598  10.363  70.205  1.00  0.00    -0.410 A  
HETATM   11  C   UNL     1     -11.769  14.912  69.405  1.00  0.00    -0.319 A  
HETATM   12  C   UNL     1     -12.572  14.428  70.434  1.00  0.00    -0.405 A  
HETATM   13  O   UNL     1      -9.787  14.940  67.321  1.00  0.00    -0.226 OA 
HETATM   14  C   UNL     1     -11.648  16.340  68.967  1.00  0.00    -0.231 C  
BRANCH   9  15
HETATM   15  C   UNL     1     -10.136  12.760  66.613  1.00  0.00    -0.248 A  
HETATM   16  C   UNL     1     -11.124  12.502  65.650  1.00  0.00    -0.338 A  
HETATM   17  C   UNL     1      -8.989  11.957  66.650  1.00  0.00    -0.198 A  
HETATM   18  C   UNL     1      -8.765  11.013  65.642  1.00  0.00    -0.162 A  
HETATM   19 CL   UNL     1      -9.397   9.733  63.350  1.00  0.00    -0.235 Cl 
HETATM   20  C   UNL     1      -9.713  10.828  64.637  1.00  0.00    -0.289 A  
HETATM   21  C   UNL     1     -10.910  11.540  64.659  1.00  0.00    -0.372 A  
ENDBRANCH   9  15
BRANCH  12  22
HETATM   22  C   UNL     1     -13.482  15.231  71.330  1.00  0.00    -0.588 C  
HETATM   23  O   UNL     1     -11.587  15.670  72.830  1.00  0.00    -0.437 OA 
HETATM   24  C   UNL     1     -12.917  15.766  72.634  1.00  0.00    -0.478 C  
HETATM   25  O   UNL     1     -13.639  16.284  73.478  1.00  0.00    -0.642 OA 
ENDBRANCH  12  22
ENDBRANCH   2   3
TORSDOF 3
ENDMDL
MODEL        5
REMARK 921   NORMALIZED FREE ENERGY PREDICTED BY IDOCK:   -6.92 KCAL/MOL
REMARK 922        TOTAL FREE ENERGY PREDICTED BY IDOCK:   -9.07 KCAL/MOL
REMARK 923 INTER-LIGAND FREE ENERGY PREDICTED BY IDOCK:   -8.18 KCAL/MOL
REMARK 924 INTRA-LIGAND FREE ENERGY PREDICTED BY IDOCK:   -0.89 KCAL/MOL
REMARK 927      BINDING AFFINITY PREDICTED BY RF-SCORE:    0.00 PKD
ROOT
HETATM    1  C   UNL     1     -13.444  15.643  72.652  1.00  0.00    -0.566 C  
HETATM    2  O   UNL     1     -12.436  14.696  72.309  1.00  0.00    -0.328 OA 
ENDROOT
BRANCH   2   3
HETATM    3  C   UNL     1     -12.137  14.573  70.980  1.00  0.00    -0.344 A  
HETATM    4  C   UNL     1     -11.961  13.369  70.300  1.00  0.00    -0.378 A  
HETATM    5  C   UNL     1     -11.624  13.369  68.927  1.00  0.00    -0.356 A  
HETATM    6  C   UNL     1     -11.426  14.582  68.265  1.00  0.00    -0.311 A  
HETATM    7  C   UNL     1     -11.703  15.797  68.923  1.00  0.00    -0.404 A  
HETATM    8  N   UNL     1     -10.953  14.299  66.972  1.00  0.00    -0.298 N  
HETATM    9  C   UNL     1     -10.440  15.246  66.033  1.00  0.00    -0.317 C  
HETATM   10  C   UNL     1     -12.027  15.770  70.285  1.00  0.00    -0.383 A  
HETATM   11  C   UNL     1     -11.083  12.913  66.777  1.00  0.00    -0.281 A  
HETATM   12  C   UNL     1     -11.481  12.322  67.973  1.00  0.00    -0.378 A  
HETATM   13  O   UNL     1     -10.522  14.965  64.841  1.00  0.00    -0.414 OA 
HETATM   14  C   UNL     1     -10.734  12.199  65.506  1.00  0.00    -0.321 C  
BRANCH   9  15
HETATM   15  C   UNL     1      -9.835  16.569  66.368  1.00  0.00    -0.311 A  
HETATM   16  C   UNL     1      -8.525  16.592  66.869  1.00  0.00    -0.244 A  
HETATM   17  C   UNL     1     -10.529  17.776  66.208  1.00  0.00    -0.307 A  
HETATM   18  C   UNL     1      -9.866  18.993  66.400  1.00  0.00    -0.422 A  
HETATM   19 CL   UNL     1      -7.694  20.496  66.961  1.00  0.00    -0.357 Cl 
HETATM   20  C   UNL     1      -8.534  19.003  66.812  1.00  0.00    -0.298 A  
HETATM   21  C   UNL     1      -7.872  17.808  67.085  1.00  0.00    -0.229 A  
ENDBRANCH   9  15
BRANCH  12  22
HETATM   22  C   UNL     1     -11.653  10.849  68.246  1.00  0.00    -0.335 C  
HETATM   23  O   UNL     1      -9.301  10.722  68.943  1.00  0.00    -0.176 OA 
HETATM   24  C   UNL     1     -10.430  10.046  68.654  1.00  0.00    -0.204 C  
HETATM   25  O   UNL     1     -10.467   8.823  68.734  1.00  0.00    -0.214 OA 
ENDBRANCH  12  22
ENDBRANCH   2   3
TORSDOF 3
ENDMDL
MODEL        6
REMARK 921   NORMALIZED FREE ENERGY PREDICTED BY IDOCK:   -6.85 KCAL/MOL
REMARK 922        TOTAL FREE ENERGY PREDICTED BY IDOCK:   -8.99 KCAL/MOL
REMARK 923 INTER-LIGAND FREE ENERGY PREDICTED BY IDOCK:   -8.23 KCAL/MOL
REMARK 924 INTRA-LIGAND FREE ENERGY PREDICTED BY IDOCK:   -0.75 KCAL/MOL
REMARK 927      BINDING AFFINITY PREDICTED BY RF-SCORE:    0.00 PKD
ROOT
HETATM    1  C   UNL     1     -10.533  12.362  64.079  1.00  0.00    -0.416 C  
HETATM    2  O   UNL     1      -9.907  11.736  65.195  1.00  0.00    -0.243 OA 
ENDROOT
BRANCH   2   3
HETATM    3  C   UNL     1     -10.543  11.852  66.400  1.00  0.00    -0.248 A  
HETATM    4  C   UNL     1     -10.783  13.048  67.075  1.00  0.00    -0.270 A  
HETATM    5  C   UNL     1     -11.427  13.040  68.334  1.00  0.00    -0.345 A  
HETATM    6  C   UNL     1     -11.784  11.824  68.918  1.00  0.00    -0.323 A  
HETATM    7  C   UNL     1     -11.637  10.624  68.194  1.00  0.00    -0.217 A  
HETATM    8  N   UNL     1     -12.256  12.087  70.216  1.00  0.00    -0.298 N  
HETATM    9  C   UNL     1     -12.541  11.117  71.225  1.00  0.00    -0.398 C  
HETATM   10  C   UNL     1     -10.988  10.659  66.953  1.00  0.00    -0.228 A  
HETATM   11  C   UNL     1     -12.397  13.481  70.330  1.00  0.00    -0.327 A  
HETATM   12  C   UNL     1     -11.879  14.085  69.188  1.00  0.00    -0.391 A  
HETATM   13  O   UNL     1     -13.365  11.417  72.083  1.00  0.00    -0.469 OA 
HETATM   14  C   UNL     1     -12.923  14.183  71.546  1.00  0.00    -0.417 C  
BRANCH   9  15
HETATM   15  C   UNL     1     -11.946   9.751  71.317  1.00  0.00    -0.471 A  
HETATM   16  C   UNL     1     -12.814   8.658  71.464  1.00  0.00    -0.351 A  
HETATM   17  C   UNL     1     -10.564   9.526  71.272  1.00  0.00    -0.358 A  
HETATM   18  C   UNL     1     -10.071   8.219  71.218  1.00  0.00    -0.249 A  
HETATM   19 CL   UNL     1     -10.352   5.535  71.118  1.00  0.00    -0.286 Cl 
HETATM   20  C   UNL     1     -10.951   7.139  71.273  1.00  0.00    -0.240 A  
HETATM   21  C   UNL     1     -12.318   7.352  71.436  1.00  0.00    -0.394 A  
ENDBRANCH   9  15
BRANCH  12  22
HETATM   22  C   UNL     1     -11.741  15.563  68.924  1.00  0.00    -0.385 C  
HETATM   23  O   UNL     1      -9.432  15.477  69.757  1.00  0.00    -0.285 OA 
HETATM   24  C   UNL     1     -10.456  16.252  69.350  1.00  0.00    -0.292 C  
HETATM   25  O   UNL     1     -10.343  17.472  69.312  1.00  0.00    -0.327 OA 
ENDBRANCH  12  22
ENDBRANCH   2   3
TORSDOF 3
ENDMDL
MODEL        7
REMARK 921   NORMALIZED FREE ENERGY PREDICTED BY IDOCK:   -6.81 KCAL/MOL
REMARK 922        TOTAL FREE ENERGY PREDICTED BY IDOCK:   -8.94 KCAL/MOL
REMARK 923 INTER-LIGAND FREE ENERGY PREDICTED BY IDOCK:   -8.95 KCAL/MOL
REMARK 924 INTRA-LIGAND FREE ENERGY PREDICTED BY IDOCK:    0.01 KCAL/MOL
REMARK 927      BINDING AFFINITY PREDICTED BY RF-SCORE:    0.00 PKD
ROOT
HETATM    1  C   UNL     1     -10.482  11.347  63.607  1.00  0.00    -0.414 C  
HETATM    2  O   UNL     1     -11.195  12.579  63.551  1.00  0.00    -0.446 OA 
ENDROOT
BRANCH   2   3
HETATM    3  C   UNL     1     -11.287  13.288  64.717  1.00  0.00    -0.327 A  
HETATM    4  C   UNL     1     -10.661  14.507  64.973  1.00  0.00    -0.458 A  
HETATM    5  C   UNL     1     -10.807  15.134  66.232  1.00  0.00    -0.333 A  
HETATM    6  C   UNL     1     -11.549  14.505  67.232  1.00  0.00    -0.385 A  
HETATM    7  C   UNL     1     -12.267  13.326  66.944  1.00  0.00    -0.315 A  
HETATM    8  N   UNL     1     -11.407  15.253  68.414  1.00  0.00    -0.313 N  
HETATM    9  C   UNL     1     -11.837  14.862  69.719  1.00  0.00    -0.315 C  
HETATM   10  C   UNL     1     -12.096  12.721  65.692  1.00  0.00    -0.514 A  
HETATM   11  C   UNL     1     -10.766  16.456  68.069  1.00  0.00    -0.334 A  
HETATM   12  C   UNL     1     -10.377  16.394  66.733  1.00  0.00    -0.293 A  
HETATM   13  O   UNL     1     -12.089  15.754  70.524  1.00  0.00    -0.371 OA 
HETATM   14  C   UNL     1     -10.464  17.563  69.033  1.00  0.00    -0.250 C  
BRANCH   9  15
HETATM   15  C   UNL     1     -12.038  13.460  70.191  1.00  0.00    -0.415 A  
HETATM   16  C   UNL     1     -12.870  13.247  71.300  1.00  0.00    -0.398 A  
HETATM   17  C   UNL     1     -11.423  12.363  69.574  1.00  0.00    -0.309 A  
HETATM   18  C   UNL     1     -11.760  11.063  69.966  1.00  0.00    -0.437 A  
HETATM   19 CL   UNL     1     -13.140   9.265  71.435  1.00  0.00    -0.389 Cl 
HETATM   20  C   UNL     1     -12.659  10.861  71.013  1.00  0.00    -0.417 A  
HETATM   21  C   UNL     1     -13.185  11.948  71.708  1.00  0.00    -0.426 A  
ENDBRANCH   9  15
BRANCH  12  22
HETATM   22  C   UNL     1      -9.581  17.423  65.970  1.00  0.00    -0.141 C  
HETATM   23  O   UNL     1      -7.505  16.381  66.770  1.00  0.00    -0.208 OA 
HETATM   24  C   UNL     1      -8.069  17.419  66.123  1.00  0.00    -0.220 C  
HETATM   25  O   UNL     1      -7.379  18.321  65.662  1.00  0.00    -0.519 OA 
ENDBRANCH  12  22
ENDBRANCH   2   3
TORSDOF 3
ENDMDL
MODEL        8
REMARK 921   NORMALIZED FREE ENERGY PREDICTED BY IDOCK:   -6.75 KCAL/MOL
REMARK 922        TOTAL FREE ENERGY PREDICTED BY IDOCK:   -8.87 KCAL/MOL
REMARK 923 INTER-LIGAND FREE ENERGY PREDICTED BY IDOCK:   -7.97 KCAL/MOL
REMARK 924 INTRA-LIGAND FREE ENERGY PREDICTED BY IDOCK:   -0.90 KCAL/MOL
REMARK 927      BINDING AFFINITY PREDICTED BY RF-SCORE:    0.00 PKD
ROOT
HETATM    1  C   UNL     1     -10.367   7.911  72.828  1.00  0.00    -0.333 C  
HETATM    2  O   UNL     1     -11.605   8.065  72.140  1.00  0.00    -0.297 OA 
ENDROOT
BRANCH   2   3
HETATM    3  C   UNL     1     -11.688   9.100  71.250  1.00  0.00    -0.326 A  
HETATM    4  C   UNL     1     -11.124   9.116  69.975  1.00  0.00    -0.208 A  
HETATM    5  C   UNL     1     -11.252  10.259  69.153  1.00  0.00    -0.268 A  
HETATM    6  C   UNL     1     -11.910  11.389  69.641  1.00  0.00    -0.362 A  
HETATM    7  C   UNL     1     -12.568  11.339  70.887  1.00  0.00    -0.467 A  
HETATM    8  N   UNL     1     -11.760  12.421  68.698  1.00  0.00    -0.312 N  
HETATM    9  C   UNL     1     -12.108  13.793  68.884  1.00  0.00    -0.313 C  
HETATM   10  C   UNL     1     -12.418  10.198  71.685  1.00  0.00    -0.506 A  
HETATM   11  C   UNL     1     -11.207  11.846  67.540  1.00  0.00    -0.296 A  
HETATM   12  C   UNL     1     -10.875  10.521  67.806  1.00  0.00    -0.347 A  
HETATM   13  O   UNL     1     -12.376  14.451  67.883  1.00  0.00    -0.220 OA 
HETATM   14  C   UNL     1     -10.929  12.595  66.272  1.00  0.00    -0.314 C  
BRANCH   9  15
HETATM   15  C   UNL     1     -12.205  14.501  70.195  1.00  0.00    -0.399 A  
HETATM   16  C   UNL     1     -13.481  14.748  70.723  1.00  0.00    -0.233 A  
HETATM   17  C   UNL     1     -11.076  14.931  70.904  1.00  0.00    -0.144 A  
HETATM   18  C   UNL     1     -11.219  15.459  72.191  1.00  0.00    -0.320 A  
HETATM   19 CL   UNL     1     -12.660  16.182  74.357  1.00  0.00    -0.635 Cl 
HETATM   20  C   UNL     1     -12.490  15.616  72.742  1.00  0.00    -0.436 A  
HETATM   21  C   UNL     1     -13.624  15.300  71.998  1.00  0.00    -0.571 A  
ENDBRANCH   9  15
BRANCH  12  22
HETATM   22  C   UNL     1     -10.176   9.556  66.882  1.00  0.00    -0.317 C  
HETATM   23  O   UNL     1      -8.008  10.380  67.693  1.00  0.00    -0.105 OA 
HETATM   24  C   UNL     1      -8.660   9.613  66.797  1.00  0.00    -0.134 C  
HETATM   25  O   UNL     1      -8.043   8.973  65.953  1.00  0.00    -0.104 OA 
ENDBRANCH  12  22
ENDBRANCH   2   3
TORSDOF 3
ENDMDL
MODEL        9
REMARK 921   NORMALIZED FREE ENERGY PREDICTED BY IDOCK:   -6.71 KCAL/MOL
REMARK 922        TOTAL FREE ENERGY PREDICTED BY IDOCK:   -8.82 KCAL/MOL
REMARK 923 INTER-LIGAND FREE ENERGY PREDICTED BY IDOCK:   -7.99 KCAL/MOL
REMARK 924 INTRA-LIGAND FREE ENERGY PREDICTED BY IDOCK:   -0.84 KCAL/MOL
REMARK 927      BINDING AFFINITY PREDICTED BY RF-SCORE:    0.00 PKD
ROOT
HETATM    1  C   UNL     1     -10.417  18.145  67.697  1.00  0.00    -0.416 C  
HETATM    2  O   UNL     1     -10.531  16.915  66.986  1.00  0.00    -0.314 OA 
ENDROOT
BRANCH   2   3
HETATM    3  C   UNL     1     -10.978  15.835  67.697  1.00  0.00    -0.302 A  
HETATM    4  C   UNL     1     -11.617  15.891  68.935  1.00  0.00    -0.392 A  
HETATM    5  C   UNL     1     -12.009  14.701  69.590  1.00  0.00    -0.368 A  
HETATM    6  C   UNL     1     -11.715  13.467  69.009  1.00  0.00    -0.323 A  
HETATM    7  C   UNL     1     -11.163  13.409  67.714  1.00  0.00    -0.306 A  
HETATM    8  N   UNL     1     -12.067  12.460  69.926  1.00  0.00    -0.281 N  
HETATM    9  C   UNL     1     -11.756  11.071  69.818  1.00  0.00    -0.335 C  
HETATM   10  C   UNL     1     -10.775  14.603  67.092  1.00  0.00    -0.292 A  
HETATM   11  C   UNL     1     -12.784  13.080  70.966  1.00  0.00    -0.262 A  
HETATM   12  C   UNL     1     -12.746  14.459  70.782  1.00  0.00    -0.427 A  
HETATM   13  O   UNL     1     -12.498  10.277  70.388  1.00  0.00    -0.276 OA 
HETATM   14  C   UNL     1     -13.386  12.353  72.130  1.00  0.00    -0.508 C  
BRANCH   9  15
HETATM   15  C   UNL     1     -10.619  10.487  69.046  1.00  0.00    -0.250 A  
HETATM   16  C   UNL     1     -10.907   9.809  67.852  1.00  0.00    -0.298 A  
HETATM   17  C   UNL     1      -9.289  10.583  69.476  1.00  0.00    -0.089 A  
HETATM   18  C   UNL     1      -8.253  10.145  68.644  1.00  0.00    -0.111 A  
HETATM   19 CL   UNL     1      -7.274   9.096  66.356  1.00  0.00    -0.090 Cl 
HETATM   20  C   UNL     1      -8.549   9.554  67.416  1.00  0.00    -0.125 A  
HETATM   21  C   UNL     1      -9.872   9.348  67.034  1.00  0.00    -0.258 A  
ENDBRANCH   9  15
BRANCH  12  22
HETATM   22  C   UNL     1     -13.305  15.514  71.705  1.00  0.00    -0.585 C  
HETATM   23  O   UNL     1     -11.414  15.153  73.231  1.00  0.00    -0.259 OA 
HETATM   24  C   UNL     1     -12.605  15.751  73.032  1.00  0.00    -0.483 C  
HETATM   25  O   UNL     1     -13.096  16.474  73.892  1.00  0.00    -0.633 OA 
ENDBRANCH  12  22
ENDBRANCH   2   3
TORSDOF 3
ENDMDL
MODEL       10
REMARK 921   NORMALIZED FREE ENERGY PREDICTED BY IDOCK:   -6.69 KCAL/MOL
REMARK 922        TOTAL FREE ENERGY PREDICTED BY IDOCK:   -8.79 KCAL/MOL
REMARK 923 INTER-LIGAND FREE ENERGY PREDICTED BY IDOCK:   -8.08 KCAL/MOL
REMARK 924 INTRA-LIGAND FREE ENERGY PREDICTED BY IDOCK:   -0.71 KCAL/MOL
REMARK 927      BINDING AFFINITY PREDICTED BY RF-SCORE:    0.00 PKD
ROOT
HETATM    1  C   UNL     1     -12.416  15.475  74.025  1.00  0.00    -0.653 C  
HETATM    2  O   UNL     1     -13.327  15.373  72.934  1.00  0.00    -0.452 OA 
ENDROOT
BRANCH   2   3
HETATM    3  C   UNL     1     -12.906  14.658  71.847  1.00  0.00    -0.328 A  
HETATM    4  C   UNL     1     -12.812  13.268  71.782  1.00  0.00    -0.367 A  
HETATM    5  C   UNL     1     -12.332  12.640  70.609  1.00  0.00    -0.375 A  
HETATM    6  C   UNL     1     -11.914  13.422  69.531  1.00  0.00    -0.319 A  
HETATM    7  C   UNL     1     -12.104  14.818  69.556  1.00  0.00    -0.328 A  
HETATM    8  N   UNL     1     -11.345  12.567  68.570  1.00  0.00    -0.272 N  
HETATM    9  C   UNL     1     -10.620  12.967  67.407  1.00  0.00    -0.233 C  
HETATM   10  C   UNL     1     -12.571  15.415  70.733  1.00  0.00    -0.497 A  
HETATM   11  C   UNL     1     -11.627  11.249  68.970  1.00  0.00    -0.319 A  
HETATM   12  C   UNL     1     -12.222  11.274  70.228  1.00  0.00    -0.428 A  
HETATM   13  O   UNL     1     -10.608  12.195  66.452  1.00  0.00    -0.231 OA 
HETATM   14  C   UNL     1     -11.238  10.026  68.194  1.00  0.00    -0.192 C  
BRANCH   9  15
HETATM   15  C   UNL     1      -9.891  14.258  67.231  1.00  0.00    -0.244 A  
HETATM   16  C   UNL     1      -8.728  14.472  67.986  1.00  0.00    -0.167 A  
HETATM   17  C   UNL     1     -10.332  15.257  66.353  1.00  0.00    -0.296 A  
HETATM   18  C   UNL     1      -9.535  16.384  66.121  1.00  0.00    -0.363 A  
HETATM   19 CL   UNL     1      -7.314  17.881  66.462  1.00  0.00    -0.259 Cl 
HETATM   20  C   UNL     1      -8.334  16.542  66.812  1.00  0.00    -0.239 A  
HETATM   21  C   UNL     1      -7.946  15.610  67.773  1.00  0.00    -0.157 A  
ENDBRANCH   9  15
BRANCH  12  22
HETATM   22  C   UNL     1     -12.608  10.087  71.075  1.00  0.00    -0.463 C  
HETATM   23  O   UNL     1     -10.228   9.605  71.450  1.00  0.00    -0.205 OA 
HETATM   24  C   UNL     1     -11.500   9.189  71.599  1.00  0.00    -0.381 C  
HETATM   25  O   UNL     1     -11.751   8.124  72.154  1.00  0.00    -0.311 OA 
ENDBRANCH  12  22
ENDBRANCH   2   3
TORSDOF 3
ENDMDL
MODEL       11
REMARK 921   NORMALIZED FREE ENERGY PREDICTED BY IDOCK:   -6.57 KCAL/MOL
REMARK 922        TOTAL FREE ENERGY PREDICTED BY IDOCK:   -8.66 KCAL/MOL
REMARK 923 INTER-LIGAND FREE ENERGY PREDICTED BY IDOCK:   -8.10 KCAL/MOL
REMARK 924 INTRA-LIGAND FREE ENERGY PREDICTED BY IDOCK:   -0.56 KCAL/MOL
REMARK 927      BINDING AFFINITY PREDICTED BY RF-SCORE:    0.00 PKD
ROOT
HETATM    1  C   UNL     1      -8.866  10.147  63.252  1.00  0.00    -0.231 C  
HETATM    2  O   UNL     1      -9.159   9.234  64.306  1.00  0.00    -0.176 OA 
ENDROOT
BRANCH   2   3
HETATM    3  C   UNL     1      -9.785   9.749  65.408  1.00  0.00    -0.313 A  
HETATM    4  C   UNL     1     -10.194  11.073  65.559  1.00  0.00    -0.327 A  
HETATM    5  C   UNL     1     -10.807  11.497  66.761  1.00  0.00    -0.330 A  
HETATM    6  C   UNL     1     -10.964  10.591  67.811  1.00  0.00    -0.313 A  
HETATM    7  C   UNL     1     -10.647   9.231  67.623  1.00  0.00    -0.324 A  
HETATM    8  N   UNL     1     -11.449  11.298  68.925  1.00  0.00    -0.267 N  
HETATM    9  C   UNL     1     -11.565  10.799  70.258  1.00  0.00    -0.338 C  
HETATM   10  C   UNL     1     -10.032   8.840  66.427  1.00  0.00    -0.346 A  
HETATM   11  C   UNL     1     -11.801  12.585  68.479  1.00  0.00    -0.295 A  
HETATM   12  C   UNL     1     -11.400  12.729  67.154  1.00  0.00    -0.365 A  
HETATM   13  O   UNL     1     -12.411  11.312  70.985  1.00  0.00    -0.382 OA 
HETATM   14  C   UNL     1     -12.407  13.646  69.346  1.00  0.00    -0.199 C  
BRANCH   9  15
HETATM   15  C   UNL     1     -10.767   9.683  70.847  1.00  0.00    -0.402 A  
HETATM   16  C   UNL     1      -9.373   9.708  70.686  1.00  0.00    -0.171 A  
HETATM   17  C   UNL     1     -11.358   8.619  71.539  1.00  0.00    -0.358 A  
HETATM   18  C   UNL     1     -10.554   7.678  72.192  1.00  0.00    -0.281 A  
HETATM   19 CL   UNL     1      -8.177   6.663  72.974  1.00  0.00    -0.113 Cl 
HETATM   20  C   UNL     1      -9.165   7.765  72.100  1.00  0.00    -0.149 A  
HETATM   21  C   UNL     1      -8.572   8.753  71.317  1.00  0.00    -0.258 A  
ENDBRANCH   9  15
BRANCH  12  22
HETATM   22  C   UNL     1     -11.495  13.973  66.306  1.00  0.00    -0.358 C  
HETATM   23  O   UNL     1     -13.331  12.946  65.038  1.00  0.00    -0.682 OA 
HETATM   24  C   UNL     1     -12.466  13.974  65.138  1.00  0.00    -0.452 C  
HETATM   25  O   UNL     1     -12.477  14.885  64.317  1.00  0.00    -0.670 OA 
ENDBRANCH  12  22
ENDBRANCH   2   3
TORSDOF 3
ENDMDL
MODEL       12
REMARK 921   NORMALIZED FREE ENERGY PREDICTED BY IDOCK:   -6.52 KCAL/MOL
REMARK 922        TOTAL FREE ENERGY PREDICTED BY IDOCK:   -8.60 KCAL/MOL
REMARK 923 INTER-LIGAND FREE ENERGY PREDICTED BY IDOCK:   -7.97 KCAL/MOL
REMARK 924 INTRA-LIGAND FREE ENERGY PREDICTED BY IDOCK:   -0.63 KCAL/MOL
REMARK 927      BINDING AFFINITY PREDICTED BY RF-SCORE:    0.00 PKD
ROOT
HETATM    1  C   UNL     1     -12.349  15.503  70.262  1.00  0.00    -0.396 C  
HETATM    2  O   UNL     1     -12.675  14.128  70.080  1.00  0.00    -0.320 OA 
ENDROOT
BRANCH   2   3
HETATM    3  C   UNL     1     -12.036  13.476  69.061  1.00  0.00    -0.291 A  
HETATM    4  C   UNL     1     -12.145  13.790  67.708  1.00  0.00    -0.325 A  
HETATM    5  C   UNL     1     -11.457  13.022  66.740  1.00  0.00    -0.392 A  
HETATM    6  C   UNL     1     -10.701  11.921  67.144  1.00  0.00    -0.240 A  
HETATM    7  C   UNL     1     -10.507  11.664  68.516  1.00  0.00    -0.236 A  
HETATM    8  N   UNL     1     -10.257  11.251  65.991  1.00  0.00    -0.239 N  
HETATM    9  C   UNL     1      -9.622   9.973  65.946  1.00  0.00    -0.224 C  
HETATM   10  C   UNL     1     -11.207  12.434  69.453  1.00  0.00    -0.225 A  
HETATM   11  C   UNL     1     -10.555  12.077  64.892  1.00  0.00    -0.291 A  
HETATM   12  C   UNL     1     -11.304  13.164  65.332  1.00  0.00    -0.323 A  
HETATM   13  O   UNL     1      -8.884   9.738  64.995  1.00  0.00    -0.164 OA 
HETATM   14  C   UNL     1     -10.204  11.755  63.470  1.00  0.00    -0.483 C  
BRANCH   9  15
HETATM   15  C   UNL     1      -9.750   8.897  66.973  1.00  0.00    -0.249 A  
HETATM   16  C   UNL     1      -8.853   8.898  68.051  1.00  0.00    -0.133 A  
HETATM   17  C   UNL     1     -10.721   7.890  66.892  1.00  0.00    -0.219 A  
HETATM   18  C   UNL     1     -10.888   6.994  67.953  1.00  0.00    -0.252 A  
HETATM   19 CL   UNL     1     -10.309   6.019  70.404  1.00  0.00    -0.264 Cl 
HETATM   20  C   UNL     1     -10.047   7.063  69.062  1.00  0.00    -0.180 A  
HETATM   21  C   UNL     1      -9.004   7.985  69.099  1.00  0.00    -0.145 A  
ENDBRANCH   9  15
BRANCH  12  22
HETATM   22  C   UNL     1     -11.916  14.250  64.483  1.00  0.00    -0.478 C  
HETATM   23  O   UNL     1     -10.041  15.730  65.061  1.00  0.00    -0.425 OA 
HETATM   24  C   UNL     1     -11.248  15.615  64.473  1.00  0.00    -0.325 C  
HETATM   25  O   UNL     1     -11.779  16.581  63.936  1.00  0.00    -1.148 OA 
ENDBRANCH  12  22
ENDBRANCH   2   3
TORSDOF 3
ENDMDL
MODEL       13
REMARK 921   NORMALIZED FREE ENERGY PREDICTED BY IDOCK:   -6.52 KCAL/MOL
REMARK 922        TOTAL FREE ENERGY PREDICTED BY IDOCK:   -8.60 KCAL/MOL
REMARK 923 INTER-LIGAND FREE ENERGY PREDICTED BY IDOCK:   -7.70 KCAL/MOL
REMARK 924 INTRA-LIGAND FREE ENERGY PREDICTED BY IDOCK:   -0.90 KCAL/MOL
REMARK 927      BINDING AFFINITY PREDICTED BY RF-SCORE:    0.00 PKD
ROOT
HETATM    1  C   UNL     1     -11.904  14.517  69.680  1.00  0.00    -0.318 C  
HETATM    2  O   UNL     1     -12.055  13.102  69.748  1.00  0.00    -0.307 OA 
ENDROOT
BRANCH   2   3
HETATM    3  C   UNL     1     -11.424  12.370  68.780  1.00  0.00    -0.304 A  
HETATM    4  C   UNL     1     -11.419  12.667  67.418  1.00  0.00    -0.397 A  
HETATM    5  C   UNL     1     -10.753  11.816  66.505  1.00  0.00    -0.304 A  
HETATM    6  C   UNL     1     -10.137  10.654  66.971  1.00  0.00    -0.211 A  
HETATM    7  C   UNL     1     -10.052  10.406  68.356  1.00  0.00    -0.181 A  
HETATM    8  N   UNL     1      -9.694   9.921  65.856  1.00  0.00    -0.242 N  
HETATM    9  C   UNL     1      -9.187   8.586  65.869  1.00  0.00    -0.182 C  
HETATM   10  C   UNL     1     -10.728  11.260  69.237  1.00  0.00    -0.221 A  
HETATM   11  C   UNL     1      -9.840  10.750  64.730  1.00  0.00    -0.300 A  
HETATM   12  C   UNL     1     -10.503  11.915  65.108  1.00  0.00    -0.330 A  
HETATM   13  O   UNL     1      -8.420   8.261  64.968  1.00  0.00    -0.166 OA 
HETATM   14  C   UNL     1      -9.438  10.368  63.338  1.00  0.00    -0.356 C  
BRANCH   9  15
HETATM   15  C   UNL     1      -9.484   7.548  66.900  1.00  0.00    -0.219 A  
HETATM   16  C   UNL     1      -8.434   7.111  67.722  1.00  0.00    -0.120 A  
HETATM   17  C   UNL     1     -10.760   6.995  67.067  1.00  0.00    -0.423 A  
HETATM   18  C   UNL     1     -11.014   6.134  68.140  1.00  0.00    -0.398 A  
HETATM   19 CL   UNL     1     -10.312   4.791  70.375  1.00  0.00    -0.255 Cl 
HETATM   20  C   UNL     1      -9.981   5.777  69.006  1.00  0.00    -0.169 A  
HETATM   21  C   UNL     1      -8.683   6.230  68.778  1.00  0.00    -0.121 A  
ENDBRANCH   9  15
BRANCH  12  22
HETATM   22  C   UNL     1     -10.951  13.039  64.208  1.00  0.00    -0.427 C  
HETATM   23  O   UNL     1     -13.227  12.116  64.218  1.00  0.00    -0.768 OA 
HETATM   24  C   UNL     1     -12.379  13.020  63.691  1.00  0.00    -0.417 C  
HETATM   25  O   UNL     1     -12.758  13.810  62.833  1.00  0.00    -0.558 OA 
ENDBRANCH  12  22
ENDBRANCH   2   3
TORSDOF 3
ENDMDL
MODEL       14
REMARK 921   NORMALIZED FREE ENERGY PREDICTED BY IDOCK:   -6.40 KCAL/MOL
REMARK 922        TOTAL FREE ENERGY PREDICTED BY IDOCK:   -8.46 KCAL/MOL
REMARK 923 INTER-LIGAND FREE ENERGY PREDICTED BY IDOCK:   -7.53 KCAL/MOL
REMARK 924 INTRA-LIGAND FREE ENERGY PREDICTED BY IDOCK:   -0.93 KCAL/MOL
REMARK 927      BINDING AFFINITY PREDICTED BY RF-SCORE:    0.00 PKD
ROOT
HETATM    1  C   UNL     1     -12.999  11.283  71.815  1.00  0.00    -0.414 C  
HETATM    2  O   UNL     1     -12.558  12.286  70.905  1.00  0.00    -0.335 OA 
ENDROOT
BRANCH   2   3
HETATM    3  C   UNL     1     -11.844  11.858  69.819  1.00  0.00    -0.340 A  
HETATM    4  C   UNL     1     -11.828  12.474  68.569  1.00  0.00    -0.341 A  
HETATM    5  C   UNL     1     -11.071  11.920  67.511  1.00  0.00    -0.332 A  
HETATM    6  C   UNL     1     -10.372  10.729  67.713  1.00  0.00    -0.193 A  
HETATM    7  C   UNL     1     -10.303  10.162  69.002  1.00  0.00    -0.230 A  
HETATM    8  N   UNL     1      -9.841  10.321  66.477  1.00  0.00    -0.203 N  
HETATM    9  C   UNL     1      -9.226   9.064  66.194  1.00  0.00    -0.216 C  
HETATM   10  C   UNL     1     -11.069  10.725  70.029  1.00  0.00    -0.327 A  
HETATM   11  C   UNL     1     -10.028  11.384  65.575  1.00  0.00    -0.239 A  
HETATM   12  C   UNL     1     -10.795  12.370  66.189  1.00  0.00    -0.308 A  
HETATM   13  O   UNL     1      -8.411   9.024  65.277  1.00  0.00    -0.146 OA 
HETATM   14  C   UNL     1      -9.560  11.379  64.151  1.00  0.00    -0.217 C  
BRANCH   9  15
HETATM   15  C   UNL     1      -9.461   7.789  66.934  1.00  0.00    -0.238 A  
HETATM   16  C   UNL     1      -8.381   7.209  67.616  1.00  0.00    -0.117 A  
HETATM   17  C   UNL     1     -10.710   7.154  66.963  1.00  0.00    -0.420 A  
HETATM   18  C   UNL     1     -10.909   6.042  67.788  1.00  0.00    -0.380 A  
HETATM   19 CL   UNL     1     -10.115   4.217  69.613  1.00  0.00    -0.141 Cl 
HETATM   20  C   UNL     1      -9.848   5.528  68.533  1.00  0.00    -0.146 A  
HETATM   21  C   UNL     1      -8.575   6.082  68.420  1.00  0.00    -0.111 A  
ENDBRANCH   9  15
BRANCH  12  22
HETATM   22  C   UNL     1     -11.311  13.641  65.563  1.00  0.00    -0.308 C  
HETATM   23  O   UNL     1     -13.162  12.373  64.562  1.00  0.00    -0.834 OA 
HETATM   24  C   UNL     1     -12.505  13.548  64.628  1.00  0.00    -0.323 C  
HETATM   25  O   UNL     1     -12.873  14.511  63.965  1.00  0.00    -0.672 OA 
ENDBRANCH  12  22
ENDBRANCH   2   3
TORSDOF 3
ENDMDL
MODEL       15
REMARK 921   NORMALIZED FREE ENERGY PREDICTED BY IDOCK:   -6.35 KCAL/MOL
REMARK 922        TOTAL FREE ENERGY PREDICTED BY IDOCK:   -8.40 KCAL/MOL
REMARK 923 INTER-LIGAND FREE ENERGY PREDICTED BY IDOCK:   -7.60 KCAL/MOL
REMARK 924 INTRA-LIGAND FREE ENERGY PREDICTED BY IDOCK:   -0.79 KCAL/MOL
REMARK 927      BINDING AFFINITY PREDICTED BY RF-SCORE:    0.00 PKD
ROOT
HETATM    1  C   UNL     1      -9.348   9.979  63.564  1.00  0.00    -0.256 C  
HETATM    2  O   UNL     1      -9.190   9.408  64.860  1.00  0.00    -0.231 OA 
ENDROOT
BRANCH   2   3
HETATM    3  C   UNL     1      -9.812  10.053  65.894  1.00  0.00    -0.264 A  
HETATM    4  C   UNL     1      -9.761  11.425  66.138  1.00  0.00    -0.248 A  
HETATM    5  C   UNL     1     -10.424  11.974  67.260  1.00  0.00    -0.241 A  
HETATM    6  C   UNL     1     -11.095  11.130  68.146  1.00  0.00    -0.264 A  
HETATM    7  C   UNL     1     -11.235   9.760  67.846  1.00  0.00    -0.036 A  
HETATM    8  N   UNL     1     -11.524  11.902  69.240  1.00  0.00    -0.284 N  
HETATM    9  C   UNL     1     -12.076  11.405  70.460  1.00  0.00    -0.394 C  
HETATM   10  C   UNL     1     -10.561   9.240  66.734  1.00  0.00    -0.207 A  
HETATM   11  C   UNL     1     -11.311  13.251  68.905  1.00  0.00    -0.288 A  
HETATM   12  C   UNL     1     -10.623  13.314  67.697  1.00  0.00    -0.242 A  
HETATM   13  O   UNL     1     -12.823  12.149  71.089  1.00  0.00    -0.326 OA 
HETATM   14  C   UNL     1     -11.679  14.410  69.781  1.00  0.00    -0.361 C  
BRANCH   9  15
HETATM   15  C   UNL     1     -11.850  10.045  71.032  1.00  0.00    -0.476 A  
HETATM   16  C   UNL     1     -12.972   9.264  71.349  1.00  0.00    -0.394 A  
HETATM   17  C   UNL     1     -10.569   9.531  71.270  1.00  0.00    -0.358 A  
HETATM   18  C   UNL     1     -10.413   8.200  71.672  1.00  0.00    -0.288 A  
HETATM   19 CL   UNL     1     -11.344   5.745  72.303  1.00  0.00    -0.341 Cl 
HETATM   20  C   UNL     1     -11.536   7.405  71.896  1.00  0.00    -0.272 A  
HETATM   21  C   UNL     1     -12.816   7.942  71.775  1.00  0.00    -0.351 A  
ENDBRANCH   9  15
BRANCH  12  22
HETATM   22  C   UNL     1     -10.107  14.553  67.008  1.00  0.00    -0.254 C  
HETATM   23  O   UNL     1     -12.059  14.514  65.518  1.00  0.00    -0.357 OA 
HETATM   24  C   UNL     1     -10.863  15.068  65.796  1.00  0.00    -0.350 C  
HETATM   25  O   UNL     1     -10.411  15.969  65.097  1.00  0.00    -0.523 OA 
ENDBRANCH  12  22
ENDBRANCH   2   3
TORSDOF 3
ENDMDL
MODEL       16
REMARK 921   NORMALIZED FREE ENERGY PREDICTED BY IDOCK:   -6.24 KCAL/MOL
REMARK 922        TOTAL FREE ENERGY PREDICTED BY IDOCK:   -8.26 KCAL/MOL
REMARK 923 INTER-LIGAND FREE ENERGY PREDICTED BY IDOCK:   -7.37 KCAL/MOL
REMARK 924 INTRA-LIGAND FREE ENERGY PREDICTED BY IDOCK:   -0.89 KCAL/MOL
REMARK 927      BINDING AFFINITY PREDICTED BY RF-SCORE:    0.00 PKD
ROOT
HETATM    1  C   UNL     1     -13.045  10.493  71.705  1.00  0.00    -0.464 C  
HETATM    2  O   UNL     1     -12.378  11.682  71.291  1.00  0.00    -0.294 OA 
ENDROOT
BRANCH   2   3
HETATM    3  C   UNL     1     -12.002  11.749  69.978  1.00  0.00    -0.344 A  
HETATM    4  C   UNL     1     -11.513  10.684  69.223  1.00  0.00    -0.351 A  
HETATM    5  C   UNL     1     -11.126  10.882  67.877  1.00  0.00    -0.362 A  
HETATM    6  C   UNL     1     -11.199  12.159  67.320  1.00  0.00    -0.306 A  
HETATM    7  C   UNL     1     -11.789  13.213  68.047  1.00  0.00    -0.398 A  
HETATM    8  N   UNL     1     -10.617  12.110  66.041  1.00  0.00    -0.249 N  
HETATM    9  C   UNL     1     -10.308  13.228  65.209  1.00  0.00    -0.312 C  
HETATM   10  C   UNL     1     -12.154  12.993  69.381  1.00  0.00    -0.267 A  
HETATM   11  C   UNL     1     -10.401  10.754  65.737  1.00  0.00    -0.230 A  
HETATM   12  C   UNL     1     -10.695   9.985  66.860  1.00  0.00    -0.211 A  
HETATM   13  O   UNL     1     -10.269  13.040  63.996  1.00  0.00    -0.384 OA 
HETATM   14  C   UNL     1      -9.837  10.256  64.441  1.00  0.00    -0.374 C  
BRANCH   9  15
HETATM   15  C   UNL     1     -10.055  14.623  65.676  1.00  0.00    -0.389 A  
HETATM   16  C   UNL     1      -8.936  14.857  66.490  1.00  0.00    -0.288 A  
HETATM   17  C   UNL     1     -10.894  15.694  65.341  1.00  0.00    -0.394 A  
HETATM   18  C   UNL     1     -10.531  17.000  65.686  1.00  0.00    -0.229 A  
HETATM   19 CL   UNL     1      -8.875  18.840  66.766  1.00  0.00    -0.295 Cl 
HETATM   20  C   UNL     1      -9.367  17.229  66.419  1.00  0.00    -0.258 A  
HETATM   21  C   UNL     1      -8.588  16.160  66.856  1.00  0.00    -0.253 A  
ENDBRANCH   9  15
BRANCH  12  22
HETATM   22  C   UNL     1     -10.519   8.495  67.012  1.00  0.00    -0.362 C  
HETATM   23  O   UNL     1      -8.240   8.870  67.849  1.00  0.00    -0.109 OA 
HETATM   24  C   UNL     1      -9.158   7.973  67.439  1.00  0.00    -0.134 C  
HETATM   25  O   UNL     1      -8.902   6.774  67.426  1.00  0.00    -0.118 OA 
ENDBRANCH  12  22
ENDBRANCH   2   3
TORSDOF 3
ENDMDL
MODEL       17
REMARK 921   NORMALIZED FREE ENERGY PREDICTED BY IDOCK:   -6.05 KCAL/MOL
REMARK 922        TOTAL FREE ENERGY PREDICTED BY IDOCK:   -8.04 KCAL/MOL
REMARK 923 INTER-LIGAND FREE ENERGY PREDICTED BY IDOCK:   -7.21 KCAL/MOL
REMARK 924 INTRA-LIGAND FREE ENERGY PREDICTED BY IDOCK:   -0.82 KCAL/MOL
REMARK 927      BINDING AFFINITY PREDICTED BY RF-SCORE:    0.00 PKD
ROOT
HETATM    1  C   UNL     1     -12.349  13.860  71.052  1.00  0.00    -0.376 C  
HETATM    2  O   UNL     1     -12.644  13.877  69.658  1.00  0.00    -0.238 OA 
ENDROOT
BRANCH   2   3
HETATM    3  C   UNL     1     -11.892  13.059  68.861  1.00  0.00    -0.316 A  
HETATM    4  C   UNL     1     -11.765  13.172  67.477  1.00  0.00    -0.414 A  
HETATM    5  C   UNL     1     -10.979  12.245  66.755  1.00  0.00    -0.321 A  
HETATM    6  C   UNL     1     -10.364  11.190  67.429  1.00  0.00    -0.196 A  
HETATM    7  C   UNL     1     -10.406  11.132  68.837  1.00  0.00    -0.220 A  
HETATM    8  N   UNL     1      -9.785  10.340  66.471  1.00  0.00    -0.185 N  
HETATM    9  C   UNL     1      -9.228   9.047  66.713  1.00  0.00    -0.157 C  
HETATM   10  C   UNL     1     -11.199  12.057  69.527  1.00  0.00    -0.220 A  
HETATM   11  C   UNL     1      -9.854  11.004  65.233  1.00  0.00    -0.259 A  
HETATM   12  C   UNL     1     -10.598  12.170  65.386  1.00  0.00    -0.309 A  
HETATM   13  O   UNL     1      -8.363   8.648  65.939  1.00  0.00    -0.121 OA 
HETATM   14  C   UNL     1      -9.302  10.462  63.949  1.00  0.00    -0.322 C  
BRANCH   9  15
HETATM   15  C   UNL     1      -9.582   8.141  67.845  1.00  0.00    -0.179 A  
HETATM   16  C   UNL     1     -10.775   7.407  67.759  1.00  0.00    -0.249 A  
HETATM   17  C   UNL     1      -8.775   8.007  68.982  1.00  0.00    -0.137 A  
HETATM   18  C   UNL     1      -9.080   7.038  69.945  1.00  0.00    -0.141 A  
HETATM   19 CL   UNL     1     -10.549   5.002  70.939  1.00  0.00    -0.213 Cl 
HETATM   20  C   UNL     1     -10.222   6.251  69.803  1.00  0.00    -0.187 A  
HETATM   21  C   UNL     1     -11.092   6.458  68.735  1.00  0.00    -0.404 A  
ENDBRANCH   9  15
BRANCH  12  22
HETATM   22  C   UNL     1     -11.000  13.140  64.303  1.00  0.00    -0.428 C  
HETATM   23  O   UNL     1     -13.277  12.219  64.352  1.00  0.00    -0.806 OA 
HETATM   24  C   UNL     1     -12.403  13.035  63.731  1.00  0.00    -0.397 C  
HETATM   25  O   UNL     1     -12.740  13.680  62.744  1.00  0.00    -0.420 OA 
ENDBRANCH  12  22
ENDBRANCH   2   3
TORSDOF 3
ENDMDL
MODEL       18
REMARK 921   NORMALIZED FREE ENERGY PREDICTED BY IDOCK:   -6.00 KCAL/MOL
REMARK 922        TOTAL FREE ENERGY PREDICTED BY IDOCK:   -7.98 KCAL/MOL
REMARK 923 INTER-LIGAND FREE ENERGY PREDICTED BY IDOCK:   -7.14 KCAL/MOL
REMARK 924 INTRA-LIGAND FREE ENERGY PREDICTED BY IDOCK:   -0.84 KCAL/MOL
REMARK 927      BINDING AFFINITY PREDICTED BY RF-SCORE:    0.00 PKD
ROOT
HETATM    1  C   UNL     1     -12.646  11.547  71.407  1.00  0.00    -0.314 C  
HETATM    2  O   UNL     1     -12.285  12.508  70.418  1.00  0.00    -0.348 OA 
ENDROOT
BRANCH   2   3
HETATM    3  C   UNL     1     -11.675  12.029  69.292  1.00  0.00    -0.330 A  
HETATM    4  C   UNL     1     -11.858  12.523  68.001  1.00  0.00    -0.382 A  
HETATM    5  C   UNL     1     -11.193  11.924  66.907  1.00  0.00    -0.382 A  
HETATM    6  C   UNL     1     -10.382  10.809  67.120  1.00  0.00    -0.224 A  
HETATM    7  C   UNL     1     -10.114  10.372  68.432  1.00  0.00    -0.181 A  
HETATM    8  N   UNL     1      -9.973  10.323  65.865  1.00  0.00    -0.243 N  
HETATM    9  C   UNL     1      -9.299   9.089  65.615  1.00  0.00    -0.222 C  
HETATM   10  C   UNL     1     -10.793  10.976  69.497  1.00  0.00    -0.267 A  
HETATM   11  C   UNL     1     -10.351  11.280  64.907  1.00  0.00    -0.304 A  
HETATM   12  C   UNL     1     -11.114  12.266  65.527  1.00  0.00    -0.348 A  
HETATM   13  O   UNL     1      -8.600   9.018  64.609  1.00  0.00    -0.173 OA 
HETATM   14  C   UNL     1     -10.058  11.173  63.441  1.00  0.00    -0.439 C  
BRANCH   9  15
HETATM   15  C   UNL     1      -9.342   7.877  66.485  1.00  0.00    -0.255 A  
HETATM   16  C   UNL     1     -10.589   7.283  66.735  1.00  0.00    -0.288 A  
HETATM   17  C   UNL     1      -8.192   7.323  67.063  1.00  0.00    -0.117 A  
HETATM   18  C   UNL     1      -8.272   6.107  67.749  1.00  0.00    -0.117 A  
HETATM   19 CL   UNL     1      -9.591   3.942  68.680  1.00  0.00    -0.210 Cl 
HETATM   20  C   UNL     1      -9.506   5.479  67.914  1.00  0.00    -0.116 A  
HETATM   21  C   UNL     1     -10.670   6.082  67.444  1.00  0.00    -0.393 A  
ENDBRANCH   9  15
BRANCH  12  22
HETATM   22  C   UNL     1     -11.801  13.434  64.866  1.00  0.00    -0.403 C  
HETATM   23  O   UNL     1      -9.831  14.828  65.327  1.00  0.00    -0.329 OA 
HETATM   24  C   UNL     1     -11.106  14.785  64.893  1.00  0.00    -0.407 C  
HETATM   25  O   UNL     1     -11.676  15.804  64.519  1.00  0.00    -0.346 OA 
ENDBRANCH  12  22
ENDBRANCH   2   3
TORSDOF 3
ENDMDL
MODEL       19
REMARK 921   NORMALIZED FREE ENERGY PREDICTED BY IDOCK:   -5.98 KCAL/MOL
REMARK 922        TOTAL FREE ENERGY PREDICTED BY IDOCK:   -7.96 KCAL/MOL
REMARK 923 INTER-LIGAND FREE ENERGY PREDICTED BY IDOCK:   -7.11 KCAL/MOL
REMARK 924 INTRA-LIGAND FREE ENERGY PREDICTED BY IDOCK:   -0.85 KCAL/MOL
REMARK 927      BINDING AFFINITY PREDICTED BY RF-SCORE:    0.00 PKD
ROOT
HETATM    1  C   UNL     1     -12.904  11.967  63.378  1.00  0.00    -0.291 C  
HETATM    2  O   UNL     1     -13.013  12.459  64.711  1.00  0.00    -0.786 OA 
ENDROOT
BRANCH   2   3
HETATM    3  C   UNL     1     -11.842  12.758  65.352  1.00  0.00    -0.415 A  
HETATM    4  C   UNL     1     -11.181  11.926  66.255  1.00  0.00    -0.392 A  
HETATM    5  C   UNL     1      -9.988  12.357  66.880  1.00  0.00    -0.223 A  
HETATM    6  C   UNL     1      -9.498  13.637  66.619  1.00  0.00    -0.277 A  
HETATM    7  C   UNL     1     -10.105  14.438  65.631  1.00  0.00    -0.377 A  
HETATM    8  N   UNL     1      -8.406  13.867  67.475  1.00  0.00    -0.183 N  
HETATM    9  C   UNL     1      -7.736  15.112  67.676  1.00  0.00    -0.167 C  
HETATM   10  C   UNL     1     -11.291  13.991  65.035  1.00  0.00    -0.342 A  
HETATM   11  C   UNL     1      -8.097  12.641  68.090  1.00  0.00    -0.164 A  
HETATM   12  C   UNL     1      -9.068  11.704  67.747  1.00  0.00    -0.175 A  
HETATM   13  O   UNL     1      -6.565  15.075  68.042  1.00  0.00    -0.116 OA 
HETATM   14  C   UNL     1      -6.961  12.435  69.046  1.00  0.00    -0.071 C  
BRANCH   9  15
HETATM   15  C   UNL     1      -8.324  16.467  67.455  1.00  0.00    -0.183 A  
HETATM   16  C   UNL     1      -9.341  16.898  68.320  1.00  0.00    -0.248 A  
HETATM   17  C   UNL     1      -7.904  17.309  66.417  1.00  0.00    -0.345 A  
HETATM   18  C   UNL     1      -8.386  18.620  66.343  1.00  0.00    -0.292 A  
HETATM   19 CL   UNL     1      -9.857  20.705  67.229  1.00  0.00    -0.600 Cl 
HETATM   20  C   UNL     1      -9.332  19.068  67.265  1.00  0.00    -0.304 A  
HETATM   21  C   UNL     1      -9.841  18.200  68.229  1.00  0.00    -0.360 A  
ENDBRANCH   9  15
BRANCH  12  22
HETATM   22  C   UNL     1      -9.184  10.288  68.252  1.00  0.00    -0.139 C  
HETATM   23  O   UNL     1     -11.019  10.985  69.730  1.00  0.00    -0.250 OA 
HETATM   24  C   UNL     1     -10.164  10.005  69.377  1.00  0.00    -0.222 C  
HETATM   25  O   UNL     1     -10.192   8.916  69.941  1.00  0.00    -0.189 OA 
ENDBRANCH  12  22
ENDBRANCH   2   3
TORSDOF 3
ENDMDL
MODEL       20
REMARK 921   NORMALIZED FREE ENERGY PREDICTED BY IDOCK:   -5.97 KCAL/MOL
REMARK 922        TOTAL FREE ENERGY PREDICTED BY IDOCK:   -7.95 KCAL/MOL
REMARK 923 INTER-LIGAND FREE ENERGY PREDICTED BY IDOCK:   -7.56 KCAL/MOL
REMARK 924 INTRA-LIGAND FREE ENERGY PREDICTED BY IDOCK:   -0.40 KCAL/MOL
REMARK 927      BINDING AFFINITY PREDICTED BY RF-SCORE:    0.00 PKD
ROOT
HETATM    1  C   UNL     1      -9.568   8.363  72.195  1.00  0.00    -0.297 C  
HETATM    2  O   UNL     1     -10.107   8.194  70.887  1.00  0.00    -0.186 OA 
ENDROOT
BRANCH   2   3
HETATM    3  C   UNL     1     -10.372   9.335  70.181  1.00  0.00    -0.222 A  
HETATM    4  C   UNL     1      -9.789   9.686  68.964  1.00  0.00    -0.183 A  
HETATM    5  C   UNL     1     -10.122  10.910  68.341  1.00  0.00    -0.196 A  
HETATM    6  C   UNL     1     -11.007  11.786  68.971  1.00  0.00    -0.227 A  
HETATM    7  C   UNL     1     -11.675  11.389  70.147  1.00  0.00    -0.414 A  
HETATM    8  N   UNL     1     -11.042  12.978  68.226  1.00  0.00    -0.249 N  
HETATM    9  C   UNL     1     -11.664  14.203  68.619  1.00  0.00    -0.350 C  
HETATM   10  C   UNL     1     -11.320  10.176  70.749  1.00  0.00    -0.436 A  
HETATM   11  C   UNL     1     -10.354  12.737  67.024  1.00  0.00    -0.234 A  
HETATM   12  C   UNL     1      -9.770  11.475  67.083  1.00  0.00    -0.199 A  
HETATM   13  O   UNL     1     -12.032  14.963  67.729  1.00  0.00    -0.321 OA 
HETATM   14  C   UNL     1     -10.199  13.739  65.920  1.00  0.00    -0.322 C  
BRANCH   9  15
HETATM   15  C   UNL     1     -11.937  14.634  70.022  1.00  0.00    -0.376 A  
HETATM   16  C   UNL     1     -13.106  14.170  70.643  1.00  0.00    -0.211 A  
HETATM   17  C   UNL     1     -11.078  15.486  70.728  1.00  0.00    -0.383 A  
HETATM   18  C   UNL     1     -11.307  15.742  72.084  1.00  0.00    -0.311 A  
HETATM   19 CL   UNL     1     -12.660  15.442  74.402  1.00  0.00    -0.665 Cl 
HETATM   20  C   UNL     1     -12.426  15.200  72.716  1.00  0.00    -0.389 A  
HETATM   21  C   UNL     1     -13.348  14.448  71.992  1.00  0.00    -0.469 A  
ENDBRANCH   9  15
BRANCH  12  22
HETATM   22  C   UNL     1      -8.866  10.843  66.054  1.00  0.00    -0.198 C  
HETATM   23  O   UNL     1     -10.770  10.678  64.510  1.00  0.00    -0.236 OA 
HETATM   24  C   UNL     1      -9.488  10.350  64.758  1.00  0.00    -0.273 C  
HETATM   25  O   UNL     1      -8.843   9.686  63.953  1.00  0.00    -0.210 OA 
ENDBRANCH  12  22
ENDBRANCH   2   3
TORSDOF 3
ENDMDL
MODEL       21
REMARK 921   NORMALIZED FREE ENERGY PREDICTED BY IDOCK:   -5.97 KCAL/MOL
REMARK 922        TOTAL FREE ENERGY PREDICTED BY IDOCK:   -7.95 KCAL/MOL
REMARK 923 INTER-LIGAND FREE ENERGY PREDICTED BY IDOCK:   -7.25 KCAL/MOL
REMARK 924 INTRA-LIGAND FREE ENERGY PREDICTED BY IDOCK:   -0.70 KCAL/MOL
REMARK 927      BINDING AFFINITY PREDICTED BY RF-SCORE:    0.00 PKD
ROOT
HETATM    1  C   UNL     1     -13.217  13.122  71.622  1.00  0.00    -0.346 C  
HETATM    2  O   UNL     1     -12.038  12.847  70.871  1.00  0.00    -0.291 OA 
ENDROOT
BRANCH   2   3
HETATM    3  C   UNL     1     -11.780  13.670  69.810  1.00  0.00    -0.297 A  
HETATM    4  C   UNL     1     -12.149  13.424  68.488  1.00  0.00    -0.283 A  
HETATM    5  C   UNL     1     -11.800  14.339  67.468  1.00  0.00    -0.429 A  
HETATM    6  C   UNL     1     -11.046  15.470  67.785  1.00  0.00    -0.315 A  
HETATM    7  C   UNL     1     -10.761  15.773  69.132  1.00  0.00    -0.246 A  
HETATM    8  N   UNL     1     -10.708  16.118  66.584  1.00  0.00    -0.275 N  
HETATM    9  C   UNL     1      -9.787  17.198  66.436  1.00  0.00    -0.300 C  
HETATM   10  C   UNL     1     -11.110  14.846  70.121  1.00  0.00    -0.247 A  
HETATM   11  C   UNL     1     -11.450  15.503  65.559  1.00  0.00    -0.001 A  
HETATM   12  C   UNL     1     -12.116  14.399  66.082  1.00  0.00    -0.373 A  
HETATM   13  O   UNL     1      -9.945  17.953  65.481  1.00  0.00    -0.481 OA 
HETATM   14  C   UNL     1     -11.420  15.926  64.121  1.00  0.00    -0.058 C  
BRANCH   9  15
HETATM   15  C   UNL     1      -8.657  17.516  67.359  1.00  0.00    -0.225 A  
HETATM   16  C   UNL     1      -8.636  18.778  67.972  1.00  0.00    -0.324 A  
HETATM   17  C   UNL     1      -7.622  16.609  67.623  1.00  0.00    -0.170 A  
HETATM   18  C   UNL     1      -6.668  16.904  68.603  1.00  0.00    -0.178 A  
HETATM   19 CL   UNL     1      -5.593  18.452  70.537  1.00  0.00    -0.228 Cl 
HETATM   20  C   UNL     1      -6.711  18.127  69.271  1.00  0.00    -0.211 A  
HETATM   21  C   UNL     1      -7.667  19.082  68.932  1.00  0.00    -0.344 A  
ENDBRANCH   9  15
BRANCH  12  22
HETATM   22  C   UNL     1     -12.953  13.398  65.323  1.00  0.00    -0.258 C  
HETATM   23  O   UNL     1     -10.911  12.506  64.287  1.00  0.00    -0.313 OA 
HETATM   24  C   UNL     1     -12.258  12.502  64.312  1.00  0.00    -0.452 C  
HETATM   25  O   UNL     1     -12.897  11.784  63.551  1.00  0.00    -0.602 OA 
ENDBRANCH  12  22
ENDBRANCH   2   3
TORSDOF 3
ENDMDL
MODEL       22
REMARK 921   NORMALIZED FREE ENERGY PREDICTED BY IDOCK:   -5.95 KCAL/MOL
REMARK 922        TOTAL FREE ENERGY PREDICTED BY IDOCK:   -7.92 KCAL/MOL
REMARK 923 INTER-LIGAND FREE ENERGY PREDICTED BY IDOCK:   -7.20 KCAL/MOL
REMARK 924 INTRA-LIGAND FREE ENERGY PREDICTED BY IDOCK:   -0.72 KCAL/MOL
REMARK 927      BINDING AFFINITY PREDICTED BY RF-SCORE:    0.00 PKD
ROOT
HETATM    1  C   UNL     1      -5.882  13.274  69.967  1.00  0.00    -0.136 C  
HETATM    2  O   UNL     1      -5.410  14.589  69.687  1.00  0.00    -0.091 OA 
ENDROOT
BRANCH   2   3
HETATM    3  C   UNL     1      -6.273  15.423  69.029  1.00  0.00    -0.105 A  
HETATM    4  C   UNL     1      -6.498  16.763  69.343  1.00  0.00    -0.229 A  
HETATM    5  C   UNL     1      -7.439  17.519  68.607  1.00  0.00    -0.265 A  
HETATM    6  C   UNL     1      -8.173  16.905  67.591  1.00  0.00    -0.186 A  
HETATM    7  C   UNL     1      -7.874  15.583  67.205  1.00  0.00    -0.256 A  
HETATM    8  N   UNL     1      -9.134  17.824  67.134  1.00  0.00    -0.242 N  
HETATM    9  C   UNL     1     -10.214  17.544  66.242  1.00  0.00    -0.355 C  
HETATM   10  C   UNL     1      -6.944  14.854  67.956  1.00  0.00    -0.150 A  
HETATM   11  C   UNL     1      -8.829  19.067  67.716  1.00  0.00    -0.294 A  
HETATM   12  C   UNL     1      -7.799  18.895  68.636  1.00  0.00    -0.375 A  
HETATM   13  O   UNL     1     -10.653  18.475  65.572  1.00  0.00    -0.621 OA 
HETATM   14  C   UNL     1      -9.584  20.334  67.453  1.00  0.00    -0.569 C  
BRANCH   9  15
HETATM   15  C   UNL     1     -10.845  16.209  66.025  1.00  0.00    -0.155 A  
HETATM   16  C   UNL     1     -11.030  15.770  64.705  1.00  0.00    -0.410 A  
HETATM   17  C   UNL     1     -11.264  15.393  67.084  1.00  0.00    -0.256 A  
HETATM   18  C   UNL     1     -11.716  14.094  66.828  1.00  0.00    -0.432 A  
HETATM   19 CL   UNL     1     -12.281  12.011  65.205  1.00  0.00    -0.208 Cl 
HETATM   20  C   UNL     1     -11.810  13.635  65.514  1.00  0.00    -0.362 A  
HETATM   21  C   UNL     1     -11.507  14.481  64.449  1.00  0.00    -0.282 A  
ENDBRANCH   9  15
BRANCH  12  22
HETATM   22  C   UNL     1      -7.217  19.941  69.555  1.00  0.00    -0.151 C  
HETATM   23  O   UNL     1      -5.327  20.218  68.010  1.00  0.00    -0.187 OA 
HETATM   24  C   UNL     1      -5.854  20.518  69.213  1.00  0.00    -0.363 C  
HETATM   25  O   UNL     1      -5.255  21.248  69.996  1.00  0.00    -0.521 OA 
ENDBRANCH  12  22
ENDBRANCH   2   3
TORSDOF 3
ENDMDL
MODEL       23
REMARK 921   NORMALIZED FREE ENERGY PREDICTED BY IDOCK:   -5.94 KCAL/MOL
REMARK 922        TOTAL FREE ENERGY PREDICTED BY IDOCK:   -7.92 KCAL/MOL
REMARK 923 INTER-LIGAND FREE ENERGY PREDICTED BY IDOCK:   -6.98 KCAL/MOL
REMARK 924 INTRA-LIGAND FREE ENERGY PREDICTED BY IDOCK:   -0.93 KCAL/MOL
REMARK 927      BINDING AFFINITY PREDICTED BY RF-SCORE:    0.00 PKD
ROOT
HETATM    1  C   UNL     1     -13.421  13.089  72.107  1.00  0.00    -0.542 C  
HETATM    2  O   UNL     1     -13.193  11.683  72.056  1.00  0.00    -0.501 OA 
ENDROOT
BRANCH   2   3
HETATM    3  C   UNL     1     -12.425  11.224  71.021  1.00  0.00    -0.400 A  
HETATM    4  C   UNL     1     -11.613  10.091  71.058  1.00  0.00    -0.476 A  
HETATM    5  C   UNL     1     -10.839   9.731  69.931  1.00  0.00    -0.306 A  
HETATM    6  C   UNL     1     -10.861  10.539  68.793  1.00  0.00    -0.231 A  
HETATM    7  C   UNL     1     -11.758  11.624  68.716  1.00  0.00    -0.392 A  
HETATM    8  N   UNL     1      -9.899  10.049  67.893  1.00  0.00    -0.143 N  
HETATM    9  C   UNL     1      -9.457  10.689  66.695  1.00  0.00    -0.167 C  
HETATM   10  C   UNL     1     -12.505  11.965  69.850  1.00  0.00    -0.046 A  
HETATM   11  C   UNL     1      -9.458   8.810  68.392  1.00  0.00    -0.141 A  
HETATM   12  C   UNL     1     -10.015   8.605  69.651  1.00  0.00    -0.191 A  
HETATM   13  O   UNL     1      -9.013   9.976  65.801  1.00  0.00    -0.146 OA 
HETATM   14  C   UNL     1      -8.461   7.926  67.706  1.00  0.00    -0.125 C  
BRANCH   9  15
HETATM   15  C   UNL     1      -9.512  12.155  66.416  1.00  0.00    -0.238 A  
HETATM   16  C   UNL     1     -10.318  12.598  65.357  1.00  0.00    -0.311 A  
HETATM   17  C   UNL     1      -8.786  13.091  67.163  1.00  0.00    -0.204 A  
HETATM   18  C   UNL     1      -8.986  14.460  66.951  1.00  0.00    -0.263 A  
HETATM   19 CL   UNL     1     -10.172  16.569  65.752  1.00  0.00    -0.364 Cl 
HETATM   20  C   UNL     1      -9.860  14.890  65.953  1.00  0.00    -0.332 A  
HETATM   21  C   UNL     1     -10.497  13.965  65.128  1.00  0.00    -0.409 A  
ENDBRANCH   9  15
BRANCH  12  22
HETATM   22  C   UNL     1      -9.744   7.455  70.589  1.00  0.00    -0.175 C  
HETATM   23  O   UNL     1     -11.350   6.081  69.335  1.00  0.00    -0.398 OA 
HETATM   24  C   UNL     1     -10.566   6.188  70.426  1.00  0.00    -0.257 C  
HETATM   25  O   UNL     1     -10.511   5.281  71.249  1.00  0.00    -0.226 OA 
ENDBRANCH  12  22
ENDBRANCH   2   3
TORSDOF 3
ENDMDL
MODEL       24
REMARK 921   NORMALIZED FREE ENERGY PREDICTED BY IDOCK:   -5.94 KCAL/MOL
REMARK 922        TOTAL FREE ENERGY PREDICTED BY IDOCK:   -7.91 KCAL/MOL
REMARK 923 INTER-LIGAND FREE ENERGY PREDICTED BY IDOCK:   -7.11 KCAL/MOL
REMARK 924 INTRA-LIGAND FREE ENERGY PREDICTED BY IDOCK:   -0.81 KCAL/MOL
REMARK 927      BINDING AFFINITY PREDICTED BY RF-SCORE:    0.00 PKD
ROOT
HETATM    1  C   UNL     1      -5.375  16.503  68.485  1.00  0.00    -0.113 C  
HETATM    2  O   UNL     1      -6.144  15.508  69.155  1.00  0.00    -0.104 OA 
ENDROOT
BRANCH   2   3
HETATM    3  C   UNL     1      -7.240  15.029  68.491  1.00  0.00    -0.115 A  
HETATM    4  C   UNL     1      -8.061  15.773  67.646  1.00  0.00    -0.163 A  
HETATM    5  C   UNL     1      -9.187  15.174  67.036  1.00  0.00    -0.239 A  
HETATM    6  C   UNL     1      -9.496  13.842  67.317  1.00  0.00    -0.239 A  
HETATM    7  C   UNL     1      -8.611  13.060  68.087  1.00  0.00    -0.188 A  
HETATM    8  N   UNL     1     -10.732  13.546  66.716  1.00  0.00    -0.277 N  
HETATM    9  C   UNL     1     -11.507  12.363  66.914  1.00  0.00    -0.360 C  
HETATM   10  C   UNL     1      -7.509  13.681  68.687  1.00  0.00    -0.113 A  
HETATM   11  C   UNL     1     -11.057  14.630  65.881  1.00  0.00    -0.338 A  
HETATM   12  C   UNL     1     -10.126  15.646  66.076  1.00  0.00    -0.355 A  
HETATM   13  O   UNL     1     -12.267  12.024  66.012  1.00  0.00    -0.546 OA 
HETATM   14  C   UNL     1     -12.278  14.697  65.015  1.00  0.00    -0.323 C  
BRANCH   9  15
HETATM   15  C   UNL     1     -11.458  11.476  68.114  1.00  0.00    -0.385 A  
HETATM   16  C   UNL     1     -10.855  10.216  67.983  1.00  0.00    -0.320 A  
HETATM   17  C   UNL     1     -11.996  11.853  69.351  1.00  0.00    -0.350 A  
HETATM   18  C   UNL     1     -11.795  11.045  70.476  1.00  0.00    -0.464 A  
HETATM   19 CL   UNL     1     -10.790   8.885  71.747  1.00  0.00    -0.414 Cl 
HETATM   20  C   UNL     1     -11.114   9.835  70.351  1.00  0.00    -0.307 A  
HETATM   21  C   UNL     1     -10.678   9.397  69.102  1.00  0.00    -0.216 A  
ENDBRANCH   9  15
BRANCH  12  22
HETATM   22  C   UNL     1     -10.139  17.022  65.458  1.00  0.00    -0.035 C  
HETATM   23  O   UNL     1     -10.770  17.973  67.633  1.00  0.00    -0.415 OA 
HETATM   24  C   UNL     1     -10.593  18.190  66.315  1.00  0.00    -0.274 C  
HETATM   25  O   UNL     1     -10.781  19.302  65.832  1.00  0.00    -0.456 OA 
ENDBRANCH  12  22
ENDBRANCH   2   3
TORSDOF 3
ENDMDL
MODEL       25
REMARK 921   NORMALIZED FREE ENERGY PREDICTED BY IDOCK:   -5.94 KCAL/MOL
REMARK 922        TOTAL FREE ENERGY PREDICTED BY IDOCK:   -7.91 KCAL/MOL
REMARK 923 INTER-LIGAND FREE ENERGY PREDICTED BY IDOCK:   -7.05 KCAL/MOL
REMARK 924 INTRA-LIGAND FREE ENERGY PREDICTED BY IDOCK:   -0.86 KCAL/MOL
REMARK 927      BINDING AFFINITY PREDICTED BY RF-SCORE:    0.00 PKD
ROOT
HETATM    1  C   UNL     1      -8.313   8.339  65.758  1.00  0.00    -0.137 C  
HETATM    2  O   UNL     1      -8.357   8.073  67.157  1.00  0.00    -0.118 OA 
ENDROOT
BRANCH   2   3
HETATM    3  C   UNL     1      -9.120   8.915  67.918  1.00  0.00    -0.139 A  
HETATM    4  C   UNL     1     -10.040   8.517  68.887  1.00  0.00    -0.213 A  
HETATM    5  C   UNL     1     -10.795   9.482  69.592  1.00  0.00    -0.255 A  
HETATM    6  C   UNL     1     -10.645  10.835  69.284  1.00  0.00    -0.229 A  
HETATM    7  C   UNL     1      -9.644  11.245  68.380  1.00  0.00    -0.195 A  
HETATM    8  N   UNL     1     -11.611  11.556  70.008  1.00  0.00    -0.302 N  
HETATM    9  C   UNL     1     -11.936  12.936  69.843  1.00  0.00    -0.307 C  
HETATM   10  C   UNL     1      -8.917  10.269  67.689  1.00  0.00    -0.137 A  
HETATM   11  C   UNL     1     -12.192  10.663  70.926  1.00  0.00    -0.395 A  
HETATM   12  C   UNL     1     -11.713   9.380  70.675  1.00  0.00    -0.302 A  
HETATM   13  O   UNL     1     -12.408  13.528  70.808  1.00  0.00    -0.347 OA 
HETATM   14  C   UNL     1     -13.240  11.041  71.928  1.00  0.00    -0.503 C  
BRANCH   9  15
HETATM   15  C   UNL     1     -11.726  13.742  68.603  1.00  0.00    -0.391 A  
HETATM   16  C   UNL     1     -10.948  14.906  68.693  1.00  0.00    -0.263 A  
HETATM   17  C   UNL     1     -12.281  13.382  67.368  1.00  0.00    -0.262 A  
HETATM   18  C   UNL     1     -11.934  14.091  66.214  1.00  0.00    -0.454 A  
HETATM   19 CL   UNL     1     -10.591  16.013  64.873  1.00  0.00    -0.348 Cl 
HETATM   20  C   UNL     1     -11.087  15.195  66.302  1.00  0.00    -0.309 A  
HETATM   21  C   UNL     1     -10.624  15.630  67.542  1.00  0.00    -0.297 A  
ENDBRANCH   9  15
BRANCH  12  22
HETATM   22  C   UNL     1     -12.135   8.102  71.357  1.00  0.00    -0.326 C  
HETATM   23  O   UNL     1     -10.136   8.225  72.781  1.00  0.00    -0.294 OA 
HETATM   24  C   UNL     1     -11.197   7.494  72.386  1.00  0.00    -0.308 C  
HETATM   25  O   UNL     1     -11.402   6.381  72.857  1.00  0.00    -0.225 OA 
ENDBRANCH  12  22
ENDBRANCH   2   3
TORSDOF 3
ENDMDL
MODEL       26
REMARK 921   NORMALIZED FREE ENERGY PREDICTED BY IDOCK:   -5.94 KCAL/MOL
REMARK 922        TOTAL FREE ENERGY PREDICTED BY IDOCK:   -7.91 KCAL/MOL
REMARK 923 INTER-LIGAND FREE ENERGY PREDICTED BY IDOCK:   -7.16 KCAL/MOL
REMARK 924 INTRA-LIGAND FREE ENERGY PREDICTED BY IDOCK:   -0.75 KCAL/MOL
REMARK 927      BINDING AFFINITY PREDICTED BY RF-SCORE:    0.00 PKD
ROOT
HETATM    1  C   UNL     1      -8.269  10.577  68.706  1.00  0.00    -0.134 C  
HETATM    2  O   UNL     1      -7.498  11.764  68.537  1.00  0.00    -0.098 OA 
ENDROOT
BRANCH   2   3
HETATM    3  C   UNL     1      -8.146  12.846  68.008  1.00  0.00    -0.159 A  
HETATM    4  C   UNL     1      -8.906  12.841  66.839  1.00  0.00    -0.194 A  
HETATM    5  C   UNL     1      -9.506  14.034  66.374  1.00  0.00    -0.278 A  
HETATM    6  C   UNL     1      -9.301  15.226  67.070  1.00  0.00    -0.224 A  
HETATM    7  C   UNL     1      -8.622  15.214  68.305  1.00  0.00    -0.164 A  
HETATM    8  N   UNL     1      -9.869  16.270  66.319  1.00  0.00    -0.292 N  
HETATM    9  C   UNL     1      -9.716  17.669  66.566  1.00  0.00    -0.304 C  
HETATM   10  C   UNL     1      -8.028  14.021  68.738  1.00  0.00    -0.081 A  
HETATM   11  C   UNL     1     -10.615  15.679  65.285  1.00  0.00    -0.426 A  
HETATM   12  C   UNL     1     -10.393  14.305  65.294  1.00  0.00    -0.417 A  
HETATM   13  O   UNL     1     -10.607  18.415  66.170  1.00  0.00    -0.409 OA 
HETATM   14  C   UNL     1     -11.423  16.442  64.279  1.00  0.00     0.120 C  
BRANCH   9  15
HETATM   15  C   UNL     1      -8.581  18.310  67.292  1.00  0.00    -0.254 A  
HETATM   16  C   UNL     1      -7.319  18.314  66.679  1.00  0.00    -0.251 A  
HETATM   17  C   UNL     1      -8.729  18.894  68.557  1.00  0.00    -0.382 A  
HETATM   18  C   UNL     1      -7.668  19.605  69.127  1.00  0.00    -0.235 A  
HETATM   19 CL   UNL     1      -5.168  20.626  69.122  1.00  0.00    -0.311 Cl 
HETATM   20  C   UNL     1      -6.443  19.679  68.464  1.00  0.00    -0.269 A  
HETATM   21  C   UNL     1      -6.251  19.003  67.262  1.00  0.00    -0.175 A  
ENDBRANCH   9  15
BRANCH  12  22
HETATM   22  C   UNL     1     -10.918  13.292  64.308  1.00  0.00    -0.418 C  
HETATM   23  O   UNL     1     -13.184  13.631  65.196  1.00  0.00    -0.739 OA 
HETATM   24  C   UNL     1     -12.386  12.907  64.387  1.00  0.00    -0.398 C  
HETATM   25  O   UNL     1     -12.838  11.979  63.726  1.00  0.00    -0.668 OA 
ENDBRANCH  12  22
ENDBRANCH   2   3
TORSDOF 3
ENDMDL
MODEL       27
REMARK 921   NORMALIZED FREE ENERGY PREDICTED BY IDOCK:   -5.92 KCAL/MOL
REMARK 922        TOTAL FREE ENERGY PREDICTED BY IDOCK:   -7.90 KCAL/MOL
REMARK 923 INTER-LIGAND FREE ENERGY PREDICTED BY IDOCK:   -7.01 KCAL/MOL
REMARK 924 INTRA-LIGAND FREE ENERGY PREDICTED BY IDOCK:   -0.88 KCAL/MOL
REMARK 927      BINDING AFFINITY PREDICTED BY RF-SCORE:    0.00 PKD
ROOT
HETATM    1  C   UNL     1      -5.937  14.022  70.599  1.00  0.00    -0.186 C  
HETATM    2  O   UNL     1      -6.636  15.186  70.168  1.00  0.00    -0.161 OA 
ENDROOT
BRANCH   2   3
HETATM    3  C   UNL     1      -7.438  15.048  69.068  1.00  0.00    -0.156 A  
HETATM    4  C   UNL     1      -8.220  16.057  68.507  1.00  0.00    -0.181 A  
HETATM    5  C   UNL     1      -9.034  15.786  67.383  1.00  0.00    -0.204 A  
HETATM    6  C   UNL     1      -9.083  14.492  66.864  1.00  0.00    -0.255 A  
HETATM    7  C   UNL     1      -8.218  13.498  67.363  1.00  0.00    -0.187 A  
HETATM    8  N   UNL     1     -10.072  14.462  65.865  1.00  0.00    -0.310 N  
HETATM    9  C   UNL     1     -10.583  13.297  65.216  1.00  0.00    -0.315 C  
HETATM   10  C   UNL     1      -7.429  13.790  68.483  1.00  0.00    -0.119 A  
HETATM   11  C   UNL     1     -10.460  15.792  65.625  1.00  0.00    -0.383 A  
HETATM   12  C   UNL     1      -9.842  16.619  66.559  1.00  0.00    -0.295 A  
HETATM   13  O   UNL     1     -11.049  13.434  64.088  1.00  0.00    -0.378 OA 
HETATM   14  C   UNL     1     -11.464  16.210  64.594  1.00  0.00    -0.225 C  
BRANCH   9  15
HETATM   15  C   UNL     1     -10.577  11.912  65.772  1.00  0.00    -0.309 A  
HETATM   16  C   UNL     1      -9.895  10.913  65.060  1.00  0.00    -0.336 A  
HETATM   17  C   UNL     1     -11.230  11.577  66.965  1.00  0.00    -0.365 A  
HETATM   18  C   UNL     1     -11.072  10.300  67.514  1.00  0.00    -0.302 A  
HETATM   19 CL   UNL     1     -10.048   7.801  67.556  1.00  0.00    -0.247 Cl 
HETATM   20  C   UNL     1     -10.316   9.341  66.840  1.00  0.00    -0.246 A  
HETATM   21  C   UNL     1      -9.760   9.630  65.596  1.00  0.00    -0.363 A  
ENDBRANCH   9  15
BRANCH  12  22
HETATM   22  C   UNL     1     -10.041  18.104  66.731  1.00  0.00    -0.367 C  
HETATM   23  O   UNL     1      -7.863  18.501  65.665  1.00  0.00    -0.491 OA 
HETATM   24  C   UNL     1      -8.906  19.032  66.333  1.00  0.00    -0.321 C  
HETATM   25  O   UNL     1      -8.939  20.229  66.594  1.00  0.00    -0.312 OA 
ENDBRANCH  12  22
ENDBRANCH   2   3
TORSDOF 3
ENDMDL
MODEL       28
REMARK 921   NORMALIZED FREE ENERGY PREDICTED BY IDOCK:   -5.90 KCAL/MOL
REMARK 922        TOTAL FREE ENERGY PREDICTED BY IDOCK:   -7.86 KCAL/MOL
REMARK 923 INTER-LIGAND FREE ENERGY PREDICTED BY IDOCK:   -7.12 KCAL/MOL
REMARK 924 INTRA-LIGAND FREE ENERGY PREDICTED BY IDOCK:   -0.74 KCAL/MOL
REMARK 927      BINDING AFFINITY PREDICTED BY RF-SCORE:    0.00 PKD
ROOT
HETATM    1  C   UNL     1     -10.298  18.655  66.576  1.00  0.00    -0.421 C  
HETATM    2  O   UNL     1     -10.391  17.618  65.603  1.00  0.00    -0.606 OA 
ENDROOT
BRANCH   2   3
HETATM    3  C   UNL     1     -10.688  16.366  66.068  1.00  0.00    -0.191 A  
HETATM    4  C   UNL     1     -11.111  16.064  67.361  1.00  0.00    -0.167 A  
HETATM    5  C   UNL     1     -11.360  14.723  67.735  1.00  0.00    -0.344 A  
HETATM    6  C   UNL     1     -11.141  13.699  66.813  1.00  0.00    -0.307 A  
HETATM    7  C   UNL     1     -10.815  14.009  65.477  1.00  0.00    -0.311 A  
HETATM    8  N   UNL     1     -11.312  12.472  67.478  1.00  0.00    -0.291 N  
HETATM    9  C   UNL     1     -10.993  11.179  66.962  1.00  0.00    -0.289 C  
HETATM   10  C   UNL     1     -10.564  15.344  65.136  1.00  0.00    -0.458 A  
HETATM   11  C   UNL     1     -11.857  12.758  68.742  1.00  0.00    -0.307 A  
HETATM   12  C   UNL     1     -11.881  14.138  68.923  1.00  0.00    -0.382 A  
HETATM   13  O   UNL     1     -11.612  10.219  67.413  1.00  0.00    -0.198 OA 
HETATM   14  C   UNL     1     -12.238  11.721  69.755  1.00  0.00    -0.270 C  
BRANCH   9  15
HETATM   15  C   UNL     1      -9.990  10.885  65.896  1.00  0.00    -0.294 A  
HETATM   16  C   UNL     1      -8.639  10.795  66.263  1.00  0.00    -0.163 A  
HETATM   17  C   UNL     1     -10.349  10.708  64.553  1.00  0.00    -0.352 A  
HETATM   18  C   UNL     1      -9.389  10.294  63.623  1.00  0.00    -0.338 A  
HETATM   19 CL   UNL     1      -6.904   9.526  62.898  1.00  0.00    -0.098 Cl 
HETATM   20  C   UNL     1      -8.064  10.120  64.019  1.00  0.00    -0.158 A  
HETATM   21  C   UNL     1      -7.677  10.407  65.326  1.00  0.00    -0.124 A  
ENDBRANCH   9  15
BRANCH  12  22
HETATM   22  C   UNL     1     -12.299  14.885  70.165  1.00  0.00    -0.376 C  
HETATM   23  O   UNL     1      -9.937  15.353  70.655  1.00  0.00     0.083 OA 
HETATM   24  C   UNL     1     -11.212  15.407  71.088  1.00  0.00    -0.361 C  
HETATM   25  O   UNL     1     -11.480  15.878  72.188  1.00  0.00    -0.399 OA 
ENDBRANCH  12  22
ENDBRANCH   2   3
TORSDOF 3
ENDMDL
MODEL       29
REMARK 921   NORMALIZED FREE ENERGY PREDICTED BY IDOCK:   -5.89 KCAL/MOL
REMARK 922        TOTAL FREE ENERGY PREDICTED BY IDOCK:   -7.85 KCAL/MOL
REMARK 923 INTER-LIGAND FREE ENERGY PREDICTED BY IDOCK:   -6.96 KCAL/MOL
REMARK 924 INTRA-LIGAND FREE ENERGY PREDICTED BY IDOCK:   -0.89 KCAL/MOL
REMARK 927      BINDING AFFINITY PREDICTED BY RF-SCORE:    0.00 PKD
ROOT
HETATM    1  C   UNL     1      -6.389   8.180  67.504  1.00  0.00    -0.056 C  
HETATM    2  O   UNL     1      -7.714   7.685  67.670  1.00  0.00    -0.116 OA 
ENDROOT
BRANCH   2   3
HETATM    3  C   UNL     1      -8.599   8.504  68.316  1.00  0.00    -0.139 A  
HETATM    4  C   UNL     1      -9.624   8.081  69.161  1.00  0.00    -0.156 A  
HETATM    5  C   UNL     1     -10.498   9.023  69.750  1.00  0.00    -0.227 A  
HETATM    6  C   UNL     1     -10.355  10.378  69.448  1.00  0.00    -0.237 A  
HETATM    7  C   UNL     1      -9.259  10.818  68.678  1.00  0.00    -0.184 A  
HETATM    8  N   UNL     1     -11.431  11.069  70.032  1.00  0.00    -0.306 N  
HETATM    9  C   UNL     1     -11.779  12.436  69.810  1.00  0.00    -0.291 C  
HETATM   10  C   UNL     1      -8.414   9.863  68.099  1.00  0.00    -0.114 A  
HETATM   11  C   UNL     1     -12.096  10.163  70.877  1.00  0.00    -0.356 A  
HETATM   12  C   UNL     1     -11.545   8.896  70.705  1.00  0.00    -0.301 A  
HETATM   13  O   UNL     1     -12.393  13.018  70.699  1.00  0.00    -0.356 OA 
HETATM   14  C   UNL     1     -13.279  10.510  71.729  1.00  0.00    -0.522 C  
BRANCH   9  15
HETATM   15  C   UNL     1     -11.436  13.240  68.599  1.00  0.00    -0.339 A  
HETATM   16  C   UNL     1     -11.979  12.847  67.366  1.00  0.00    -0.360 A  
HETATM   17  C   UNL     1     -10.592  14.357  68.650  1.00  0.00    -0.253 A  
HETATM   18  C   UNL     1     -10.421  15.156  67.515  1.00  0.00    -0.258 A  
HETATM   19 CL   UNL     1     -10.901  15.833  64.945  1.00  0.00    -0.467 Cl 
HETATM   20  C   UNL     1     -11.040  14.804  66.316  1.00  0.00    -0.341 A  
HETATM   21  C   UNL     1     -11.786  13.631  66.226  1.00  0.00    -0.426 A  
ENDBRANCH   9  15
BRANCH  12  22
HETATM   22  C   UNL     1     -12.008   7.609  71.341  1.00  0.00    -0.336 C  
HETATM   23  O   UNL     1     -10.361   7.926  73.137  1.00  0.00    -0.332 OA 
HETATM   24  C   UNL     1     -11.263   7.105  72.565  1.00  0.00    -0.290 C  
HETATM   25  O   UNL     1     -11.483   5.992  73.032  1.00  0.00    -0.196 OA 
ENDBRANCH  12  22
ENDBRANCH   2   3
TORSDOF 3
ENDMDL
MODEL       30
REMARK 921   NORMALIZED FREE ENERGY PREDICTED BY IDOCK:   -5.86 KCAL/MOL
REMARK 922        TOTAL FREE ENERGY PREDICTED BY IDOCK:   -7.82 KCAL/MOL
REMARK 923 INTER-LIGAND FREE ENERGY PREDICTED BY IDOCK:   -6.89 KCAL/MOL
REMARK 924 INTRA-LIGAND FREE ENERGY PREDICTED BY IDOCK:   -0.93 KCAL/MOL
REMARK 927      BINDING AFFINITY PREDICTED BY RF-SCORE:    0.00 PKD
ROOT
HETATM    1  C   UNL     1     -13.035  11.924  63.334  1.00  0.00    -0.115 C  
HETATM    2  O   UNL     1     -13.119  12.602  64.585  1.00  0.00    -0.821 OA 
ENDROOT
BRANCH   2   3
HETATM    3  C   UNL     1     -11.938  12.837  65.235  1.00  0.00    -0.429 A  
HETATM    4  C   UNL     1     -11.285  11.936  66.075  1.00  0.00    -0.377 A  
HETATM    5  C   UNL     1     -10.080  12.306  66.717  1.00  0.00    -0.224 A  
HETATM    6  C   UNL     1      -9.571  13.592  66.539  1.00  0.00    -0.286 A  
HETATM    7  C   UNL     1     -10.172  14.468  65.613  1.00  0.00    -0.379 A  
HETATM    8  N   UNL     1      -8.469  13.746  67.400  1.00  0.00    -0.192 N  
HETATM    9  C   UNL     1      -7.778  14.964  67.679  1.00  0.00    -0.179 C  
HETATM   10  C   UNL     1     -11.369  14.081  64.997  1.00  0.00    -0.342 A  
HETATM   11  C   UNL     1      -8.176  12.477  67.928  1.00  0.00    -0.165 A  
HETATM   12  C   UNL     1      -9.165  11.581  67.531  1.00  0.00    -0.166 A  
HETATM   13  O   UNL     1      -6.605  14.884  68.031  1.00  0.00    -0.118 OA 
HETATM   14  C   UNL     1      -7.037  12.189  68.859  1.00  0.00    -0.098 C  
BRANCH   9  15
HETATM   15  C   UNL     1      -8.345  16.340  67.554  1.00  0.00    -0.174 A  
HETATM   16  C   UNL     1      -7.817  17.188  66.569  1.00  0.00    -0.325 A  
HETATM   17  C   UNL     1      -9.370  16.810  68.385  1.00  0.00    -0.231 A  
HETATM   18  C   UNL     1      -9.960  18.053  68.131  1.00  0.00    -0.356 A  
HETATM   19 CL   UNL     1     -10.269  20.336  66.721  1.00  0.00    -0.550 Cl 
HETATM   20  C   UNL     1      -9.486  18.850  67.090  1.00  0.00    -0.304 A  
HETATM   21  C   UNL     1      -8.390  18.440  66.333  1.00  0.00    -0.272 A  
ENDBRANCH   9  15
BRANCH  12  22
HETATM   22  C   UNL     1      -9.300  10.136  67.940  1.00  0.00    -0.151 C  
HETATM   23  O   UNL     1     -10.736  10.820  69.812  1.00  0.00    -0.245 OA 
HETATM   24  C   UNL     1     -10.057   9.820  69.218  1.00  0.00    -0.198 C  
HETATM   25  O   UNL     1     -10.067   8.688  69.691  1.00  0.00    -0.191 OA 
ENDBRANCH  12  22
ENDBRANCH   2   3
TORSDOF 3
ENDMDL
MODEL       31
REMARK 921   NORMALIZED FREE ENERGY PREDICTED BY IDOCK:   -5.77 KCAL/MOL
REMARK 922        TOTAL FREE ENERGY PREDICTED BY IDOCK:   -7.72 KCAL/MOL
REMARK 923 INTER-LIGAND FREE ENERGY PREDICTED BY IDOCK:   -6.84 KCAL/MOL
REMARK 924 INTRA-LIGAND FREE ENERGY PREDICTED BY IDOCK:   -0.88 KCAL/MOL
REMARK 927      BINDING AFFINITY PREDICTED BY RF-SCORE:    0.00 PKD
ROOT
HETATM    1  C   UNL     1     -12.903  11.970  63.526  1.00  0.00    -0.341 C  
HETATM    2  O   UNL     1     -12.983  12.495  64.848  1.00  0.00    -0.821 OA 
ENDROOT
BRANCH   2   3
HETATM    3  C   UNL     1     -11.798  12.797  65.461  1.00  0.00    -0.422 A  
HETATM    4  C   UNL     1     -11.116  11.971  66.353  1.00  0.00    -0.365 A  
HETATM    5  C   UNL     1      -9.909  12.406  66.947  1.00  0.00    -0.219 A  
HETATM    6  C   UNL     1      -9.425  13.685  66.668  1.00  0.00    -0.277 A  
HETATM    7  C   UNL     1     -10.056  14.480  65.690  1.00  0.00    -0.384 A  
HETATM    8  N   UNL     1      -8.314  13.920  67.497  1.00  0.00    -0.183 N  
HETATM    9  C   UNL     1      -7.641  15.167  67.676  1.00  0.00    -0.174 C  
HETATM   10  C   UNL     1     -11.255  14.030  65.124  1.00  0.00    -0.329 A  
HETATM   11  C   UNL     1      -7.990  12.697  68.112  1.00  0.00    -0.158 A  
HETATM   12  C   UNL     1      -8.968  11.759  67.796  1.00  0.00    -0.173 A  
HETATM   13  O   UNL     1      -6.461  15.132  68.014  1.00  0.00    -0.117 OA 
HETATM   14  C   UNL     1      -6.832  12.497  69.042  1.00  0.00    -0.089 C  
BRANCH   9  15
HETATM   15  C   UNL     1      -8.234  16.520  67.461  1.00  0.00    -0.170 A  
HETATM   16  C   UNL     1      -9.249  16.945  68.331  1.00  0.00    -0.253 A  
HETATM   17  C   UNL     1      -7.822  17.366  66.424  1.00  0.00    -0.337 A  
HETATM   18  C   UNL     1      -8.309  18.676  66.356  1.00  0.00    -0.292 A  
HETATM   19 CL   UNL     1      -9.784  20.753  67.253  1.00  0.00    -0.590 Cl 
HETATM   20  C   UNL     1      -9.252  19.117  67.283  1.00  0.00    -0.290 A  
HETATM   21  C   UNL     1      -9.754  18.245  68.246  1.00  0.00    -0.350 A  
ENDBRANCH   9  15
BRANCH  12  22
HETATM   22  C   UNL     1      -9.071  10.345  68.312  1.00  0.00    -0.145 C  
HETATM   23  O   UNL     1      -8.154   9.524  66.185  1.00  0.00    -0.109 OA 
HETATM   24  C   UNL     1      -8.724   9.209  67.365  1.00  0.00    -0.115 C  
HETATM   25  O   UNL     1      -8.939   8.040  67.665  1.00  0.00    -0.134 OA 
ENDBRANCH  12  22
ENDBRANCH   2   3
TORSDOF 3
ENDMDL
MODEL       32
REMARK 921   NORMALIZED FREE ENERGY PREDICTED BY IDOCK:   -5.77 KCAL/MOL
REMARK 922        TOTAL FREE ENERGY PREDICTED BY IDOCK:   -7.71 KCAL/MOL
REMARK 923 INTER-LIGAND FREE ENERGY PREDICTED BY IDOCK:   -6.81 KCAL/MOL
REMARK 924 INTRA-LIGAND FREE ENERGY PREDICTED BY IDOCK:   -0.91 KCAL/MOL
REMARK 927      BINDING AFFINITY PREDICTED BY RF-SCORE:    0.00 PKD
ROOT
HETATM    1  C   UNL     1     -13.466  12.789  72.086  1.00  0.00    -0.492 C  
HETATM    2  O   UNL     1     -13.306  11.379  71.958  1.00  0.00    -0.467 OA 
ENDROOT
BRANCH   2   3
HETATM    3  C   UNL     1     -12.444  10.945  70.988  1.00  0.00    -0.411 A  
HETATM    4  C   UNL     1     -12.391  11.426  69.681  1.00  0.00    -0.236 A  
HETATM    5  C   UNL     1     -11.474  10.877  68.755  1.00  0.00    -0.376 A  
HETATM    6  C   UNL     1     -10.649   9.821  69.147  1.00  0.00    -0.218 A  
HETATM    7  C   UNL     1     -10.628   9.404  70.493  1.00  0.00    -0.331 A  
HETATM    8  N   UNL     1      -9.957   9.366  68.011  1.00  0.00    -0.168 N  
HETATM    9  C   UNL     1      -9.161   8.184  67.923  1.00  0.00    -0.131 C  
HETATM   10  C   UNL     1     -11.554   9.958  71.386  1.00  0.00    -0.428 A  
HETATM   11  C   UNL     1     -10.194  10.295  66.982  1.00  0.00    -0.228 A  
HETATM   12  C   UNL     1     -11.135  11.223  67.417  1.00  0.00    -0.358 A  
HETATM   13  O   UNL     1      -8.266   8.163  67.083  1.00  0.00    -0.117 OA 
HETATM   14  C   UNL     1      -9.598  10.209  65.609  1.00  0.00    -0.302 C  
BRANCH   9  15
HETATM   15  C   UNL     1      -9.299   6.971  68.783  1.00  0.00    -0.134 A  
HETATM   16  C   UNL     1      -8.312   6.729  69.751  1.00  0.00    -0.132 A  
HETATM   17  C   UNL     1     -10.364   6.071  68.650  1.00  0.00    -0.264 A  
HETATM   18  C   UNL     1     -10.520   5.033  69.575  1.00  0.00    -0.129 A  
HETATM   19 CL   UNL     1      -9.819   3.636  71.778  1.00  0.00    -0.239 Cl 
HETATM   20  C   UNL     1      -9.580   4.856  70.590  1.00  0.00    -0.186 A  
HETATM   21  C   UNL     1      -8.455   5.676  70.658  1.00  0.00    -0.126 A  
ENDBRANCH   9  15
BRANCH  12  22
HETATM   22  C   UNL     1     -11.750  12.340  66.612  1.00  0.00    -0.417 C  
HETATM   23  O   UNL     1      -9.980  13.854  67.395  1.00  0.00    -0.235 OA 
HETATM   24  C   UNL     1     -11.148  13.729  66.734  1.00  0.00    -0.308 C  
HETATM   25  O   UNL     1     -11.694  14.708  66.236  1.00  0.00    -0.370 OA 
ENDBRANCH  12  22
ENDBRANCH   2   3
TORSDOF 3
ENDMDL
MODEL       33
REMARK 921   NORMALIZED FREE ENERGY PREDICTED BY IDOCK:   -5.74 KCAL/MOL
REMARK 922        TOTAL FREE ENERGY PREDICTED BY IDOCK:   -7.68 KCAL/MOL
REMARK 923 INTER-LIGAND FREE ENERGY PREDICTED BY IDOCK:   -6.75 KCAL/MOL
REMARK 924 INTRA-LIGAND FREE ENERGY PREDICTED BY IDOCK:   -0.93 KCAL/MOL
REMARK 927      BINDING AFFINITY PREDICTED BY RF-SCORE:    0.00 PKD
ROOT
HETATM    1  C   UNL     1     -14.386   8.536  72.254  1.00  0.00    -0.390 C  
HETATM    2  O   UNL     1     -13.782   9.813  72.441  1.00  0.00    -0.376 OA 
ENDROOT
BRANCH   2   3
HETATM    3  C   UNL     1     -12.860  10.199  71.507  1.00  0.00    -0.443 A  
HETATM    4  C   UNL     1     -12.849  11.423  70.841  1.00  0.00    -0.323 A  
HETATM    5  C   UNL     1     -11.859  11.698  69.870  1.00  0.00    -0.434 A  
HETATM    6  C   UNL     1     -10.915  10.720  69.552  1.00  0.00    -0.266 A  
HETATM    7  C   UNL     1     -10.861   9.524  70.296  1.00  0.00    -0.319 A  
HETATM    8  N   UNL     1     -10.157  11.185  68.463  1.00  0.00    -0.194 N  
HETATM    9  C   UNL     1      -9.220  10.425  67.699  1.00  0.00    -0.148 C  
HETATM   10  C   UNL     1     -11.860   9.273  71.245  1.00  0.00    -0.415 A  
HETATM   11  C   UNL     1     -10.493  12.538  68.272  1.00  0.00    -0.234 A  
HETATM   12  C   UNL     1     -11.547  12.866  69.119  1.00  0.00    -0.375 A  
HETATM   13  O   UNL     1      -8.318  11.038  67.136  1.00  0.00    -0.126 OA 
HETATM   14  C   UNL     1      -9.872  13.427  67.238  1.00  0.00    -0.233 C  
BRANCH   9  15
HETATM   15  C   UNL     1      -9.218   8.941  67.544  1.00  0.00    -0.153 A  
HETATM   16  C   UNL     1      -8.139   8.219  68.077  1.00  0.00    -0.127 A  
HETATM   17  C   UNL     1     -10.243   8.251  66.883  1.00  0.00    -0.388 A  
HETATM   18  C   UNL     1     -10.263   6.853  66.892  1.00  0.00    -0.310 A  
HETATM   19 CL   UNL     1      -9.299   4.429  67.593  1.00  0.00    -0.169 Cl 
HETATM   20  C   UNL     1      -9.229   6.145  67.504  1.00  0.00    -0.111 A  
HETATM   21  C   UNL     1      -8.147   6.822  68.062  1.00  0.00    -0.114 A  
ENDBRANCH   9  15
BRANCH  12  22
HETATM   22  C   UNL     1     -12.285  14.180  69.185  1.00  0.00    -0.290 C  
HETATM   23  O   UNL     1     -11.041  14.755  71.224  1.00  0.00    -0.137 OA 
HETATM   24  C   UNL     1     -12.043  15.080  70.384  1.00  0.00    -0.333 C  
HETATM   25  O   UNL     1     -12.725  16.080  70.580  1.00  0.00    -0.341 OA 
ENDBRANCH  12  22
ENDBRANCH   2   3
TORSDOF 3
ENDMDL
MODEL       34
REMARK 921   NORMALIZED FREE ENERGY PREDICTED BY IDOCK:   -5.68 KCAL/MOL
REMARK 922        TOTAL FREE ENERGY PREDICTED BY IDOCK:   -7.61 KCAL/MOL
REMARK 923 INTER-LIGAND FREE ENERGY PREDICTED BY IDOCK:   -6.70 KCAL/MOL
REMARK 924 INTRA-LIGAND FREE ENERGY PREDICTED BY IDOCK:   -0.92 KCAL/MOL
REMARK 927      BINDING AFFINITY PREDICTED BY RF-SCORE:    0.00 PKD
ROOT
HETATM    1  C   UNL     1      -6.715   8.691  66.928  1.00  0.00    -0.065 C  
HETATM    2  O   UNL     1      -7.734   9.554  66.431  1.00  0.00    -0.097 OA 
ENDROOT
BRANCH   2   3
HETATM    3  C   UNL     1      -8.742   9.876  67.298  1.00  0.00    -0.128 A  
HETATM    4  C   UNL     1      -9.127  11.171  67.644  1.00  0.00    -0.147 A  
HETATM    5  C   UNL     1     -10.168  11.380  68.578  1.00  0.00    -0.216 A  
HETATM    6  C   UNL     1     -10.781  10.282  69.183  1.00  0.00    -0.228 A  
HETATM    7  C   UNL     1     -10.466   8.975  68.759  1.00  0.00    -0.230 A  
HETATM    8  N   UNL     1     -11.658  10.764  70.170  1.00  0.00    -0.311 N  
HETATM    9  C   UNL     1     -12.337   9.982  71.154  1.00  0.00    -0.377 C  
HETATM   10  C   UNL     1      -9.424   8.796  67.840  1.00  0.00    -0.160 A  
HETATM   11  C   UNL     1     -11.744  12.158  70.004  1.00  0.00    -0.252 A  
HETATM   12  C   UNL     1     -10.823  12.556  69.038  1.00  0.00    -0.183 A  
HETATM   13  O   UNL     1     -13.388  10.425  71.606  1.00  0.00    -0.376 OA 
HETATM   14  C   UNL     1     -12.615  13.058  70.826  1.00  0.00    -0.321 C  
BRANCH   9  15
HETATM   15  C   UNL     1     -11.898   8.650  71.667  1.00  0.00    -0.389 A  
HETATM   16  C   UNL     1     -10.726   8.589  72.436  1.00  0.00    -0.376 A  
HETATM   17  C   UNL     1     -12.605   7.471  71.402  1.00  0.00    -0.382 A  
HETATM   18  C   UNL     1     -12.230   6.276  72.026  1.00  0.00    -0.270 A  
HETATM   19 CL   UNL     1     -10.706   4.801  73.697  1.00  0.00    -0.314 Cl 
HETATM   20  C   UNL     1     -11.114   6.247  72.861  1.00  0.00    -0.236 A  
HETATM   21  C   UNL     1     -10.337   7.389  73.038  1.00  0.00    -0.356 A  
ENDBRANCH   9  15
BRANCH  12  22
HETATM   22  C   UNL     1     -10.510  13.967  68.608  1.00  0.00    -0.249 C  
HETATM   23  O   UNL     1     -12.295  13.829  66.925  1.00  0.00    -0.392 OA 
HETATM   24  C   UNL     1     -11.257  14.535  67.413  1.00  0.00    -0.327 C  
HETATM   25  O   UNL     1     -10.939  15.609  66.914  1.00  0.00    -0.315 OA 
ENDBRANCH  12  22
ENDBRANCH   2   3
TORSDOF 3
ENDMDL
MODEL       35
REMARK 921   NORMALIZED FREE ENERGY PREDICTED BY IDOCK:   -5.61 KCAL/MOL
REMARK 922        TOTAL FREE ENERGY PREDICTED BY IDOCK:   -7.53 KCAL/MOL
REMARK 923 INTER-LIGAND FREE ENERGY PREDICTED BY IDOCK:   -8.06 KCAL/MOL
REMARK 924 INTRA-LIGAND FREE ENERGY PREDICTED BY IDOCK:    0.54 KCAL/MOL
REMARK 927      BINDING AFFINITY PREDICTED BY RF-SCORE:    0.00 PKD
ROOT
HETATM    1  C   UNL     1     -10.610  18.807  65.795  1.00  0.00    -0.271 C  
HETATM    2  O   UNL     1     -10.749  17.617  65.024  1.00  0.00    -0.662 OA 
ENDROOT
BRANCH   2   3
HETATM    3  C   UNL     1     -10.781  16.438  65.717  1.00  0.00    -0.238 A  
HETATM    4  C   UNL     1     -10.945  15.174  65.153  1.00  0.00    -0.428 A  
HETATM    5  C   UNL     1     -10.991  14.026  65.977  1.00  0.00    -0.298 A  
HETATM    6  C   UNL     1     -10.913  14.169  67.363  1.00  0.00    -0.299 A  
HETATM    7  C   UNL     1     -10.644  15.432  67.928  1.00  0.00    -0.267 A  
HETATM    8  N   UNL     1     -11.138  12.908  67.943  1.00  0.00    -0.241 N  
HETATM    9  C   UNL     1     -11.339  12.640  69.331  1.00  0.00    -0.208 C  
HETATM   10  C   UNL     1     -10.613  16.553  67.090  1.00  0.00    -0.270 A  
HETATM   11  C   UNL     1     -11.125  11.964  66.901  1.00  0.00    -0.305 A  
HETATM   12  C   UNL     1     -11.049  12.634  65.683  1.00  0.00    -0.327 A  
HETATM   13  O   UNL     1     -11.045  11.521  69.742  1.00  0.00    -0.199 OA 
HETATM   14  C   UNL     1     -11.281  10.486  67.094  1.00  0.00    -0.134 C  
BRANCH   9  15
HETATM   15  C   UNL     1     -11.849  13.610  70.344  1.00  0.00    -0.308 A  
HETATM   16  C   UNL     1     -12.910  13.209  71.172  1.00  0.00    -0.349 A  
HETATM   17  C   UNL     1     -11.317  14.897  70.489  1.00  0.00    -0.280 A  
HETATM   18  C   UNL     1     -11.735  15.711  71.548  1.00  0.00    -0.504 A  
HETATM   19 CL   UNL     1     -13.179  16.228  73.771  1.00  0.00    -0.431 Cl 
HETATM   20  C   UNL     1     -12.728  15.265  72.419  1.00  0.00    -0.363 A  
HETATM   21  C   UNL     1     -13.345  14.033  72.212  1.00  0.00    -0.574 A  
ENDBRANCH   9  15
BRANCH  12  22
HETATM   22  C   UNL     1     -11.100  12.024  64.305  1.00  0.00    -0.411 C  
HETATM   23  O   UNL     1      -8.892  11.019  64.689  1.00  0.00    -0.133 OA 
HETATM   24  C   UNL     1      -9.878  11.273  63.807  1.00  0.00    -0.322 C  
HETATM   25  O   UNL     1      -9.792  10.893  62.644  1.00  0.00    -0.246 OA 
ENDBRANCH  12  22
ENDBRANCH   2   3
TORSDOF 3
ENDMDL
MODEL       36
REMARK 921   NORMALIZED FREE ENERGY PREDICTED BY IDOCK:   -5.61 KCAL/MOL
REMARK 922        TOTAL FREE ENERGY PREDICTED BY IDOCK:   -7.52 KCAL/MOL
REMARK 923 INTER-LIGAND FREE ENERGY PREDICTED BY IDOCK:   -7.27 KCAL/MOL
REMARK 924 INTRA-LIGAND FREE ENERGY PREDICTED BY IDOCK:   -0.26 KCAL/MOL
REMARK 927      BINDING AFFINITY PREDICTED BY RF-SCORE:    0.00 PKD
ROOT
HETATM    1  C   UNL     1      -9.800  10.289  65.108  1.00  0.00    -0.321 C  
HETATM    2  O   UNL     1     -10.048   9.696  66.379  1.00  0.00    -0.240 OA 
ENDROOT
BRANCH   2   3
HETATM    3  C   UNL     1     -10.456  10.536  67.379  1.00  0.00    -0.244 A  
HETATM    4  C   UNL     1     -11.408  10.233  68.351  1.00  0.00    -0.244 A  
HETATM    5  C   UNL     1     -11.771  11.197  69.319  1.00  0.00    -0.401 A  
HETATM    6  C   UNL     1     -11.200  12.469  69.273  1.00  0.00    -0.194 A  
HETATM    7  C   UNL     1     -10.164  12.744  68.358  1.00  0.00    -0.237 A  
HETATM    8  N   UNL     1     -11.840  13.268  70.236  1.00  0.00    -0.281 N  
HETATM    9  C   UNL     1     -11.702  14.681  70.391  1.00  0.00    -0.295 C  
HETATM   10  C   UNL     1      -9.831  11.776  67.403  1.00  0.00    -0.189 A  
HETATM   11  C   UNL     1     -12.638  12.415  71.019  1.00  0.00    -0.254 A  
HETATM   12  C   UNL     1     -12.619  11.139  70.461  1.00  0.00    -0.360 A  
HETATM   13  O   UNL     1     -11.907  15.154  71.505  1.00  0.00    -0.322 OA 
HETATM   14  C   UNL     1     -13.456  12.859  72.194  1.00  0.00    -0.619 C  
BRANCH   9  15
HETATM   15  C   UNL     1     -11.298  15.642  69.322  1.00  0.00    -0.348 A  
HETATM   16  C   UNL     1     -10.599  16.799  69.700  1.00  0.00    -0.242 A  
HETATM   17  C   UNL     1     -11.598  15.434  67.970  1.00  0.00    -0.303 A  
HETATM   18  C   UNL     1     -11.072  16.292  66.998  1.00  0.00     0.017 A  
HETATM   19 CL   UNL     1      -9.583  18.392  66.182  1.00  0.00    -0.250 Cl 
HETATM   20  C   UNL     1     -10.302  17.390  67.380  1.00  0.00    -0.343 A  
HETATM   21  C   UNL     1     -10.096  17.670  68.729  1.00  0.00    -0.377 A  
ENDBRANCH   9  15
BRANCH  12  22
HETATM   22  C   UNL     1     -13.404   9.935  70.918  1.00  0.00    -0.256 C  
HETATM   23  O   UNL     1     -11.422   9.126  72.124  1.00  0.00    -0.334 OA 
HETATM   24  C   UNL     1     -12.675   8.860  71.705  1.00  0.00    -0.349 C  
HETATM   25  O   UNL     1     -13.209   7.787  71.966  1.00  0.00    -0.281 OA 
ENDBRANCH  12  22
ENDBRANCH   2   3
TORSDOF 3
ENDMDL
MODEL       37
REMARK 921   NORMALIZED FREE ENERGY PREDICTED BY IDOCK:   -5.53 KCAL/MOL
REMARK 922        TOTAL FREE ENERGY PREDICTED BY IDOCK:   -7.44 KCAL/MOL
REMARK 923 INTER-LIGAND FREE ENERGY PREDICTED BY IDOCK:   -6.52 KCAL/MOL
REMARK 924 INTRA-LIGAND FREE ENERGY PREDICTED BY IDOCK:   -0.91 KCAL/MOL
REMARK 927      BINDING AFFINITY PREDICTED BY RF-SCORE:    0.00 PKD
ROOT
HETATM    1  C   UNL     1     -11.911   8.147  72.287  1.00  0.00    -0.377 C  
HETATM    2  O   UNL     1     -11.698   9.480  71.832  1.00  0.00    -0.374 OA 
ENDROOT
BRANCH   2   3
HETATM    3  C   UNL     1     -11.352   9.631  70.517  1.00  0.00    -0.296 A  
HETATM    4  C   UNL     1     -10.591   8.730  69.773  1.00  0.00    -0.227 A  
HETATM    5  C   UNL     1     -10.271   9.011  68.425  1.00  0.00    -0.232 A  
HETATM    6  C   UNL     1     -10.686  10.214  67.854  1.00  0.00    -0.269 A  
HETATM    7  C   UNL     1     -11.540  11.077  68.569  1.00  0.00    -0.380 A  
HETATM    8  N   UNL     1     -10.110  10.310  66.575  1.00  0.00    -0.222 N  
HETATM    9  C   UNL     1     -10.114  11.461  65.729  1.00  0.00    -0.246 C  
HETATM   10  C   UNL     1     -11.834  10.781  69.906  1.00  0.00    -0.413 A  
HETATM   11  C   UNL     1      -9.534   9.060  66.285  1.00  0.00    -0.242 A  
HETATM   12  C   UNL     1      -9.611   8.253  67.417  1.00  0.00    -0.205 A  
HETATM   13  O   UNL     1     -10.023  11.277  64.519  1.00  0.00    -0.247 OA 
HETATM   14  C   UNL     1      -8.854   8.719  64.994  1.00  0.00    -0.151 C  
BRANCH   9  15
HETATM   15  C   UNL     1     -10.248  12.877  66.181  1.00  0.00    -0.286 A  
HETATM   16  C   UNL     1     -11.452  13.547  65.914  1.00  0.00    -0.338 A  
HETATM   17  C   UNL     1      -9.220  13.556  66.847  1.00  0.00    -0.254 A  
HETATM   18  C   UNL     1      -9.451  14.831  67.374  1.00  0.00    -0.207 A  
HETATM   19 CL   UNL     1     -10.999  16.980  67.902  1.00  0.00    -0.298 Cl 
HETATM   20  C   UNL     1     -10.685  15.452  67.180  1.00  0.00    -0.314 A  
HETATM   21  C   UNL     1     -11.673  14.832  66.418  1.00  0.00    -0.268 A  
ENDBRANCH   9  15
BRANCH  12  22
HETATM   22  C   UNL     1      -9.039   6.868  67.586  1.00  0.00    -0.118 C  
HETATM   23  O   UNL     1     -11.118   5.919  66.684  1.00  0.00    -0.246 OA 
HETATM   24  C   UNL     1      -9.933   5.679  67.279  1.00  0.00    -0.159 C  
HETATM   25  O   UNL     1      -9.587   4.534  67.547  1.00  0.00    -0.154 OA 
ENDBRANCH  12  22
ENDBRANCH   2   3
TORSDOF 3
ENDMDL
MODEL       38
REMARK 921   NORMALIZED FREE ENERGY PREDICTED BY IDOCK:   -5.52 KCAL/MOL
REMARK 922        TOTAL FREE ENERGY PREDICTED BY IDOCK:   -7.42 KCAL/MOL
REMARK 923 INTER-LIGAND FREE ENERGY PREDICTED BY IDOCK:   -6.54 KCAL/MOL
REMARK 924 INTRA-LIGAND FREE ENERGY PREDICTED BY IDOCK:   -0.88 KCAL/MOL
REMARK 927      BINDING AFFINITY PREDICTED BY RF-SCORE:    0.00 PKD
ROOT
HETATM    1  C   UNL     1      -8.295   6.019  64.509  1.00  0.00    -0.045 C  
HETATM    2  O   UNL     1      -8.905   5.814  65.781  1.00  0.00    -0.149 OA 
ENDROOT
BRANCH   2   3
HETATM    3  C   UNL     1      -9.405   6.922  66.407  1.00  0.00    -0.141 A  
HETATM    4  C   UNL     1      -9.261   8.236  65.962  1.00  0.00    -0.226 A  
HETATM    5  C   UNL     1      -9.799   9.306  66.713  1.00  0.00    -0.289 A  
HETATM    6  C   UNL     1     -10.441   9.044  67.924  1.00  0.00    -0.234 A  
HETATM    7  C   UNL     1     -10.679   7.713  68.323  1.00  0.00    -0.107 A  
HETATM    8  N   UNL     1     -10.738  10.276  68.534  1.00  0.00    -0.214 N  
HETATM    9  C   UNL     1     -11.215  10.466  69.866  1.00  0.00    -0.306 C  
HETATM   10  C   UNL     1     -10.126   6.672  67.567  1.00  0.00    -0.202 A  
HETATM   11  C   UNL     1     -10.481  11.281  67.585  1.00  0.00    -0.193 A  
HETATM   12  C   UNL     1      -9.890  10.704  66.464  1.00  0.00    -0.250 A  
HETATM   13  O   UNL     1     -11.868  11.480  70.096  1.00  0.00    -0.326 OA 
HETATM   14  C   UNL     1     -10.713  12.743  67.815  1.00  0.00    -0.237 C  
BRANCH   9  15
HETATM   15  C   UNL     1     -11.018   9.526  71.009  1.00  0.00    -0.424 A  
HETATM   16  C   UNL     1     -12.145   8.881  71.540  1.00  0.00    -0.395 A  
HETATM   17  C   UNL     1      -9.758   9.276  71.569  1.00  0.00    -0.210 A  
HETATM   18  C   UNL     1      -9.611   8.280  72.541  1.00  0.00    -0.365 A  
HETATM   19 CL   UNL     1     -10.536   6.297  74.124  1.00  0.00    -0.297 Cl 
HETATM   20  C   UNL     1     -10.728   7.581  72.996  1.00  0.00    -0.384 A  
HETATM   21  C   UNL     1     -12.000   7.904  72.529  1.00  0.00    -0.349 A  
ENDBRANCH   9  15
BRANCH  12  22
HETATM   22  C   UNL     1      -9.365  11.419  65.244  1.00  0.00    -0.192 C  
HETATM   23  O   UNL     1     -11.673  11.746  64.467  1.00  0.00    -0.282 OA 
HETATM   24  C   UNL     1     -10.361  11.847  64.179  1.00  0.00    -0.336 C  
HETATM   25  O   UNL     1      -9.988  12.285  63.096  1.00  0.00    -0.389 OA 
ENDBRANCH  12  22
ENDBRANCH   2   3
TORSDOF 3
ENDMDL
MODEL       39
REMARK 921   NORMALIZED FREE ENERGY PREDICTED BY IDOCK:   -5.49 KCAL/MOL
REMARK 922        TOTAL FREE ENERGY PREDICTED BY IDOCK:   -7.38 KCAL/MOL
REMARK 923 INTER-LIGAND FREE ENERGY PREDICTED BY IDOCK:   -6.71 KCAL/MOL
REMARK 924 INTRA-LIGAND FREE ENERGY PREDICTED BY IDOCK:   -0.67 KCAL/MOL
REMARK 927      BINDING AFFINITY PREDICTED BY RF-SCORE:    0.00 PKD
ROOT
HETATM    1  C   UNL     1     -13.815  15.382  72.217  1.00  0.00    -0.548 C  
HETATM    2  O   UNL     1     -13.878  15.457  70.796  1.00  0.00    -0.386 OA 
ENDROOT
BRANCH   2   3
HETATM    3  C   UNL     1     -12.707  15.258  70.119  1.00  0.00    -0.242 A  
HETATM    4  C   UNL     1     -12.054  16.209  69.336  1.00  0.00     0.040 A  
HETATM    5  C   UNL     1     -10.859  15.877  68.657  1.00  0.00    -0.291 A  
HETATM    6  C   UNL     1     -10.358  14.577  68.742  1.00  0.00    -0.243 A  
HETATM    7  C   UNL     1     -10.957  13.645  69.613  1.00  0.00     0.016 A  
HETATM    8  N   UNL     1      -9.266  14.475  67.862  1.00  0.00    -0.191 N  
HETATM    9  C   UNL     1      -8.587  13.274  67.492  1.00  0.00    -0.200 C  
HETATM   10  C   UNL     1     -12.144  13.997  70.265  1.00  0.00    -0.425 A  
HETATM   11  C   UNL     1      -8.968  15.775  67.418  1.00  0.00    -0.193 A  
HETATM   12  C   UNL     1      -9.946  16.649  67.886  1.00  0.00    -0.254 A  
HETATM   13  O   UNL     1      -7.417  13.370  67.134  1.00  0.00    -0.095 OA 
HETATM   14  C   UNL     1      -7.836  16.119  66.498  1.00  0.00    -0.263 C  
BRANCH   9  15
HETATM   15  C   UNL     1      -9.163  11.897  67.529  1.00  0.00    -0.177 A  
HETATM   16  C   UNL     1     -10.031  11.514  66.495  1.00  0.00    -0.240 A  
HETATM   17  C   UNL     1      -8.876  10.988  68.555  1.00  0.00    -0.159 A  
HETATM   18  C   UNL     1      -9.327   9.667  68.464  1.00  0.00    -0.138 A  
HETATM   19 CL   UNL     1     -10.596   7.629  67.226  1.00  0.00    -0.387 Cl 
HETATM   20  C   UNL     1     -10.116   9.273  67.384  1.00  0.00    -0.223 A  
HETATM   21  C   UNL     1     -10.503  10.200  66.419  1.00  0.00    -0.210 A  
ENDBRANCH   9  15
BRANCH  12  22
HETATM   22  C   UNL     1     -10.074  18.120  67.578  1.00  0.00    -0.358 C  
HETATM   23  O   UNL     1     -10.713  17.561  65.272  1.00  0.00    -0.656 OA 
HETATM   24  C   UNL     1     -10.378  18.529  66.147  1.00  0.00    -0.426 C  
HETATM   25  O   UNL     1     -10.336  19.704  65.797  1.00  0.00    -0.460 OA 
ENDBRANCH  12  22
ENDBRANCH   2   3
TORSDOF 3
ENDMDL
MODEL       40
REMARK 921   NORMALIZED FREE ENERGY PREDICTED BY IDOCK:   -5.49 KCAL/MOL
REMARK 922        TOTAL FREE ENERGY PREDICTED BY IDOCK:   -7.38 KCAL/MOL
REMARK 923 INTER-LIGAND FREE ENERGY PREDICTED BY IDOCK:   -7.30 KCAL/MOL
REMARK 924 INTRA-LIGAND FREE ENERGY PREDICTED BY IDOCK:   -0.08 KCAL/MOL
REMARK 927      BINDING AFFINITY PREDICTED BY RF-SCORE:    0.00 PKD
ROOT
HETATM    1  C   UNL     1      -8.893   9.503  64.284  1.00  0.00    -0.213 C  
HETATM    2  O   UNL     1      -9.249  10.882  64.249  1.00  0.00    -0.207 OA 
ENDROOT
BRANCH   2   3
HETATM    3  C   UNL     1      -9.860  11.386  65.365  1.00  0.00    -0.236 A  
HETATM    4  C   UNL     1      -9.854  12.724  65.754  1.00  0.00    -0.222 A  
HETATM    5  C   UNL     1     -10.500  13.122  66.948  1.00  0.00    -0.256 A  
HETATM    6  C   UNL     1     -11.108  12.161  67.756  1.00  0.00    -0.250 A  
HETATM    7  C   UNL     1     -11.205  10.826  67.314  1.00  0.00    -0.272 A  
HETATM    8  N   UNL     1     -11.530  12.791  68.940  1.00  0.00    -0.285 N  
HETATM    9  C   UNL     1     -12.021  12.145  70.114  1.00  0.00    -0.314 C  
HETATM   10  C   UNL     1     -10.549  10.457  66.133  1.00  0.00    -0.160 A  
HETATM   11  C   UNL     1     -11.380  14.176  68.747  1.00  0.00    -0.278 A  
HETATM   12  C   UNL     1     -10.735  14.398  67.533  1.00  0.00    -0.271 A  
HETATM   13  O   UNL     1     -12.775  12.784  70.842  1.00  0.00    -0.288 OA 
HETATM   14  C   UNL     1     -11.762  15.219  69.754  1.00  0.00    -0.347 C  
BRANCH   9  15
HETATM   15  C   UNL     1     -11.724  10.741  70.529  1.00  0.00    -0.449 A  
HETATM   16  C   UNL     1     -12.772   9.968  71.049  1.00  0.00    -0.455 A  
HETATM   17  C   UNL     1     -10.445  10.180  70.425  1.00  0.00    -0.237 A  
HETATM   18  C   UNL     1     -10.255   8.820  70.692  1.00  0.00    -0.247 A  
HETATM   19 CL   UNL     1     -11.112   6.350  71.366  1.00  0.00    -0.313 Cl 
HETATM   20  C   UNL     1     -11.326   8.039  71.123  1.00  0.00    -0.266 A  
HETATM   21  C   UNL     1     -12.575   8.615  71.341  1.00  0.00    -0.325 A  
ENDBRANCH   9  15
BRANCH  12  22
HETATM   22  C   UNL     1     -10.291  15.724  66.969  1.00  0.00    -0.292 C  
HETATM   23  O   UNL     1     -11.582  15.266  64.929  1.00  0.00    -0.352 OA 
HETATM   24  C   UNL     1     -10.690  16.067  65.544  1.00  0.00    -0.361 C  
HETATM   25  O   UNL     1     -10.230  17.050  64.971  1.00  0.00    -0.402 OA 
ENDBRANCH  12  22
ENDBRANCH   2   3
TORSDOF 3
ENDMDL
MODEL       41
REMARK 921   NORMALIZED FREE ENERGY PREDICTED BY IDOCK:   -5.41 KCAL/MOL
REMARK 922        TOTAL FREE ENERGY PREDICTED BY IDOCK:   -7.29 KCAL/MOL
REMARK 923 INTER-LIGAND FREE ENERGY PREDICTED BY IDOCK:   -6.35 KCAL/MOL
REMARK 924 INTRA-LIGAND FREE ENERGY PREDICTED BY IDOCK:   -0.94 KCAL/MOL
REMARK 927      BINDING AFFINITY PREDICTED BY RF-SCORE:    0.00 PKD
ROOT
HETATM    1  C   UNL     1     -12.765  12.037  63.468  1.00  0.00    -0.443 C  
HETATM    2  O   UNL     1     -13.013  12.601  64.752  1.00  0.00    -0.816 OA 
ENDROOT
BRANCH   2   3
HETATM    3  C   UNL     1     -11.916  12.889  65.518  1.00  0.00    -0.436 A  
HETATM    4  C   UNL     1     -11.214  14.093  65.502  1.00  0.00    -0.317 A  
HETATM    5  C   UNL     1     -10.073  14.264  66.320  1.00  0.00    -0.308 A  
HETATM    6  C   UNL     1      -9.630  13.205  67.114  1.00  0.00    -0.235 A  
HETATM    7  C   UNL     1     -10.395  12.026  67.209  1.00  0.00    -0.232 A  
HETATM    8  N   UNL     1      -8.407  13.582  67.697  1.00  0.00    -0.165 N  
HETATM    9  C   UNL     1      -7.517  12.731  68.420  1.00  0.00    -0.124 C  
HETATM   10  C   UNL     1     -11.515  11.879  66.381  1.00  0.00    -0.371 A  
HETATM   11  C   UNL     1      -8.229  14.952  67.437  1.00  0.00    -0.197 A  
HETATM   12  C   UNL     1      -9.237  15.385  66.580  1.00  0.00    -0.323 A  
HETATM   13  O   UNL     1      -6.780  13.254  69.251  1.00  0.00    -0.107 OA 
HETATM   14  C   UNL     1      -7.068  15.764  67.927  1.00  0.00    -0.149 C  
BRANCH   9  15
HETATM   15  C   UNL     1      -7.419  11.248  68.281  1.00  0.00    -0.099 A  
HETATM   16  C   UNL     1      -7.831  10.451  69.360  1.00  0.00    -0.163 A  
HETATM   17  C   UNL     1      -6.925  10.631  67.124  1.00  0.00    -0.088 A  
HETATM   18  C   UNL     1      -6.990   9.240  66.992  1.00  0.00    -0.085 A  
HETATM   19 CL   UNL     1      -7.648   6.762  67.842  1.00  0.00    -0.105 Cl 
HETATM   20  C   UNL     1      -7.486   8.463  68.038  1.00  0.00    -0.097 A  
HETATM   21  C   UNL     1      -7.870   9.059  69.237  1.00  0.00    -0.095 A  
ENDBRANCH   9  15
BRANCH  12  22
HETATM   22  C   UNL     1      -9.383  16.756  65.969  1.00  0.00    -0.245 C  
HETATM   23  O   UNL     1     -10.803  17.426  67.859  1.00  0.00    -0.375 OA 
HETATM   24  C   UNL     1     -10.313  17.748  66.646  1.00  0.00    -0.345 C  
HETATM   25  O   UNL     1     -10.601  18.817  66.117  1.00  0.00    -0.436 OA 
ENDBRANCH  12  22
ENDBRANCH   2   3
TORSDOF 3
ENDMDL
MODEL       42
REMARK 921   NORMALIZED FREE ENERGY PREDICTED BY IDOCK:   -5.40 KCAL/MOL
REMARK 922        TOTAL FREE ENERGY PREDICTED BY IDOCK:   -7.28 KCAL/MOL
REMARK 923 INTER-LIGAND FREE ENERGY PREDICTED BY IDOCK:   -6.40 KCAL/MOL
REMARK 924 INTRA-LIGAND FREE ENERGY PREDICTED BY IDOCK:   -0.88 KCAL/MOL
REMARK 927      BINDING AFFINITY PREDICTED BY RF-SCORE:    0.00 PKD
ROOT
HETATM    1  C   UNL     1     -13.614  12.938  72.156  1.00  0.00    -0.495 C  
HETATM    2  O   UNL     1     -13.373  11.537  72.054  1.00  0.00    -0.476 OA 
ENDROOT
BRANCH   2   3
HETATM    3  C   UNL     1     -12.533  11.131  71.054  1.00  0.00    -0.403 A  
HETATM    4  C   UNL     1     -11.724   9.996  71.090  1.00  0.00    -0.472 A  
HETATM    5  C   UNL     1     -10.871   9.693  70.003  1.00  0.00    -0.302 A  
HETATM    6  C   UNL     1     -10.814  10.559  68.910  1.00  0.00    -0.235 A  
HETATM    7  C   UNL     1     -11.705  11.648  68.825  1.00  0.00    -0.392 A  
HETATM    8  N   UNL     1      -9.790  10.114  68.056  1.00  0.00    -0.146 N  
HETATM    9  C   UNL     1      -9.265  10.815  66.928  1.00  0.00    -0.156 C  
HETATM   10  C   UNL     1     -12.531  11.932  69.920  1.00  0.00    -0.046 A  
HETATM   11  C   UNL     1      -9.383   8.850  68.521  1.00  0.00    -0.140 A  
HETATM   12  C   UNL     1     -10.028   8.582  69.725  1.00  0.00    -0.191 A  
HETATM   13  O   UNL     1      -8.757  10.148  66.031  1.00  0.00    -0.135 OA 
HETATM   14  C   UNL     1      -8.338   8.001  67.862  1.00  0.00    -0.129 C  
BRANCH   9  15
HETATM   15  C   UNL     1      -9.302  12.293  66.722  1.00  0.00    -0.218 A  
HETATM   16  C   UNL     1     -10.126  12.800  65.706  1.00  0.00    -0.296 A  
HETATM   17  C   UNL     1      -8.542  13.180  67.495  1.00  0.00    -0.196 A  
HETATM   18  C   UNL     1      -8.724  14.560  67.355  1.00  0.00    -0.210 A  
HETATM   19 CL   UNL     1      -9.905  16.744  66.290  1.00  0.00    -0.309 Cl 
HETATM   20  C   UNL     1      -9.615  15.052  66.401  1.00  0.00    -0.289 A  
HETATM   21  C   UNL     1     -10.288  14.180  65.549  1.00  0.00    -0.368 A  
ENDBRANCH   9  15
BRANCH  12  22
HETATM   22  C   UNL     1      -9.823   7.384  70.618  1.00  0.00    -0.179 C  
HETATM   23  O   UNL     1      -8.596   8.802  72.206  1.00  0.00    -0.377 OA 
HETATM   24  C   UNL     1      -8.964   7.553  71.860  1.00  0.00    -0.121 C  
HETATM   25  O   UNL     1      -8.626   6.589  72.538  1.00  0.00    -0.122 OA 
ENDBRANCH  12  22
ENDBRANCH   2   3
TORSDOF 3
ENDMDL
MODEL       43
REMARK 921   NORMALIZED FREE ENERGY PREDICTED BY IDOCK:   -5.40 KCAL/MOL
REMARK 922        TOTAL FREE ENERGY PREDICTED BY IDOCK:   -7.28 KCAL/MOL
REMARK 923 INTER-LIGAND FREE ENERGY PREDICTED BY IDOCK:   -6.48 KCAL/MOL
REMARK 924 INTRA-LIGAND FREE ENERGY PREDICTED BY IDOCK:   -0.80 KCAL/MOL
REMARK 927      BINDING AFFINITY PREDICTED BY RF-SCORE:    0.00 PKD
ROOT
HETATM    1  C   UNL     1      -8.951   9.735  64.754  1.00  0.00    -0.225 C  
HETATM    2  O   UNL     1      -9.118  10.929  65.514  1.00  0.00    -0.192 OA 
ENDROOT
BRANCH   2   3
HETATM    3  C   UNL     1      -9.802  10.815  66.693  1.00  0.00    -0.200 A  
HETATM    4  C   UNL     1     -10.436  11.860  67.363  1.00  0.00    -0.242 A  
HETATM    5  C   UNL     1     -11.090  11.625  68.595  1.00  0.00    -0.287 A  
HETATM    6  C   UNL     1     -11.062  10.348  69.157  1.00  0.00    -0.246 A  
HETATM    7  C   UNL     1     -10.513   9.270  68.433  1.00  0.00    -0.246 A  
HETATM    8  N   UNL     1     -11.641  10.423  70.436  1.00  0.00    -0.312 N  
HETATM    9  C   UNL     1     -11.639   9.396  71.427  1.00  0.00    -0.381 C  
HETATM   10  C   UNL     1      -9.863   9.532  67.221  1.00  0.00    -0.228 A  
HETATM   11  C   UNL     1     -12.224  11.698  70.552  1.00  0.00    -0.361 A  
HETATM   12  C   UNL     1     -11.883  12.455  69.435  1.00  0.00    -0.365 A  
HETATM   13  O   UNL     1     -12.547   9.401  72.253  1.00  0.00    -0.359 OA 
HETATM   14  C   UNL     1     -12.991  12.173  71.749  1.00  0.00    -0.437 C  
BRANCH   9  15
HETATM   15  C   UNL     1     -10.644   8.288  71.537  1.00  0.00    -0.296 A  
HETATM   16  C   UNL     1     -11.071   6.982  71.252  1.00  0.00    -0.282 A  
HETATM   17  C   UNL     1      -9.314   8.507  71.919  1.00  0.00    -0.337 A  
HETATM   18  C   UNL     1      -8.391   7.457  71.866  1.00  0.00    -0.115 A  
HETATM   19 CL   UNL     1      -7.659   4.910  71.343  1.00  0.00    -0.081 Cl 
HETATM   20  C   UNL     1      -8.809   6.180  71.494  1.00  0.00    -0.135 A  
HETATM   21  C   UNL     1     -10.153   5.929  71.225  1.00  0.00    -0.245 A  
ENDBRANCH   9  15
BRANCH  12  22
HETATM   22  C   UNL     1     -12.215  13.905  69.184  1.00  0.00    -0.305 C  
HETATM   23  O   UNL     1      -9.843  14.477  69.472  1.00  0.00    -0.005 OA 
HETATM   24  C   UNL     1     -11.103  14.931  69.326  1.00  0.00    -0.271 C  
HETATM   25  O   UNL     1     -11.336  16.134  69.295  1.00  0.00    -0.330 OA 
ENDBRANCH  12  22
ENDBRANCH   2   3
TORSDOF 3
ENDMDL
MODEL       44
REMARK 921   NORMALIZED FREE ENERGY PREDICTED BY IDOCK:   -5.40 KCAL/MOL
REMARK 922        TOTAL FREE ENERGY PREDICTED BY IDOCK:   -7.28 KCAL/MOL
REMARK 923 INTER-LIGAND FREE ENERGY PREDICTED BY IDOCK:   -6.58 KCAL/MOL
REMARK 924 INTRA-LIGAND FREE ENERGY PREDICTED BY IDOCK:   -0.69 KCAL/MOL
REMARK 927      BINDING AFFINITY PREDICTED BY RF-SCORE:    0.00 PKD
ROOT
HETATM    1  C   UNL     1      -5.159  16.817  70.945  1.00  0.00    -0.206 C  
HETATM    2  O   UNL     1      -5.335  15.592  70.241  1.00  0.00    -0.122 OA 
ENDROOT
BRANCH   2   3
HETATM    3  C   UNL     1      -6.429  15.506  69.424  1.00  0.00    -0.151 A  
HETATM    4  C   UNL     1      -6.907  16.527  68.604  1.00  0.00    -0.160 A  
HETATM    5  C   UNL     1      -8.070  16.329  67.823  1.00  0.00    -0.160 A  
HETATM    6  C   UNL     1      -8.760  15.119  67.910  1.00  0.00    -0.157 A  
HETATM    7  C   UNL     1      -8.223  14.052  68.657  1.00  0.00    -0.103 A  
HETATM    8  N   UNL     1      -9.946  15.241  67.164  1.00  0.00    -0.232 N  
HETATM    9  C   UNL     1     -11.032  14.314  67.144  1.00  0.00    -0.302 C  
HETATM   10  C   UNL     1      -7.076  14.277  69.428  1.00  0.00    -0.086 A  
HETATM   11  C   UNL     1      -9.859  16.445  66.442  1.00  0.00    -0.294 A  
HETATM   12  C   UNL     1      -8.719  17.134  66.846  1.00  0.00    -0.254 A  
HETATM   13  O   UNL     1     -11.738  14.289  66.140  1.00  0.00    -0.365 OA 
HETATM   14  C   UNL     1     -10.900  16.934  65.482  1.00  0.00    -0.101 C  
BRANCH   9  15
HETATM   15  C   UNL     1     -11.373  13.343  68.225  1.00  0.00    -0.330 A  
HETATM   16  C   UNL     1     -11.607  13.843  69.516  1.00  0.00    -0.358 A  
HETATM   17  C   UNL     1     -11.458  11.963  68.000  1.00  0.00    -0.389 A  
HETATM   18  C   UNL     1     -11.922  11.117  69.013  1.00  0.00    -0.389 A  
HETATM   19 CL   UNL     1     -12.890  10.615  71.483  1.00  0.00    -0.536 Cl 
HETATM   20  C   UNL     1     -12.237  11.640  70.267  1.00  0.00    -0.318 A  
HETATM   21  C   UNL     1     -12.044  12.993  70.535  1.00  0.00    -0.373 A  
ENDBRANCH   9  15
BRANCH  12  22
HETATM   22  C   UNL     1      -8.282  18.508  66.402  1.00  0.00    -0.289 C  
HETATM   23  O   UNL     1      -8.957  19.407  68.586  1.00  0.00    -0.365 OA 
HETATM   24  C   UNL     1      -8.538  19.679  67.335  1.00  0.00    -0.306 C  
HETATM   25  O   UNL     1      -8.356  20.836  66.971  1.00  0.00    -0.239 OA 
ENDBRANCH  12  22
ENDBRANCH   2   3
TORSDOF 3
ENDMDL
MODEL       45
REMARK 921   NORMALIZED FREE ENERGY PREDICTED BY IDOCK:   -5.37 KCAL/MOL
REMARK 922        TOTAL FREE ENERGY PREDICTED BY IDOCK:   -7.24 KCAL/MOL
REMARK 923 INTER-LIGAND FREE ENERGY PREDICTED BY IDOCK:   -7.60 KCAL/MOL
REMARK 924 INTRA-LIGAND FREE ENERGY PREDICTED BY IDOCK:    0.36 KCAL/MOL
REMARK 927      BINDING AFFINITY PREDICTED BY RF-SCORE:    0.00 PKD
ROOT
HETATM    1  C   UNL     1     -12.179  16.036  71.843  1.00  0.00    -0.489 C  
HETATM    2  O   UNL     1     -12.378  16.208  70.443  1.00  0.00    -0.174 OA 
ENDROOT
BRANCH   2   3
HETATM    3  C   UNL     1     -12.030  15.156  69.640  1.00  0.00    -0.329 A  
HETATM    4  C   UNL     1     -12.257  15.079  68.267  1.00  0.00     0.034 A  
HETATM    5  C   UNL     1     -11.877  13.924  67.545  1.00  0.00    -0.431 A  
HETATM    6  C   UNL     1     -11.312  12.843  68.223  1.00  0.00    -0.291 A  
HETATM    7  C   UNL     1     -10.989  12.958  69.590  1.00  0.00     0.151 A  
HETATM    8  N   UNL     1     -11.176  11.781  67.312  1.00  0.00    -0.286 N  
HETATM    9  C   UNL     1     -10.825  10.434  67.629  1.00  0.00    -0.306 C  
HETATM   10  C   UNL     1     -11.384  14.109  70.283  1.00  0.00    -0.093 A  
HETATM   11  C   UNL     1     -11.448  12.297  66.032  1.00  0.00    -0.381 A  
HETATM   12  C   UNL     1     -11.894  13.609  66.158  1.00  0.00    -0.424 A  
HETATM   13  O   UNL     1     -10.287   9.766  66.751  1.00  0.00    -0.234 OA 
HETATM   14  C   UNL     1     -11.367  11.502  64.763  1.00  0.00    -0.206 C  
BRANCH   9  15
HETATM   15  C   UNL     1     -11.027   9.765  68.948  1.00  0.00    -0.183 A  
HETATM   16  C   UNL     1     -10.424   8.515  69.158  1.00  0.00    -0.217 A  
HETATM   17  C   UNL     1     -11.799  10.333  69.970  1.00  0.00    -0.305 A  
HETATM   18  C   UNL     1     -11.836   9.732  71.233  1.00  0.00    -0.481 A  
HETATM   19 CL   UNL     1     -11.130   7.844  73.030  1.00  0.00    -0.446 Cl 
HETATM   20  C   UNL     1     -11.157   8.535  71.455  1.00  0.00    -0.275 A  
HETATM   21  C   UNL     1     -10.484   7.903  70.412  1.00  0.00    -0.218 A  
ENDBRANCH   9  15
BRANCH  12  22
HETATM   22  C   UNL     1     -12.382  14.513  65.053  1.00  0.00    -0.353 C  
HETATM   23  O   UNL     1     -10.154  15.540  64.934  1.00  0.00    -0.351 OA 
HETATM   24  C   UNL     1     -11.438  15.581  64.529  1.00  0.00    -0.308 C  
HETATM   25  O   UNL     1     -11.823  16.447  63.751  1.00  0.00    -1.002 OA 
ENDBRANCH  12  22
ENDBRANCH   2   3
TORSDOF 3
ENDMDL
MODEL       46
REMARK 921   NORMALIZED FREE ENERGY PREDICTED BY IDOCK:   -5.36 KCAL/MOL
REMARK 922        TOTAL FREE ENERGY PREDICTED BY IDOCK:   -7.24 KCAL/MOL
REMARK 923 INTER-LIGAND FREE ENERGY PREDICTED BY IDOCK:   -6.33 KCAL/MOL
REMARK 924 INTRA-LIGAND FREE ENERGY PREDICTED BY IDOCK:   -0.91 KCAL/MOL
REMARK 927      BINDING AFFINITY PREDICTED BY RF-SCORE:    0.00 PKD
ROOT
HETATM    1  C   UNL     1     -10.587  17.191  68.166  1.00  0.00    -0.380 C  
HETATM    2  O   UNL     1      -9.580  16.358  68.734  1.00  0.00    -0.229 OA 
ENDROOT
BRANCH   2   3
HETATM    3  C   UNL     1      -9.467  15.095  68.221  1.00  0.00    -0.201 A  
HETATM    4  C   UNL     1      -9.939  14.684  66.975  1.00  0.00    -0.246 A  
HETATM    5  C   UNL     1      -9.789  13.340  66.564  1.00  0.00    -0.281 A  
HETATM    6  C   UNL     1      -9.203  12.416  67.430  1.00  0.00    -0.184 A  
HETATM    7  C   UNL     1      -8.634  12.849  68.645  1.00  0.00     0.053 A  
HETATM    8  N   UNL     1      -9.318  11.141  66.848  1.00  0.00    -0.173 N  
HETATM    9  C   UNL     1      -9.028   9.893  67.480  1.00  0.00    -0.134 C  
HETATM   10  C   UNL     1      -8.805  14.184  69.032  1.00  0.00     0.115 A  
HETATM   11  C   UNL     1      -9.769  11.327  65.529  1.00  0.00    -0.229 A  
HETATM   12  C   UNL     1     -10.077  12.671  65.341  1.00  0.00    -0.277 A  
HETATM   13  O   UNL     1      -8.710   8.952  66.759  1.00  0.00    -0.116 OA 
HETATM   14  C   UNL     1      -9.980  10.219  64.542  1.00  0.00    -0.359 C  
BRANCH   9  15
HETATM   15  C   UNL     1      -9.047   9.632  68.950  1.00  0.00    -0.144 A  
HETATM   16  C   UNL     1     -10.284   9.659  69.612  1.00  0.00    -0.239 A  
HETATM   17  C   UNL     1      -7.882   9.372  69.683  1.00  0.00    -0.105 A  
HETATM   18  C   UNL     1      -7.973   8.993  71.027  1.00  0.00    -0.186 A  
HETATM   19 CL   UNL     1      -9.338   8.385  73.276  1.00  0.00    -0.235 Cl 
HETATM   20  C   UNL     1      -9.218   8.936  71.652  1.00  0.00    -0.231 A  
HETATM   21  C   UNL     1     -10.370   9.306  70.962  1.00  0.00    -0.388 A  
ENDBRANCH   9  15
BRANCH  12  22
HETATM   22  C   UNL     1     -10.678  13.303  64.110  1.00  0.00    -0.350 C  
HETATM   23  O   UNL     1     -12.920  12.720  64.930  1.00  0.00    -0.805 OA 
HETATM   24  C   UNL     1     -12.180  13.195  63.909  1.00  0.00    -0.433 C  
HETATM   25  O   UNL     1     -12.710  13.543  62.859  1.00  0.00    -0.569 OA 
ENDBRANCH  12  22
ENDBRANCH   2   3
TORSDOF 3
ENDMDL
MODEL       47
REMARK 921   NORMALIZED FREE ENERGY PREDICTED BY IDOCK:   -5.36 KCAL/MOL
REMARK 922        TOTAL FREE ENERGY PREDICTED BY IDOCK:   -7.23 KCAL/MOL
REMARK 923 INTER-LIGAND FREE ENERGY PREDICTED BY IDOCK:   -6.31 KCAL/MOL
REMARK 924 INTRA-LIGAND FREE ENERGY PREDICTED BY IDOCK:   -0.92 KCAL/MOL
REMARK 927      BINDING AFFINITY PREDICTED BY RF-SCORE:    0.00 PKD
ROOT
HETATM    1  C   UNL     1     -11.566  15.000  68.210  1.00  0.00    -0.334 C  
HETATM    2  O   UNL     1     -12.230  14.086  69.078  1.00  0.00    -0.346 OA 
ENDROOT
BRANCH   2   3
HETATM    3  C   UNL     1     -11.853  12.774  68.992  1.00  0.00    -0.297 A  
HETATM    4  C   UNL     1     -11.933  11.841  70.025  1.00  0.00    -0.421 A  
HETATM    5  C   UNL     1     -11.483  10.515  69.825  1.00  0.00    -0.365 A  
HETATM    6  C   UNL     1     -10.919  10.157  68.600  1.00  0.00    -0.230 A  
HETATM    7  C   UNL     1     -10.932  11.067  67.524  1.00  0.00    -0.338 A  
HETATM    8  N   UNL     1     -10.419   8.848  68.718  1.00  0.00    -0.216 N  
HETATM    9  C   UNL     1      -9.596   8.168  67.770  1.00  0.00    -0.151 C  
HETATM   10  C   UNL     1     -11.374  12.376  67.751  1.00  0.00    -0.356 A  
HETATM   11  C   UNL     1     -10.884   8.336  69.943  1.00  0.00    -0.213 A  
HETATM   12  C   UNL     1     -11.529   9.352  70.643  1.00  0.00    -0.344 A  
HETATM   13  O   UNL     1      -9.638   6.941  67.757  1.00  0.00    -0.123 OA 
HETATM   14  C   UNL     1     -10.617   6.946  70.436  1.00  0.00    -0.247 C  
BRANCH   9  15
HETATM   15  C   UNL     1      -8.703   8.816  66.764  1.00  0.00    -0.134 A  
HETATM   16  C   UNL     1      -7.518   9.415  67.217  1.00  0.00    -0.091 A  
HETATM   17  C   UNL     1      -9.010   8.853  65.398  1.00  0.00    -0.232 A  
HETATM   18  C   UNL     1      -8.071   9.344  64.484  1.00  0.00    -0.136 A  
HETATM   19 CL   UNL     1      -5.668  10.377  63.812  1.00  0.00    -0.145 Cl 
HETATM   20  C   UNL     1      -6.857   9.855  64.940  1.00  0.00    -0.127 A  
HETATM   21  C   UNL     1      -6.592   9.930  66.306  1.00  0.00    -0.078 A  
ENDBRANCH   9  15
BRANCH  12  22
HETATM   22  C   UNL     1     -12.100   9.274  72.036  1.00  0.00    -0.406 C  
HETATM   23  O   UNL     1     -14.258   8.575  71.091  1.00  0.00    -0.263 OA 
HETATM   24  C   UNL     1     -13.579   8.961  72.189  1.00  0.00    -0.453 C  
HETATM   25  O   UNL     1     -14.139   9.041  73.277  1.00  0.00    -0.261 OA 
ENDBRANCH  12  22
ENDBRANCH   2   3
TORSDOF 3
ENDMDL
MODEL       48
REMARK 921   NORMALIZED FREE ENERGY PREDICTED BY IDOCK:   -5.22 KCAL/MOL
REMARK 922        TOTAL FREE ENERGY PREDICTED BY IDOCK:   -7.06 KCAL/MOL
REMARK 923 INTER-LIGAND FREE ENERGY PREDICTED BY IDOCK:   -6.80 KCAL/MOL
REMARK 924 INTRA-LIGAND FREE ENERGY PREDICTED BY IDOCK:   -0.26 KCAL/MOL
REMARK 927      BINDING AFFINITY PREDICTED BY RF-SCORE:    0.00 PKD
ROOT
HETATM    1  C   UNL     1     -12.202  12.658  63.264  1.00  0.00    -0.417 C  
HETATM    2  O   UNL     1     -12.653  13.798  63.991  1.00  0.00    -0.685 OA 
ENDROOT
BRANCH   2   3
HETATM    3  C   UNL     1     -11.887  14.190  65.054  1.00  0.00    -0.389 A  
HETATM    4  C   UNL     1     -12.220  14.020  66.397  1.00  0.00    -0.492 A  
HETATM    5  C   UNL     1     -11.358  14.495  67.412  1.00  0.00    -0.370 A  
HETATM    6  C   UNL     1     -10.190  15.173  67.062  1.00  0.00    -0.262 A  
HETATM    7  C   UNL     1      -9.800  15.255  65.710  1.00  0.00    -0.395 A  
HETATM    8  N   UNL     1      -9.605  15.668  68.241  1.00  0.00    -0.199 N  
HETATM    9  C   UNL     1      -8.510  16.581  68.323  1.00  0.00    -0.199 C  
HETATM   10  C   UNL     1     -10.677  14.785  64.724  1.00  0.00    -0.380 A  
HETATM   11  C   UNL     1     -10.299  15.093  69.320  1.00  0.00    -0.257 A  
HETATM   12  C   UNL     1     -11.389  14.380  68.830  1.00  0.00    -0.299 A  
HETATM   13  O   UNL     1      -7.818  16.548  69.336  1.00  0.00    -0.194 OA 
HETATM   14  C   UNL     1      -9.961  15.322  70.763  1.00  0.00     0.699 C  
BRANCH   9  15
HETATM   15  C   UNL     1      -8.107  17.560  67.270  1.00  0.00    -0.219 A  
HETATM   16  C   UNL     1      -8.874  18.725  67.120  1.00  0.00    -0.288 A  
HETATM   17  C   UNL     1      -7.005  17.352  66.430  1.00  0.00    -0.314 A  
HETATM   18  C   UNL     1      -6.589  18.366  65.561  1.00  0.00    -0.287 A  
HETATM   19 CL   UNL     1      -6.745  20.837  64.483  1.00  0.00    -0.242 Cl 
HETATM   20  C   UNL     1      -7.308  19.558  65.486  1.00  0.00    -0.129 A  
HETATM   21  C   UNL     1      -8.472  19.727  66.232  1.00  0.00    -0.390 A  
ENDBRANCH   9  15
BRANCH  12  22
HETATM   22  C   UNL     1     -12.455  13.681  69.636  1.00  0.00    -0.145 C  
HETATM   23  O   UNL     1     -13.034  15.822  70.692  1.00  0.00    -0.479 OA 
HETATM   24  C   UNL     1     -13.211  14.487  70.678  1.00  0.00    -0.176 C  
HETATM   25  O   UNL     1     -13.972  13.947  71.474  1.00  0.00    -0.294 OA 
ENDBRANCH  12  22
ENDBRANCH   2   3
TORSDOF 3
ENDMDL
MODEL       49
REMARK 921   NORMALIZED FREE ENERGY PREDICTED BY IDOCK:   -5.20 KCAL/MOL
REMARK 922        TOTAL FREE ENERGY PREDICTED BY IDOCK:   -7.04 KCAL/MOL
REMARK 923 INTER-LIGAND FREE ENERGY PREDICTED BY IDOCK:   -6.53 KCAL/MOL
REMARK 924 INTRA-LIGAND FREE ENERGY PREDICTED BY IDOCK:   -0.51 KCAL/MOL
REMARK 927      BINDING AFFINITY PREDICTED BY RF-SCORE:    0.00 PKD
ROOT
HETATM    1  C   UNL     1     -10.909   6.820  72.861  1.00  0.00    -0.272 C  
HETATM    2  O   UNL     1     -10.490   8.181  72.839  1.00  0.00    -0.340 OA 
ENDROOT
BRANCH   2   3
HETATM    3  C   UNL     1     -10.623   8.845  71.650  1.00  0.00    -0.352 A  
HETATM    4  C   UNL     1     -10.044   8.461  70.442  1.00  0.00    -0.202 A  
HETATM    5  C   UNL     1     -10.229   9.246  69.281  1.00  0.00    -0.211 A  
HETATM    6  C   UNL     1     -10.962  10.431  69.360  1.00  0.00    -0.251 A  
HETATM    7  C   UNL     1     -11.633  10.767  70.553  1.00  0.00    -0.425 A  
HETATM    8  N   UNL     1     -10.862  11.088  68.121  1.00  0.00    -0.207 N  
HETATM    9  C   UNL     1     -11.296  12.417  67.831  1.00  0.00    -0.289 C  
HETATM   10  C   UNL     1     -11.425   9.977  71.691  1.00  0.00    -0.050 A  
HETATM   11  C   UNL     1     -10.259  10.189  67.223  1.00  0.00    -0.222 A  
HETATM   12  C   UNL     1      -9.851   9.056  67.922  1.00  0.00    -0.207 A  
HETATM   13  O   UNL     1     -11.590  12.678  66.668  1.00  0.00    -0.339 OA 
HETATM   14  C   UNL     1     -10.010  10.478  65.774  1.00  0.00    -0.318 C  
BRANCH   9  15
HETATM   15  C   UNL     1     -11.454  13.521  68.823  1.00  0.00    -0.349 A  
HETATM   16  C   UNL     1     -12.642  13.580  69.567  1.00  0.00     0.140 A  
HETATM   17  C   UNL     1     -10.469  14.497  69.028  1.00  0.00    -0.241 A  
HETATM   18  C   UNL     1     -10.607  15.421  70.068  1.00  0.00    -0.319 A  
HETATM   19 CL   UNL     1     -11.885  16.490  72.194  1.00  0.00    -0.499 Cl 
HETATM   20  C   UNL     1     -11.755  15.412  70.860  1.00  0.00    -0.354 A  
HETATM   21  C   UNL     1     -12.791  14.521  70.589  1.00  0.00    -0.399 A  
ENDBRANCH   9  15
BRANCH  12  22
HETATM   22  C   UNL     1      -9.081   7.880  67.376  1.00  0.00    -0.146 C  
HETATM   23  O   UNL     1     -11.204   6.757  66.857  1.00  0.00    -0.375 OA 
HETATM   24  C   UNL     1      -9.863   6.656  66.929  1.00  0.00    -0.171 C  
HETATM   25  O   UNL     1      -9.295   5.611  66.629  1.00  0.00    -0.134 OA 
ENDBRANCH  12  22
ENDBRANCH   2   3
TORSDOF 3
ENDMDL
MODEL       50
REMARK 921   NORMALIZED FREE ENERGY PREDICTED BY IDOCK:   -5.19 KCAL/MOL
REMARK 922        TOTAL FREE ENERGY PREDICTED BY IDOCK:   -7.03 KCAL/MOL
REMARK 923 INTER-LIGAND FREE ENERGY PREDICTED BY IDOCK:   -6.16 KCAL/MOL
REMARK 924 INTRA-LIGAND FREE ENERGY PREDICTED BY IDOCK:   -0.87 KCAL/MOL
REMARK 927      BINDING AFFINITY PREDICTED BY RF-SCORE:    0.00 PKD
ROOT
HETATM    1  C   UNL     1      -9.979   8.550  72.219  1.00  0.00    -0.315 C  
HETATM    2  O   UNL     1     -10.644   7.954  71.109  1.00  0.00    -0.212 OA 
ENDROOT
BRANCH   2   3
HETATM    3  C   UNL     1     -10.638   8.661  69.938  1.00  0.00    -0.224 A  
HETATM    4  C   UNL     1     -10.048   8.244  68.745  1.00  0.00    -0.212 A  
HETATM    5  C   UNL     1     -10.081   9.078  67.604  1.00  0.00    -0.271 A  
HETATM    6  C   UNL     1     -10.671  10.340  67.689  1.00  0.00    -0.288 A  
HETATM    7  C   UNL     1     -11.356  10.721  68.860  1.00  0.00    -0.349 A  
HETATM    8  N   UNL     1     -10.432  11.014  66.478  1.00  0.00    -0.249 N  
HETATM    9  C   UNL     1     -10.689  12.394  66.213  1.00  0.00    -0.256 C  
HETATM   10  C   UNL     1     -11.300   9.881  69.979  1.00  0.00    -0.303 A  
HETATM   11  C   UNL     1      -9.895  10.074  65.580  1.00  0.00    -0.303 A  
HETATM   12  C   UNL     1      -9.660   8.882  66.259  1.00  0.00    -0.328 A  
HETATM   13  O   UNL     1     -10.891  12.720  65.047  1.00  0.00    -0.277 OA 
HETATM   14  C   UNL     1      -9.541  10.371  64.154  1.00  0.00    -0.381 C  
BRANCH   9  15
HETATM   15  C   UNL     1     -10.764  13.481  67.233  1.00  0.00    -0.272 A  
HETATM   16  C   UNL     1     -11.988  14.145  67.406  1.00  0.00    -0.439 A  
HETATM   17  C   UNL     1      -9.663  13.863  68.010  1.00  0.00    -0.226 A  
HETATM   18  C   UNL     1      -9.826  14.786  69.048  1.00  0.00    -0.206 A  
HETATM   19 CL   UNL     1     -11.294  16.440  70.598  1.00  0.00    -0.323 Cl 
HETATM   20  C   UNL     1     -11.072  15.373  69.268  1.00  0.00    -0.280 A  
HETATM   21  C   UNL     1     -12.144  15.087  68.426  1.00  0.00    -0.139 A  
ENDBRANCH   9  15
BRANCH  12  22
HETATM   22  C   UNL     1      -9.009   7.637  65.710  1.00  0.00    -0.095 C  
HETATM   23  O   UNL     1      -6.969   8.172  66.970  1.00  0.00    -0.071 OA 
HETATM   24  C   UNL     1      -7.549   7.384  66.044  1.00  0.00    -0.088 C  
HETATM   25  O   UNL     1      -6.918   6.482  65.503  1.00  0.00    -0.051 OA 
ENDBRANCH  12  22
ENDBRANCH   2   3
TORSDOF 3
ENDMDL
MODEL       51
REMARK 921   NORMALIZED FREE ENERGY PREDICTED BY IDOCK:   -5.16 KCAL/MOL
REMARK 922        TOTAL FREE ENERGY PREDICTED BY IDOCK:   -7.00 KCAL/MOL
REMARK 923 INTER-LIGAND FREE ENERGY PREDICTED BY IDOCK:   -6.51 KCAL/MOL
REMARK 924 INTRA-LIGAND FREE ENERGY PREDICTED BY IDOCK:   -0.48 KCAL/MOL
REMARK 927      BINDING AFFINITY PREDICTED BY RF-SCORE:    0.00 PKD
ROOT
HETATM    1  C   UNL     1      -5.526  15.708  70.371  1.00  0.00    -0.153 C  
HETATM    2  O   UNL     1      -5.519  14.529  69.572  1.00  0.00    -0.090 OA 
ENDROOT
BRANCH   2   3
HETATM    3  C   UNL     1      -6.714  14.153  69.023  1.00  0.00    -0.107 A  
HETATM    4  C   UNL     1      -7.735  15.020  68.637  1.00  0.00    -0.128 A  
HETATM    5  C   UNL     1      -8.942  14.510  68.107  1.00  0.00    -0.182 A  
HETATM    6  C   UNL     1      -9.123  13.130  68.009  1.00  0.00    -0.207 A  
HETATM    7  C   UNL     1      -8.056  12.256  68.300  1.00  0.00    -0.166 A  
HETATM    8  N   UNL     1     -10.448  12.893  67.603  1.00  0.00    -0.222 N  
HETATM    9  C   UNL     1     -11.108  11.627  67.568  1.00  0.00    -0.276 C  
HETATM   10  C   UNL     1      -6.874  12.787  68.833  1.00  0.00    -0.096 A  
HETATM   11  C   UNL     1     -10.997  14.134  67.236  1.00  0.00    -0.297 A  
HETATM   12  C   UNL     1     -10.090  15.142  67.552  1.00  0.00    -0.232 A  
HETATM   13  O   UNL     1     -12.036  11.492  66.776  1.00  0.00    -0.470 OA 
HETATM   14  C   UNL     1     -12.383  14.322  66.697  1.00  0.00    -0.320 C  
BRANCH   9  15
HETATM   15  C   UNL     1     -10.754  10.433  68.392  1.00  0.00    -0.263 A  
HETATM   16  C   UNL     1     -10.506   9.221  67.730  1.00  0.00    -0.313 A  
HETATM   17  C   UNL     1     -10.671  10.480  69.789  1.00  0.00    -0.314 A  
HETATM   18  C   UNL     1     -10.196   9.372  70.498  1.00  0.00    -0.332 A  
HETATM   19 CL   UNL     1      -9.199   6.868  70.679  1.00  0.00    -0.158 Cl 
HETATM   20  C   UNL     1      -9.866   8.199  69.819  1.00  0.00    -0.187 A  
HETATM   21  C   UNL     1     -10.057   8.106  68.442  1.00  0.00    -0.226 A  
ENDBRANCH   9  15
BRANCH  12  22
HETATM   22  C   UNL     1     -10.300  16.629  67.416  1.00  0.00    -0.292 C  
HETATM   23  O   UNL     1     -10.509  16.357  64.983  1.00  0.00    -0.642 OA 
HETATM   24  C   UNL     1     -10.407  17.214  66.017  1.00  0.00    -0.309 C  
HETATM   25  O   UNL     1     -10.416  18.426  65.831  1.00  0.00    -0.531 OA 
ENDBRANCH  12  22
ENDBRANCH   2   3
TORSDOF 3
ENDMDL
MODEL       52
REMARK 921   NORMALIZED FREE ENERGY PREDICTED BY IDOCK:   -5.11 KCAL/MOL
REMARK 922        TOTAL FREE ENERGY PREDICTED BY IDOCK:   -6.94 KCAL/MOL
REMARK 923 INTER-LIGAND FREE ENERGY PREDICTED BY IDOCK:   -6.04 KCAL/MOL
REMARK 924 INTRA-LIGAND FREE ENERGY PREDICTED BY IDOCK:   -0.90 KCAL/MOL
REMARK 927      BINDING AFFINITY PREDICTED BY RF-SCORE:    0.00 PKD
ROOT
HETATM    1  C   UNL     1      -6.262  10.485  70.083  1.00  0.00    -0.117 C  
HETATM    2  O   UNL     1      -6.102  11.011  68.768  1.00  0.00    -0.043 OA 
ENDROOT
BRANCH   2   3
HETATM    3  C   UNL     1      -7.240  11.415  68.126  1.00  0.00    -0.082 A  
HETATM    4  C   UNL     1      -7.782  10.816  66.989  1.00  0.00    -0.121 A  
HETATM    5  C   UNL     1      -8.952  11.343  66.395  1.00  0.00    -0.196 A  
HETATM    6  C   UNL     1      -9.538  12.491  66.927  1.00  0.00    -0.229 A  
HETATM    7  C   UNL     1      -9.053  13.037  68.133  1.00  0.00    -0.204 A  
HETATM    8  N   UNL     1     -10.578  12.887  66.068  1.00  0.00    -0.267 N  
HETATM    9  C   UNL     1     -11.307  14.114  66.131  1.00  0.00    -0.337 C  
HETATM   10  C   UNL     1      -7.888  12.502  68.696  1.00  0.00    -0.048 A  
HETATM   11  C   UNL     1     -10.766  11.848  65.139  1.00  0.00    -0.291 A  
HETATM   12  C   UNL     1      -9.766  10.896  65.316  1.00  0.00    -0.296 A  
HETATM   13  O   UNL     1     -12.445  14.122  65.670  1.00  0.00    -0.457 OA 
HETATM   14  C   UNL     1     -11.816  11.847  64.069  1.00  0.00    -0.458 C  
BRANCH   9  15
HETATM   15  C   UNL     1     -10.822  15.389  66.736  1.00  0.00    -0.306 A  
HETATM   16  C   UNL     1      -9.763  16.061  66.106  1.00  0.00    -0.353 A  
HETATM   17  C   UNL     1     -11.376  15.927  67.904  1.00  0.00    -0.252 A  
HETATM   18  C   UNL     1     -10.981  17.194  68.346  1.00  0.00    -0.221 A  
HETATM   19 CL   UNL     1      -9.568  19.487  68.149  1.00  0.00    -0.427 Cl 
HETATM   20  C   UNL     1      -9.990  17.894  67.659  1.00  0.00    -0.324 A  
HETATM   21  C   UNL     1      -9.351  17.316  66.564  1.00  0.00    -0.283 A  
ENDBRANCH   9  15
BRANCH  12  22
HETATM   22  C   UNL     1      -9.527   9.662  64.482  1.00  0.00    -0.182 C  
HETATM   23  O   UNL     1      -8.267  11.021  62.869  1.00  0.00    -0.080 OA 
HETATM   24  C   UNL     1      -8.819   9.824  63.148  1.00  0.00    -0.246 C  
HETATM   25  O   UNL     1      -8.737   8.895  62.352  1.00  0.00    -0.222 OA 
ENDBRANCH  12  22
ENDBRANCH   2   3
TORSDOF 3
ENDMDL
MODEL       53
REMARK 921   NORMALIZED FREE ENERGY PREDICTED BY IDOCK:   -5.06 KCAL/MOL
REMARK 922        TOTAL FREE ENERGY PREDICTED BY IDOCK:   -6.89 KCAL/MOL
REMARK 923 INTER-LIGAND FREE ENERGY PREDICTED BY IDOCK:   -5.99 KCAL/MOL
REMARK 924 INTRA-LIGAND FREE ENERGY PREDICTED BY IDOCK:   -0.90 KCAL/MOL
REMARK 927      BINDING AFFINITY PREDICTED BY RF-SCORE:    0.00 PKD
ROOT
HETATM    1  C   UNL     1      -5.798  16.067  69.752  1.00  0.00    -0.162 C  
HETATM    2  O   UNL     1      -6.086  14.675  69.661  1.00  0.00    -0.104 OA 
ENDROOT
BRANCH   2   3
HETATM    3  C   UNL     1      -7.103  14.312  68.821  1.00  0.00    -0.105 A  
HETATM    4  C   UNL     1      -8.265  15.048  68.594  1.00  0.00    -0.156 A  
HETATM    5  C   UNL     1      -9.262  14.555  67.721  1.00  0.00    -0.194 A  
HETATM    6  C   UNL     1      -9.096  13.307  67.120  1.00  0.00    -0.231 A  
HETATM    7  C   UNL     1      -7.880  12.610  67.266  1.00  0.00    -0.155 A  
HETATM    8  N   UNL     1     -10.284  12.992  66.438  1.00  0.00    -0.273 N  
HETATM    9  C   UNL     1     -10.615  11.732  65.852  1.00  0.00    -0.271 C  
HETATM   10  C   UNL     1      -6.913  13.116  68.143  1.00  0.00    -0.108 A  
HETATM   11  C   UNL     1     -11.082  14.150  66.438  1.00  0.00    -0.320 A  
HETATM   12  C   UNL     1     -10.476  15.117  67.234  1.00  0.00    -0.271 A  
HETATM   13  O   UNL     1     -11.409  11.731  64.917  1.00  0.00    -0.301 OA 
HETATM   14  C   UNL     1     -12.420  14.258  65.770  1.00  0.00    -0.421 C  
BRANCH   9  15
HETATM   15  C   UNL     1     -10.057  10.407  66.256  1.00  0.00    -0.292 A  
HETATM   16  C   UNL     1      -9.121   9.795  65.409  1.00  0.00    -0.251 A  
HETATM   17  C   UNL     1     -10.441   9.757  67.436  1.00  0.00    -0.319 A  
HETATM   18  C   UNL     1      -9.782   8.589  67.836  1.00  0.00    -0.193 A  
HETATM   19 CL   UNL     1      -7.917   6.654  67.561  1.00  0.00    -0.113 Cl 
HETATM   20  C   UNL     1      -8.788   8.038  67.028  1.00  0.00    -0.133 A  
HETATM   21  C   UNL     1      -8.482   8.614  65.797  1.00  0.00    -0.165 A  
ENDBRANCH   9  15
BRANCH  12  22
HETATM   22  C   UNL     1     -11.025  16.476  67.590  1.00  0.00    -0.207 C  
HETATM   23  O   UNL     1      -9.743  17.457  65.738  1.00  0.00    -0.533 OA 
HETATM   24  C   UNL     1     -10.509  17.682  66.823  1.00  0.00    -0.289 C  
HETATM   25  O   UNL     1     -10.790  18.825  67.167  1.00  0.00    -0.421 OA 
ENDBRANCH  12  22
ENDBRANCH   2   3
TORSDOF 3
ENDMDL
MODEL       54
REMARK 921   NORMALIZED FREE ENERGY PREDICTED BY IDOCK:   -5.06 KCAL/MOL
REMARK 922        TOTAL FREE ENERGY PREDICTED BY IDOCK:   -6.88 KCAL/MOL
REMARK 923 INTER-LIGAND FREE ENERGY PREDICTED BY IDOCK:   -6.29 KCAL/MOL
REMARK 924 INTRA-LIGAND FREE ENERGY PREDICTED BY IDOCK:   -0.58 KCAL/MOL
REMARK 927      BINDING AFFINITY PREDICTED BY RF-SCORE:    0.00 PKD
ROOT
HETATM    1  C   UNL     1     -10.064   6.744  73.531  1.00  0.00    -0.268 C  
HETATM    2  O   UNL     1     -10.612   8.038  73.297  1.00  0.00    -0.286 OA 
ENDROOT
BRANCH   2   3
HETATM    3  C   UNL     1     -10.584   8.492  72.007  1.00  0.00    -0.338 A  
HETATM    4  C   UNL     1     -11.289   9.593  71.523  1.00  0.00    -0.420 A  
HETATM    5  C   UNL     1     -11.204   9.950  70.158  1.00  0.00    -0.347 A  
HETATM    6  C   UNL     1     -10.441   9.170  69.288  1.00  0.00    -0.221 A  
HETATM    7  C   UNL     1      -9.647   8.121  69.793  1.00  0.00    -0.171 A  
HETATM    8  N   UNL     1     -10.650   9.646  67.981  1.00  0.00    -0.236 N  
HETATM    9  C   UNL     1     -10.219   9.017  66.773  1.00  0.00    -0.271 C  
HETATM   10  C   UNL     1      -9.758   7.782  71.147  1.00  0.00    -0.175 A  
HETATM   11  C   UNL     1     -11.359  10.855  68.089  1.00  0.00    -0.315 A  
HETATM   12  C   UNL     1     -11.720  11.052  69.419  1.00  0.00    -0.394 A  
HETATM   13  O   UNL     1     -10.037   9.734  65.794  1.00  0.00    -0.293 OA 
HETATM   14  C   UNL     1     -11.745  11.718  66.926  1.00  0.00    -0.221 C  
BRANCH   9  15
HETATM   15  C   UNL     1      -9.939   7.561  66.597  1.00  0.00    -0.270 A  
HETATM   16  C   UNL     1      -8.661   7.180  66.160  1.00  0.00    -0.164 A  
HETATM   17  C   UNL     1     -10.902   6.574  66.842  1.00  0.00    -0.427 A  
HETATM   18  C   UNL     1     -10.543   5.223  66.800  1.00  0.00    -0.309 A  
HETATM   19 CL   UNL     1      -8.779   3.202  66.485  1.00  0.00    -0.123 Cl 
HETATM   20  C   UNL     1      -9.243   4.858  66.451  1.00  0.00    -0.138 A  
HETATM   21  C   UNL     1      -8.312   5.829  66.092  1.00  0.00    -0.122 A  
ENDBRANCH   9  15
BRANCH  12  22
HETATM   22  C   UNL     1     -12.566  12.170  69.976  1.00  0.00     0.087 C  
HETATM   23  O   UNL     1     -10.841  13.784  69.302  1.00  0.00    -0.203 OA 
HETATM   24  C   UNL     1     -11.988  13.575  69.975  1.00  0.00    -0.340 C  
HETATM   25  O   UNL     1     -12.552  14.496  70.555  1.00  0.00    -0.327 OA 
ENDBRANCH  12  22
ENDBRANCH   2   3
TORSDOF 3
ENDMDL
MODEL       55
REMARK 921   NORMALIZED FREE ENERGY PREDICTED BY IDOCK:   -5.00 KCAL/MOL
REMARK 922        TOTAL FREE ENERGY PREDICTED BY IDOCK:   -6.81 KCAL/MOL
REMARK 923 INTER-LIGAND FREE ENERGY PREDICTED BY IDOCK:   -5.89 KCAL/MOL
REMARK 924 INTRA-LIGAND FREE ENERGY PREDICTED BY IDOCK:   -0.92 KCAL/MOL
REMARK 927      BINDING AFFINITY PREDICTED BY RF-SCORE:    0.00 PKD
ROOT
HETATM    1  C   UNL     1     -12.316  14.213  66.530  1.00  0.00    -0.372 C  
HETATM    2  O   UNL     1     -12.098  12.844  66.199  1.00  0.00    -0.420 OA 
ENDROOT
BRANCH   2   3
HETATM    3  C   UNL     1     -11.221  12.154  66.991  1.00  0.00    -0.314 A  
HETATM    4  C   UNL     1      -9.882  11.908  66.691  1.00  0.00    -0.219 A  
HETATM    5  C   UNL     1      -9.079  11.154  67.577  1.00  0.00    -0.146 A  
HETATM    6  C   UNL     1      -9.646  10.621  68.736  1.00  0.00    -0.186 A  
HETATM    7  C   UNL     1     -10.968  10.954  69.093  1.00  0.00    -0.290 A  
HETATM    8  N   UNL     1      -8.686   9.797  69.349  1.00  0.00    -0.159 N  
HETATM    9  C   UNL     1      -8.910   8.909  70.445  1.00  0.00    -0.181 C  
HETATM   10  C   UNL     1     -11.744  11.695  68.192  1.00  0.00    -0.365 A  
HETATM   11  C   UNL     1      -7.467  10.013  68.682  1.00  0.00    -0.083 A  
HETATM   12  C   UNL     1      -7.693  10.835  67.581  1.00  0.00    -0.104 A  
HETATM   13  O   UNL     1      -7.951   8.639  71.162  1.00  0.00    -0.112 OA 
HETATM   14  C   UNL     1      -6.170   9.362  69.055  1.00  0.00    -0.042 C  
BRANCH   9  15
HETATM   15  C   UNL     1     -10.218   8.297  70.822  1.00  0.00    -0.219 A  
HETATM   16  C   UNL     1     -10.869   8.775  71.969  1.00  0.00    -0.428 A  
HETATM   17  C   UNL     1     -10.808   7.265  70.080  1.00  0.00    -0.274 A  
HETATM   18  C   UNL     1     -12.099   6.829  70.395  1.00  0.00    -0.270 A  
HETATM   19 CL   UNL     1     -14.393   6.904  71.819  1.00  0.00    -0.455 Cl 
HETATM   20  C   UNL     1     -12.773   7.376  71.486  1.00  0.00    -0.372 A  
HETATM   21  C   UNL     1     -12.148   8.320  72.298  1.00  0.00    -0.439 A  
ENDBRANCH   9  15
BRANCH  12  22
HETATM   22  C   UNL     1      -6.688  11.250  66.536  1.00  0.00    -0.105 C  
HETATM   23  O   UNL     1      -7.372   9.342  65.148  1.00  0.00    -0.095 OA 
HETATM   24  C   UNL     1      -6.498  10.352  65.326  1.00  0.00    -0.105 C  
HETATM   25  O   UNL     1      -5.590  10.545  64.524  1.00  0.00    -0.133 OA 
ENDBRANCH  12  22
ENDBRANCH   2   3
TORSDOF 3
ENDMDL
MODEL       56
REMARK 921   NORMALIZED FREE ENERGY PREDICTED BY IDOCK:   -4.95 KCAL/MOL
REMARK 922        TOTAL FREE ENERGY PREDICTED BY IDOCK:   -6.75 KCAL/MOL
REMARK 923 INTER-LIGAND FREE ENERGY PREDICTED BY IDOCK:   -5.81 KCAL/MOL
REMARK 924 INTRA-LIGAND FREE ENERGY PREDICTED BY IDOCK:   -0.94 KCAL/MOL
REMARK 927      BINDING AFFINITY PREDICTED BY RF-SCORE:    0.00 PKD
ROOT
HETATM    1  C   UNL     1     -12.591  13.083  63.262  1.00  0.00    -0.047 C  
HETATM    2  O   UNL     1     -12.447  13.941  64.391  1.00  0.00    -0.613 OA 
ENDROOT
BRANCH   2   3
HETATM    3  C   UNL     1     -11.525  13.569  65.330  1.00  0.00    -0.302 A  
HETATM    4  C   UNL     1     -10.400  14.307  65.694  1.00  0.00    -0.352 A  
HETATM    5  C   UNL     1      -9.499  13.804  66.661  1.00  0.00    -0.289 A  
HETATM    6  C   UNL     1      -9.721  12.545  67.221  1.00  0.00    -0.202 A  
HETATM    7  C   UNL     1     -10.910  11.845  66.933  1.00  0.00    -0.305 A  
HETATM    8  N   UNL     1      -8.612  12.224  68.023  1.00  0.00    -0.168 N  
HETATM    9  C   UNL     1      -8.338  10.956  68.620  1.00  0.00    -0.148 C  
HETATM   10  C   UNL     1     -11.780  12.360  65.964  1.00  0.00    -0.469 A  
HETATM   11  C   UNL     1      -7.826  13.386  68.127  1.00  0.00    -0.145 A  
HETATM   12  C   UNL     1      -8.349  14.363  67.285  1.00  0.00    -0.228 A  
HETATM   13  O   UNL     1      -7.650  10.944  69.636  1.00  0.00    -0.100 OA 
HETATM   14  C   UNL     1      -6.569  13.489  68.937  1.00  0.00    -0.106 C  
BRANCH   9  15
HETATM   15  C   UNL     1      -8.840   9.636  68.137  1.00  0.00    -0.119 A  
HETATM   16  C   UNL     1      -9.749   8.935  68.945  1.00  0.00    -0.173 A  
HETATM   17  C   UNL     1      -8.432   9.074  66.920  1.00  0.00    -0.120 A  
HETATM   18  C   UNL     1      -9.041   7.906  66.451  1.00  0.00    -0.221 A  
HETATM   19 CL   UNL     1     -10.822   5.881  66.607  1.00  0.00    -0.346 Cl 
HETATM   20  C   UNL     1     -10.010   7.266  67.223  1.00  0.00    -0.192 A  
HETATM   21  C   UNL     1     -10.338   7.754  68.487  1.00  0.00    -0.226 A  
ENDBRANCH   9  15
BRANCH  12  22
HETATM   22  C   UNL     1      -7.774  15.731  67.013  1.00  0.00    -0.267 C  
HETATM   23  O   UNL     1      -8.930  16.592  69.002  1.00  0.00    -0.256 OA 
HETATM   24  C   UNL     1      -8.211  16.883  67.900  1.00  0.00    -0.197 C  
HETATM   25  O   UNL     1      -7.909  18.042  67.636  1.00  0.00    -0.215 OA 
ENDBRANCH  12  22
ENDBRANCH   2   3
TORSDOF 3
ENDMDL
MODEL       57
REMARK 921   NORMALIZED FREE ENERGY PREDICTED BY IDOCK:   -4.87 KCAL/MOL
REMARK 922        TOTAL FREE ENERGY PREDICTED BY IDOCK:   -6.66 KCAL/MOL
REMARK 923 INTER-LIGAND FREE ENERGY PREDICTED BY IDOCK:   -6.24 KCAL/MOL
REMARK 924 INTRA-LIGAND FREE ENERGY PREDICTED BY IDOCK:   -0.41 KCAL/MOL
REMARK 927      BINDING AFFINITY PREDICTED BY RF-SCORE:    0.00 PKD
ROOT
HETATM    1  C   UNL     1     -10.536   5.700  73.421  1.00  0.00    -0.258 C  
HETATM    2  O   UNL     1     -10.876   7.056  73.699  1.00  0.00    -0.336 OA 
ENDROOT
BRANCH   2   3
HETATM    3  C   UNL     1     -10.799   7.934  72.654  1.00  0.00    -0.364 A  
HETATM    4  C   UNL     1     -11.703   8.964  72.396  1.00  0.00    -0.266 A  
HETATM    5  C   UNL     1     -11.535   9.793  71.263  1.00  0.00    -0.457 A  
HETATM    6  C   UNL     1     -10.482   9.549  70.380  1.00  0.00    -0.278 A  
HETATM    7  C   UNL     1      -9.511   8.577  70.693  1.00  0.00    -0.203 A  
HETATM    8  N   UNL     1     -10.635  10.404  69.274  1.00  0.00    -0.216 N  
HETATM    9  C   UNL     1      -9.894  10.349  68.055  1.00  0.00    -0.150 C  
HETATM   10  C   UNL     1      -9.706   7.763  71.816  1.00  0.00    -0.206 A  
HETATM   11  C   UNL     1     -11.650  11.321  69.598  1.00  0.00    -0.330 A  
HETATM   12  C   UNL     1     -12.225  10.953  70.811  1.00  0.00    -0.483 A  
HETATM   13  O   UNL     1      -9.782  11.389  67.411  1.00  0.00    -0.179 OA 
HETATM   14  C   UNL     1     -12.096  12.441  68.706  1.00  0.00    -0.158 C  
BRANCH   9  15
HETATM   15  C   UNL     1      -9.213   9.143  67.498  1.00  0.00    -0.144 A  
HETATM   16  C   UNL     1      -9.976   8.239  66.744  1.00  0.00    -0.355 A  
HETATM   17  C   UNL     1      -7.853   8.881  67.710  1.00  0.00    -0.102 A  
HETATM   18  C   UNL     1      -7.235   7.815  67.048  1.00  0.00    -0.089 A  
HETATM   19 CL   UNL     1      -7.212   5.720  65.344  1.00  0.00    -0.069 Cl 
HETATM   20  C   UNL     1      -7.987   6.975  66.227  1.00  0.00    -0.114 A  
HETATM   21  C   UNL     1      -9.363   7.158  66.104  1.00  0.00    -0.097 A  
ENDBRANCH   9  15
BRANCH  12  22
HETATM   22  C   UNL     1     -13.406  11.599  71.491  1.00  0.00    -0.148 C  
HETATM   23  O   UNL     1     -12.137  13.696  71.658  1.00  0.00    -0.076 OA 
HETATM   24  C   UNL     1     -13.248  13.019  72.007  1.00  0.00    -0.444 C  
HETATM   25  O   UNL     1     -14.108  13.543  72.707  1.00  0.00    -0.719 OA 
ENDBRANCH  12  22
ENDBRANCH   2   3
TORSDOF 3
ENDMDL
MODEL       58
REMARK 921   NORMALIZED FREE ENERGY PREDICTED BY IDOCK:   -4.87 KCAL/MOL
REMARK 922        TOTAL FREE ENERGY PREDICTED BY IDOCK:   -6.65 KCAL/MOL
REMARK 923 INTER-LIGAND FREE ENERGY PREDICTED BY IDOCK:   -5.74 KCAL/MOL
REMARK 924 INTRA-LIGAND FREE ENERGY PREDICTED BY IDOCK:   -0.92 KCAL/MOL
REMARK 927      BINDING AFFINITY PREDICTED BY RF-SCORE:    0.00 PKD
ROOT
HETATM    1  C   UNL     1     -12.535  13.138  63.087  1.00  0.00    -0.018 C  
HETATM    2  O   UNL     1     -12.397  13.944  64.253  1.00  0.00    -0.586 OA 
ENDROOT
BRANCH   2   3
HETATM    3  C   UNL     1     -11.552  13.479  65.223  1.00  0.00    -0.311 A  
HETATM    4  C   UNL     1     -10.389  14.115  65.654  1.00  0.00    -0.348 A  
HETATM    5  C   UNL     1      -9.577  13.521  66.648  1.00  0.00    -0.282 A  
HETATM    6  C   UNL     1      -9.925  12.273  67.166  1.00  0.00    -0.205 A  
HETATM    7  C   UNL     1     -11.151  11.677  66.808  1.00  0.00    -0.366 A  
HETATM    8  N   UNL     1      -8.883  11.846  68.008  1.00  0.00    -0.170 N  
HETATM    9  C   UNL     1      -8.740  10.547  68.585  1.00  0.00    -0.143 C  
HETATM   10  C   UNL     1     -11.932  12.282  65.815  1.00  0.00    -0.362 A  
HETATM   11  C   UNL     1      -8.012  12.938  68.176  1.00  0.00    -0.153 A  
HETATM   12  C   UNL     1      -8.416  13.972  67.336  1.00  0.00    -0.209 A  
HETATM   13  O   UNL     1      -8.102  10.458  69.629  1.00  0.00    -0.161 OA 
HETATM   14  C   UNL     1      -6.790  12.921  69.043  1.00  0.00    -0.080 C  
BRANCH   9  15
HETATM   15  C   UNL     1      -9.323   9.283  68.047  1.00  0.00    -0.145 A  
HETATM   16  C   UNL     1      -8.830   8.790  66.830  1.00  0.00    -0.147 A  
HETATM   17  C   UNL     1     -10.342   8.583  68.707  1.00  0.00    -0.233 A  
HETATM   18  C   UNL     1     -10.750   7.332  68.233  1.00  0.00    -0.174 A  
HETATM   19 CL   UNL     1     -10.623   5.234  66.537  1.00  0.00    -0.358 Cl 
HETATM   20  C   UNL     1     -10.187   6.810  67.069  1.00  0.00    -0.237 A  
HETATM   21  C   UNL     1      -9.257   7.551  66.343  1.00  0.00    -0.212 A  
ENDBRANCH   9  15
BRANCH  12  22
HETATM   22  C   UNL     1      -7.721  15.294  67.123  1.00  0.00    -0.238 C  
HETATM   23  O   UNL     1      -9.055  16.266  68.943  1.00  0.00    -0.229 OA 
HETATM   24  C   UNL     1      -8.187  16.489  67.937  1.00  0.00    -0.168 C  
HETATM   25  O   UNL     1      -7.778  17.620  67.701  1.00  0.00    -0.200 OA 
ENDBRANCH  12  22
ENDBRANCH   2   3
TORSDOF 3
ENDMDL
MODEL       59
REMARK 921   NORMALIZED FREE ENERGY PREDICTED BY IDOCK:   -4.86 KCAL/MOL
REMARK 922        TOTAL FREE ENERGY PREDICTED BY IDOCK:   -6.65 KCAL/MOL
REMARK 923 INTER-LIGAND FREE ENERGY PREDICTED BY IDOCK:   -5.84 KCAL/MOL
REMARK 924 INTRA-LIGAND FREE ENERGY PREDICTED BY IDOCK:   -0.80 KCAL/MOL
REMARK 927      BINDING AFFINITY PREDICTED BY RF-SCORE:    0.00 PKD
ROOT
HETATM    1  C   UNL     1      -5.307  11.878  70.282  1.00  0.00    -0.113 C  
HETATM    2  O   UNL     1      -5.414  11.676  68.875  1.00  0.00    -0.049 OA 
ENDROOT
BRANCH   2   3
HETATM    3  C   UNL     1      -6.616  11.987  68.301  1.00  0.00    -0.055 A  
HETATM    4  C   UNL     1      -7.238  11.262  67.285  1.00  0.00    -0.114 A  
HETATM    5  C   UNL     1      -8.471  11.700  66.748  1.00  0.00    -0.177 A  
HETATM    6  C   UNL     1      -9.042  12.886  67.212  1.00  0.00    -0.208 A  
HETATM    7  C   UNL     1      -8.470  13.564  68.308  1.00  0.00    -0.168 A  
HETATM    8  N   UNL     1     -10.165  13.168  66.415  1.00  0.00    -0.279 N  
HETATM    9  C   UNL     1     -10.922  14.379  66.418  1.00  0.00    -0.319 C  
HETATM   10  C   UNL     1      -7.244  13.114  68.814  1.00  0.00    -0.085 A  
HETATM   11  C   UNL     1     -10.403  12.034  65.618  1.00  0.00    -0.253 A  
HETATM   12  C   UNL     1      -9.363  11.127  65.799  1.00  0.00    -0.238 A  
HETATM   13  O   UNL     1     -12.096  14.316  66.064  1.00  0.00    -0.405 OA 
HETATM   14  C   UNL     1     -11.542  11.900  64.653  1.00  0.00    -0.320 C  
BRANCH   9  15
HETATM   15  C   UNL     1     -10.424  15.720  66.844  1.00  0.00    -0.315 A  
HETATM   16  C   UNL     1      -9.439  16.341  66.061  1.00  0.00    -0.369 A  
HETATM   17  C   UNL     1     -10.896  16.369  67.993  1.00  0.00    -0.342 A  
HETATM   18  C   UNL     1     -10.501  17.683  68.265  1.00  0.00    -0.376 A  
HETATM   19 CL   UNL     1      -9.171  19.968  67.711  1.00  0.00    -0.431 Cl 
HETATM   20  C   UNL     1      -9.588  18.324  67.427  1.00  0.00    -0.283 A  
HETATM   21  C   UNL     1      -9.025  17.645  66.349  1.00  0.00    -0.255 A  
ENDBRANCH   9  15
BRANCH  12  22
HETATM   22  C   UNL     1      -9.161   9.818  65.077  1.00  0.00    -0.307 C  
HETATM   23  O   UNL     1      -9.607   8.615  67.172  1.00  0.00    -0.153 OA 
HETATM   24  C   UNL     1      -9.200   8.536  65.890  1.00  0.00    -0.182 C  
HETATM   25  O   UNL     1      -8.886   7.458  65.397  1.00  0.00    -0.047 OA 
ENDBRANCH  12  22
ENDBRANCH   2   3
TORSDOF 3
ENDMDL
MODEL       60
REMARK 921   NORMALIZED FREE ENERGY PREDICTED BY IDOCK:   -4.84 KCAL/MOL
REMARK 922        TOTAL FREE ENERGY PREDICTED BY IDOCK:   -6.63 KCAL/MOL
REMARK 923 INTER-LIGAND FREE ENERGY PREDICTED BY IDOCK:   -7.15 KCAL/MOL
REMARK 924 INTRA-LIGAND FREE ENERGY PREDICTED BY IDOCK:    0.53 KCAL/MOL
REMARK 927      BINDING AFFINITY PREDICTED BY RF-SCORE:    0.00 PKD
ROOT
HETATM    1  C   UNL     1      -8.039  18.710  66.787  1.00  0.00    -0.265 C  
HETATM    2  O   UNL     1      -7.419  17.455  67.054  1.00  0.00    -0.178 OA 
ENDROOT
BRANCH   2   3
HETATM    3  C   UNL     1      -8.245  16.430  67.423  1.00  0.00    -0.158 A  
HETATM    4  C   UNL     1      -8.846  15.523  66.551  1.00  0.00    -0.348 A  
HETATM    5  C   UNL     1      -9.708  14.519  67.050  1.00  0.00    -0.247 A  
HETATM    6  C   UNL     1      -9.987  14.465  68.416  1.00  0.00    -0.241 A  
HETATM    7  C   UNL     1      -9.302  15.313  69.309  1.00  0.00    -0.239 A  
HETATM    8  N   UNL     1     -10.978  13.489  68.620  1.00  0.00    -0.256 N  
HETATM    9  C   UNL     1     -11.691  13.247  69.833  1.00  0.00    -0.259 C  
HETATM   10  C   UNL     1      -8.461  16.305  68.789  1.00  0.00    -0.240 A  
HETATM   11  C   UNL     1     -11.131  12.795  67.406  1.00  0.00    -0.275 A  
HETATM   12  C   UNL     1     -10.368  13.423  66.426  1.00  0.00    -0.288 A  
HETATM   13  O   UNL     1     -12.139  12.119  70.014  1.00  0.00    -0.313 OA 
HETATM   14  C   UNL     1     -12.060  11.636  67.204  1.00  0.00     0.404 C  
BRANCH   9  15
HETATM   15  C   UNL     1     -11.919  14.239  70.925  1.00  0.00    -0.389 A  
HETATM   16  C   UNL     1     -12.460  13.780  72.136  1.00  0.00    -0.099 A  
HETATM   17  C   UNL     1     -11.621  15.600  70.781  1.00  0.00    -0.412 A  
HETATM   18  C   UNL     1     -11.720  16.458  71.882  1.00  0.00    -0.419 A  
HETATM   19 CL   UNL     1     -12.211  17.002  74.481  1.00  0.00    -0.256 Cl 
HETATM   20  C   UNL     1     -12.175  15.970  73.106  1.00  0.00    -0.531 A  
HETATM   21  C   UNL     1     -12.583  14.643  73.228  1.00  0.00    -0.505 A  
ENDBRANCH   9  15
BRANCH  12  22
HETATM   22  C   UNL     1     -10.305  13.073  64.960  1.00  0.00    -0.336 C  
HETATM   23  O   UNL     1     -12.559  14.005  64.660  1.00  0.00    -0.618 OA 
HETATM   24  C   UNL     1     -11.542  13.312  64.111  1.00  0.00    -0.405 C  
HETATM   25  O   UNL     1     -11.612  12.904  62.957  1.00  0.00    -0.282 OA 
ENDBRANCH  12  22
ENDBRANCH   2   3
TORSDOF 3
ENDMDL
MODEL       61
REMARK 921   NORMALIZED FREE ENERGY PREDICTED BY IDOCK:   -4.84 KCAL/MOL
REMARK 922        TOTAL FREE ENERGY PREDICTED BY IDOCK:   -6.62 KCAL/MOL
REMARK 923 INTER-LIGAND FREE ENERGY PREDICTED BY IDOCK:   -5.98 KCAL/MOL
REMARK 924 INTRA-LIGAND FREE ENERGY PREDICTED BY IDOCK:   -0.64 KCAL/MOL
REMARK 927      BINDING AFFINITY PREDICTED BY RF-SCORE:    0.00 PKD
ROOT
HETATM    1  C   UNL     1      -5.244   9.220  67.317  1.00  0.00    -0.036 C  
HETATM    2  O   UNL     1      -5.428   8.609  68.591  1.00  0.00    -0.036 OA 
ENDROOT
BRANCH   2   3
HETATM    3  C   UNL     1      -6.644   8.791  69.190  1.00  0.00    -0.047 A  
HETATM    4  C   UNL     1      -7.356   7.816  69.887  1.00  0.00    -0.079 A  
HETATM    5  C   UNL     1      -8.622   8.116  70.440  1.00  0.00    -0.131 A  
HETATM    6  C   UNL     1      -9.175   9.383  70.248  1.00  0.00    -0.245 A  
HETATM    7  C   UNL     1      -8.415  10.399  69.635  1.00  0.00    -0.068 A  
HETATM    8  N   UNL     1     -10.486   9.367  70.756  1.00  0.00    -0.280 N  
HETATM    9  C   UNL     1     -11.470  10.388  70.590  1.00  0.00    -0.349 C  
HETATM   10  C   UNL     1      -7.168  10.073  69.088  1.00  0.00    -0.076 A  
HETATM   11  C   UNL     1     -10.643   8.159  71.459  1.00  0.00    -0.228 A  
HETATM   12  C   UNL     1      -9.512   7.371  71.264  1.00  0.00    -0.159 A  
HETATM   13  O   UNL     1     -12.348  10.475  71.444  1.00  0.00    -0.365 OA 
HETATM   14  C   UNL     1     -11.885   7.764  72.199  1.00  0.00    -0.370 C  
BRANCH   9  15
HETATM   15  C   UNL     1     -11.515  11.387  69.482  1.00  0.00    -0.381 A  
HETATM   16  C   UNL     1     -11.375  10.924  68.165  1.00  0.00    -0.383 A  
HETATM   17  C   UNL     1     -11.683  12.759  69.711  1.00  0.00    -0.352 A  
HETATM   18  C   UNL     1     -11.862  13.631  68.631  1.00  0.00    -0.409 A  
HETATM   19 CL   UNL     1     -12.118  14.198  66.004  1.00  0.00    -0.432 Cl 
HETATM   20  C   UNL     1     -11.810  13.143  67.326  1.00  0.00    -0.367 A  
HETATM   21  C   UNL     1     -11.527  11.800  67.087  1.00  0.00    -0.366 A  
ENDBRANCH   9  15
BRANCH  12  22
HETATM   22  C   UNL     1      -9.289   5.963  71.756  1.00  0.00    -0.161 C  
HETATM   23  O   UNL     1     -10.424   5.104  69.754  1.00  0.00    -0.285 OA 
HETATM   24  C   UNL     1      -9.893   4.820  70.959  1.00  0.00    -0.197 C  
HETATM   25  O   UNL     1      -9.888   3.671  71.387  1.00  0.00    -0.176 OA 
ENDBRANCH  12  22
ENDBRANCH   2   3
TORSDOF 3
ENDMDL
MODEL       62
REMARK 921   NORMALIZED FREE ENERGY PREDICTED BY IDOCK:   -4.80 KCAL/MOL
REMARK 922        TOTAL FREE ENERGY PREDICTED BY IDOCK:   -6.57 KCAL/MOL
REMARK 923 INTER-LIGAND FREE ENERGY PREDICTED BY IDOCK:   -5.88 KCAL/MOL
REMARK 924 INTRA-LIGAND FREE ENERGY PREDICTED BY IDOCK:   -0.69 KCAL/MOL
REMARK 927      BINDING AFFINITY PREDICTED BY RF-SCORE:    0.00 PKD
ROOT
HETATM    1  C   UNL     1     -13.150  10.038  71.679  1.00  0.00    -0.445 C  
HETATM    2  O   UNL     1     -11.825  10.512  71.460  1.00  0.00    -0.255 OA 
ENDROOT
BRANCH   2   3
HETATM    3  C   UNL     1     -11.226  10.139  70.288  1.00  0.00    -0.318 A  
HETATM    4  C   UNL     1     -10.129   9.286  70.177  1.00  0.00    -0.249 A  
HETATM    5  C   UNL     1      -9.576   8.996  68.908  1.00  0.00    -0.156 A  
HETATM    6  C   UNL     1     -10.109   9.603  67.770  1.00  0.00    -0.187 A  
HETATM    7  C   UNL     1     -11.279  10.382  67.868  1.00  0.00    -0.332 A  
HETATM    8  N   UNL     1      -9.289   9.271  66.677  1.00  0.00    -0.159 N  
HETATM    9  C   UNL     1      -9.357   9.835  65.367  1.00  0.00    -0.252 C  
HETATM   10  C   UNL     1     -11.800  10.662  69.137  1.00  0.00    -0.287 A  
HETATM   11  C   UNL     1      -8.394   8.280  67.116  1.00  0.00    -0.123 A  
HETATM   12  C   UNL     1      -8.547   8.108  68.489  1.00  0.00    -0.130 A  
HETATM   13  O   UNL     1      -8.948   9.152  64.432  1.00  0.00    -0.173 OA 
HETATM   14  C   UNL     1      -7.373   7.613  66.244  1.00  0.00    -0.079 C  
BRANCH   9  15
HETATM   15  C   UNL     1      -9.911  11.178  65.020  1.00  0.00    -0.315 A  
HETATM   16  C   UNL     1     -10.810  11.268  63.947  1.00  0.00    -0.427 A  
HETATM   17  C   UNL     1      -9.558  12.341  65.718  1.00  0.00    -0.185 A  
HETATM   18  C   UNL     1     -10.215  13.545  65.445  1.00  0.00    -0.316 A  
HETATM   19 CL   UNL     1     -12.044  15.060  64.158  1.00  0.00    -0.364 Cl 
HETATM   20  C   UNL     1     -11.174  13.602  64.434  1.00  0.00    -0.367 A  
HETATM   21  C   UNL     1     -11.446  12.478  63.657  1.00  0.00    -0.568 A  
ENDBRANCH   9  15
BRANCH  12  22
HETATM   22  C   UNL     1      -7.730   7.215  69.390  1.00  0.00    -0.107 C  
HETATM   23  O   UNL     1      -6.036   8.984  69.576  1.00  0.00    -0.036 OA 
HETATM   24  C   UNL     1      -6.364   7.704  69.838  1.00  0.00    -0.027 C  
HETATM   25  O   UNL     1      -5.586   6.967  70.435  1.00  0.00    -0.022 OA 
ENDBRANCH  12  22
ENDBRANCH   2   3
TORSDOF 3
ENDMDL
MODEL       63
REMARK 921   NORMALIZED FREE ENERGY PREDICTED BY IDOCK:   -4.79 KCAL/MOL
REMARK 922        TOTAL FREE ENERGY PREDICTED BY IDOCK:   -6.56 KCAL/MOL
REMARK 923 INTER-LIGAND FREE ENERGY PREDICTED BY IDOCK:   -5.61 KCAL/MOL
REMARK 924 INTRA-LIGAND FREE ENERGY PREDICTED BY IDOCK:   -0.95 KCAL/MOL
REMARK 927      BINDING AFFINITY PREDICTED BY RF-SCORE:    0.00 PKD
ROOT
HETATM    1  C   UNL     1     -13.589   8.167  71.726  1.00  0.00    -0.359 C  
HETATM    2  O   UNL     1     -13.609   9.518  71.275  1.00  0.00    -0.360 OA 
ENDROOT
BRANCH   2   3
HETATM    3  C   UNL     1     -12.477   9.977  70.661  1.00  0.00    -0.236 A  
HETATM    4  C   UNL     1     -12.418  11.049  69.771  1.00  0.00    -0.251 A  
HETATM    5  C   UNL     1     -11.189  11.413  69.174  1.00  0.00    -0.335 A  
HETATM    6  C   UNL     1     -10.041  10.668  69.449  1.00  0.00    -0.174 A  
HETATM    7  C   UNL     1     -10.077   9.651  70.425  1.00  0.00    -0.336 A  
HETATM    8  N   UNL     1      -9.009  11.138  68.619  1.00  0.00    -0.171 N  
HETATM    9  C   UNL     1      -7.729  10.531  68.435  1.00  0.00    -0.104 C  
HETATM   10  C   UNL     1     -11.309   9.304  70.994  1.00  0.00    -0.390 A  
HETATM   11  C   UNL     1      -9.472  12.316  68.008  1.00  0.00    -0.206 A  
HETATM   12  C   UNL     1     -10.816  12.494  68.327  1.00  0.00    -0.258 A  
HETATM   13  O   UNL     1      -6.800  11.258  68.096  1.00  0.00    -0.064 OA 
HETATM   14  C   UNL     1      -8.660  13.165  67.077  1.00  0.00    -0.168 C  
BRANCH   9  15
HETATM   15  C   UNL     1      -7.406   9.089  68.646  1.00  0.00    -0.077 A  
HETATM   16  C   UNL     1      -6.583   8.745  69.729  1.00  0.00    -0.041 A  
HETATM   17  C   UNL     1      -7.886   8.078  67.803  1.00  0.00    -0.126 A  
HETATM   18  C   UNL     1      -7.672   6.735  68.130  1.00  0.00    -0.109 A  
HETATM   19 CL   UNL     1      -6.738   4.755  69.712  1.00  0.00    -0.039 Cl 
HETATM   20  C   UNL     1      -6.926   6.404  69.261  1.00  0.00    -0.067 A  
HETATM   21  C   UNL     1      -6.347   7.403  70.040  1.00  0.00    -0.027 A  
ENDBRANCH   9  15
BRANCH  12  22
HETATM   22  C   UNL     1     -11.736  13.574  67.816  1.00  0.00    -0.394 C  
HETATM   23  O   UNL     1     -12.074  12.283  65.753  1.00  0.00    -0.587 OA 
HETATM   24  C   UNL     1     -12.279  13.445  66.403  1.00  0.00    -0.376 C  
HETATM   25  O   UNL     1     -12.898  14.360  65.872  1.00  0.00    -0.359 OA 
ENDBRANCH  12  22
ENDBRANCH   2   3
TORSDOF 3
ENDMDL
MODEL       64
REMARK 921   NORMALIZED FREE ENERGY PREDICTED BY IDOCK:   -4.75 KCAL/MOL
REMARK 922        TOTAL FREE ENERGY PREDICTED BY IDOCK:   -6.52 KCAL/MOL
REMARK 923 INTER-LIGAND FREE ENERGY PREDICTED BY IDOCK:   -6.05 KCAL/MOL
REMARK 924 INTRA-LIGAND FREE ENERGY PREDICTED BY IDOCK:   -0.47 KCAL/MOL
REMARK 927      BINDING AFFINITY PREDICTED BY RF-SCORE:    0.00 PKD
ROOT
HETATM    1  C   UNL     1      -9.807   4.679  65.741  1.00  0.00    -0.215 C  
HETATM    2  O   UNL     1      -9.506   4.721  67.133  1.00  0.00    -0.131 OA 
ENDROOT
BRANCH   2   3
HETATM    3  C   UNL     1      -9.831   5.872  67.796  1.00  0.00    -0.124 A  
HETATM    4  C   UNL     1     -10.617   5.948  68.945  1.00  0.00    -0.357 A  
HETATM    5  C   UNL     1     -10.910   7.203  69.526  1.00  0.00    -0.244 A  
HETATM    6  C   UNL     1     -10.441   8.370  68.921  1.00  0.00    -0.189 A  
HETATM    7  C   UNL     1      -9.562   8.290  67.822  1.00  0.00    -0.178 A  
HETATM    8  N   UNL     1     -10.998   9.467  69.602  1.00  0.00    -0.227 N  
HETATM    9  C   UNL     1     -10.938  10.834  69.194  1.00  0.00    -0.244 C  
HETATM   10  C   UNL     1      -9.296   7.035  67.259  1.00  0.00    -0.153 A  
HETATM   11  C   UNL     1     -11.619   8.964  70.759  1.00  0.00    -0.259 A  
HETATM   12  C   UNL     1     -11.587   7.573  70.722  1.00  0.00    -0.300 A  
HETATM   13  O   UNL     1     -11.022  11.692  70.068  1.00  0.00     0.018 OA 
HETATM   14  C   UNL     1     -12.296   9.812  71.793  1.00  0.00    -0.470 C  
BRANCH   9  15
HETATM   15  C   UNL     1     -10.753  11.322  67.795  1.00  0.00    -0.265 A  
HETATM   16  C   UNL     1      -9.451  11.365  67.274  1.00  0.00    -0.176 A  
HETATM   17  C   UNL     1     -11.825  11.744  66.997  1.00  0.00    -0.126 A  
HETATM   18  C   UNL     1     -11.612  12.054  65.649  1.00  0.00    -0.356 A  
HETATM   19 CL   UNL     1     -10.074  12.300  63.442  1.00  0.00    -0.383 Cl 
HETATM   20  C   UNL     1     -10.323  12.005  65.118  1.00  0.00    -0.276 A  
HETATM   21  C   UNL     1      -9.236  11.701  65.934  1.00  0.00    -0.206 A  
ENDBRANCH   9  15
BRANCH  12  22
HETATM   22  C   UNL     1     -12.216   6.623  71.711  1.00  0.00    -0.400 C  
HETATM   23  O   UNL     1      -9.990   6.136  72.628  1.00  0.00    -0.173 OA 
HETATM   24  C   UNL     1     -11.299   5.818  72.615  1.00  0.00    -0.300 C  
HETATM   25  O   UNL     1     -11.733   4.916  73.324  1.00  0.00    -0.312 OA 
ENDBRANCH  12  22
ENDBRANCH   2   3
TORSDOF 3
ENDMDL
MODEL       65
REMARK 921   NORMALIZED FREE ENERGY PREDICTED BY IDOCK:   -4.68 KCAL/MOL
REMARK 922        TOTAL FREE ENERGY PREDICTED BY IDOCK:   -6.44 KCAL/MOL
REMARK 923 INTER-LIGAND FREE ENERGY PREDICTED BY IDOCK:   -5.50 KCAL/MOL
REMARK 924 INTRA-LIGAND FREE ENERGY PREDICTED BY IDOCK:   -0.93 KCAL/MOL
REMARK 927      BINDING AFFINITY PREDICTED BY RF-SCORE:    0.00 PKD
ROOT
HETATM    1  C   UNL     1     -12.942  14.037  65.237  1.00  0.00    -0.278 C  
HETATM    2  O   UNL     1     -12.596  12.664  65.395  1.00  0.00    -0.641 OA 
ENDROOT
BRANCH   2   3
HETATM    3  C   UNL     1     -11.471  12.394  66.124  1.00  0.00    -0.379 A  
HETATM    4  C   UNL     1     -11.328  11.346  67.032  1.00  0.00    -0.309 A  
HETATM    5  C   UNL     1     -10.122  11.185  67.752  1.00  0.00    -0.200 A  
HETATM    6  C   UNL     1      -9.088  12.106  67.579  1.00  0.00    -0.180 A  
HETATM    7  C   UNL     1      -9.190  13.104  66.589  1.00  0.00    -0.220 A  
HETATM    8  N   UNL     1      -8.081  11.809  68.514  1.00  0.00    -0.151 N  
HETATM    9  C   UNL     1      -6.940  12.615  68.813  1.00  0.00    -0.096 C  
HETATM   10  C   UNL     1     -10.400  13.248  65.897  1.00  0.00    -0.293 A  
HETATM   11  C   UNL     1      -8.407  10.571  69.094  1.00  0.00    -0.151 A  
HETATM   12  C   UNL     1      -9.665  10.178  68.648  1.00  0.00    -0.167 A  
HETATM   13  O   UNL     1      -5.944  12.048  69.252  1.00  0.00    -0.067 OA 
HETATM   14  C   UNL     1      -7.564   9.864  70.113  1.00  0.00    -0.185 C  
BRANCH   9  15
HETATM   15  C   UNL     1      -6.835  14.090  68.612  1.00  0.00    -0.103 A  
HETATM   16  C   UNL     1      -7.649  14.926  69.392  1.00  0.00    -0.162 A  
HETATM   17  C   UNL     1      -5.966  14.662  67.673  1.00  0.00    -0.051 A  
HETATM   18  C   UNL     1      -5.804  16.051  67.628  1.00  0.00    -0.174 A  
HETATM   19 CL   UNL     1      -6.290  18.568  68.479  1.00  0.00    -0.211 Cl 
HETATM   20  C   UNL     1      -6.554  16.868  68.473  1.00  0.00    -0.165 A  
HETATM   21  C   UNL     1      -7.505  16.315  69.327  1.00  0.00    -0.217 A  
ENDBRANCH   9  15
BRANCH  12  22
HETATM   22  C   UNL     1     -10.446   8.963  69.083  1.00  0.00    -0.236 C  
HETATM   23  O   UNL     1     -11.428  10.273  70.915  1.00  0.00    -0.338 OA 
HETATM   24  C   UNL     1     -11.274   9.058  70.353  1.00  0.00    -0.241 C  
HETATM   25  O   UNL     1     -11.800   8.067  70.847  1.00  0.00    -0.288 OA 
ENDBRANCH  12  22
ENDBRANCH   2   3
TORSDOF 3
ENDMDL
MODEL       66
REMARK 921   NORMALIZED FREE ENERGY PREDICTED BY IDOCK:   -4.68 KCAL/MOL
REMARK 922        TOTAL FREE ENERGY PREDICTED BY IDOCK:   -6.43 KCAL/MOL
REMARK 923 INTER-LIGAND FREE ENERGY PREDICTED BY IDOCK:   -5.56 KCAL/MOL
REMARK 924 INTRA-LIGAND FREE ENERGY PREDICTED BY IDOCK:   -0.87 KCAL/MOL
REMARK 927      BINDING AFFINITY PREDICTED BY RF-SCORE:    0.00 PKD
ROOT
HETATM    1  C   UNL     1      -7.968   6.540  69.366  1.00  0.00    -0.114 C  
HETATM    2  O   UNL     1      -9.107   7.394  69.401  1.00  0.00    -0.140 OA 
ENDROOT
BRANCH   2   3
HETATM    3  C   UNL     1      -9.304   8.199  68.313  1.00  0.00    -0.134 A  
HETATM    4  C   UNL     1      -8.744   8.004  67.052  1.00  0.00    -0.132 A  
HETATM    5  C   UNL     1      -8.998   8.923  66.008  1.00  0.00    -0.235 A  
HETATM    6  C   UNL     1      -9.780  10.051  66.259  1.00  0.00    -0.214 A  
HETATM    7  C   UNL     1     -10.431  10.197  67.501  1.00  0.00    -0.304 A  
HETATM    8  N   UNL     1      -9.746  10.868  65.115  1.00  0.00    -0.242 N  
HETATM    9  C   UNL     1     -10.246  12.201  65.011  1.00  0.00    -0.283 C  
HETATM   10  C   UNL     1     -10.154   9.277  68.520  1.00  0.00    -0.211 A  
HETATM   11  C   UNL     1      -9.130  10.123  64.093  1.00  0.00    -0.251 A  
HETATM   12  C   UNL     1      -8.651   8.930  64.628  1.00  0.00    -0.169 A  
HETATM   13  O   UNL     1     -10.585  12.596  63.900  1.00  0.00    -0.404 OA 
HETATM   14  C   UNL     1      -8.936  10.609  62.689  1.00  0.00    -0.306 C  
BRANCH   9  15
HETATM   15  C   UNL     1     -10.424  13.158  66.143  1.00  0.00    -0.287 A  
HETATM   16  C   UNL     1      -9.277  13.639  66.792  1.00  0.00    -0.251 A  
HETATM   17  C   UNL     1     -11.686  13.582  66.580  1.00  0.00    -0.408 A  
HETATM   18  C   UNL     1     -11.789  14.587  67.547  1.00  0.00    -0.404 A  
HETATM   19 CL   UNL     1     -10.761  16.418  69.245  1.00  0.00    -0.304 Cl 
HETATM   20  C   UNL     1     -10.637  15.122  68.122  1.00  0.00    -0.246 A  
HETATM   21  C   UNL     1      -9.382  14.624  67.778  1.00  0.00    -0.197 A  
ENDBRANCH   9  15
BRANCH  12  22
HETATM   22  C   UNL     1      -7.846   7.872  63.915  1.00  0.00    -0.141 C  
HETATM   23  O   UNL     1      -5.825   9.237  64.214  1.00  0.00    -0.068 OA 
HETATM   24  C   UNL     1      -6.379   8.153  63.637  1.00  0.00    -0.072 C  
HETATM   25  O   UNL     1      -5.711   7.411  62.925  1.00  0.00    -0.047 OA 
ENDBRANCH  12  22
ENDBRANCH   2   3
TORSDOF 3
ENDMDL
MODEL       67
REMARK 921   NORMALIZED FREE ENERGY PREDICTED BY IDOCK:   -4.66 KCAL/MOL
REMARK 922        TOTAL FREE ENERGY PREDICTED BY IDOCK:   -6.41 KCAL/MOL
REMARK 923 INTER-LIGAND FREE ENERGY PREDICTED BY IDOCK:   -5.54 KCAL/MOL
REMARK 924 INTRA-LIGAND FREE ENERGY PREDICTED BY IDOCK:   -0.87 KCAL/MOL
REMARK 927      BINDING AFFINITY PREDICTED BY RF-SCORE:    0.00 PKD
ROOT
HETATM    1  C   UNL     1      -5.620  11.289  70.388  1.00  0.00    -0.134 C  
HETATM    2  O   UNL     1      -5.377  12.545  69.760  1.00  0.00    -0.075 OA 
ENDROOT
BRANCH   2   3
HETATM    3  C   UNL     1      -6.458  13.173  69.206  1.00  0.00    -0.107 A  
HETATM    4  C   UNL     1      -7.431  12.562  68.417  1.00  0.00    -0.127 A  
HETATM    5  C   UNL     1      -8.491  13.325  67.873  1.00  0.00    -0.177 A  
HETATM    6  C   UNL     1      -8.534  14.701  68.096  1.00  0.00    -0.156 A  
HETATM    7  C   UNL     1      -7.611  15.303  68.975  1.00  0.00    -0.172 A  
HETATM    8  N   UNL     1      -9.583  15.234  67.326  1.00  0.00    -0.210 N  
HETATM    9  C   UNL     1      -9.853  16.619  67.107  1.00  0.00    -0.257 C  
HETATM   10  C   UNL     1      -6.567  14.527  69.493  1.00  0.00    -0.143 A  
HETATM   11  C   UNL     1     -10.316  14.147  66.818  1.00  0.00    -0.274 A  
HETATM   12  C   UNL     1      -9.651  12.965  67.132  1.00  0.00    -0.225 A  
HETATM   13  O   UNL     1     -11.010  16.938  66.848  1.00  0.00    -0.092 OA 
HETATM   14  C   UNL     1     -11.552  14.276  65.979  1.00  0.00    -0.362 C  
BRANCH   9  15
HETATM   15  C   UNL     1      -8.857  17.728  67.192  1.00  0.00    -0.251 A  
HETATM   16  C   UNL     1      -7.855  17.796  66.212  1.00  0.00    -0.299 A  
HETATM   17  C   UNL     1      -8.884  18.688  68.212  1.00  0.00    -0.353 A  
HETATM   18  C   UNL     1      -8.018  19.785  68.161  1.00  0.00    -0.334 A  
HETATM   19 CL   UNL     1      -6.080  21.280  67.020  1.00  0.00    -0.383 Cl 
HETATM   20  C   UNL     1      -7.084  19.888  67.131  1.00  0.00    -0.224 A  
HETATM   21  C   UNL     1      -6.972  18.879  66.178  1.00  0.00    -0.278 A  
ENDBRANCH   9  15
BRANCH  12  22
HETATM   22  C   UNL     1     -10.030  11.568  66.708  1.00  0.00    -0.235 C  
HETATM   23  O   UNL     1     -11.714  11.503  68.497  1.00  0.00    -0.290 OA 
HETATM   24  C   UNL     1     -11.053  10.817  67.543  1.00  0.00    -0.308 C  
HETATM   25  O   UNL     1     -11.286   9.628  67.351  1.00  0.00    -0.077 OA 
ENDBRANCH  12  22
ENDBRANCH   2   3
TORSDOF 3
ENDMDL
MODEL       68
REMARK 921   NORMALIZED FREE ENERGY PREDICTED BY IDOCK:   -4.62 KCAL/MOL
REMARK 922        TOTAL FREE ENERGY PREDICTED BY IDOCK:   -6.36 KCAL/MOL
REMARK 923 INTER-LIGAND FREE ENERGY PREDICTED BY IDOCK:   -6.55 KCAL/MOL
REMARK 924 INTRA-LIGAND FREE ENERGY PREDICTED BY IDOCK:    0.19 KCAL/MOL
REMARK 927      BINDING AFFINITY PREDICTED BY RF-SCORE:    0.00 PKD
ROOT
HETATM    1  C   UNL     1      -6.100  10.846  66.553  1.00  0.00    -0.122 C  
HETATM    2  O   UNL     1      -5.826  12.074  67.220  1.00  0.00    -0.113 OA 
ENDROOT
BRANCH   2   3
HETATM    3  C   UNL     1      -6.898  12.880  67.487  1.00  0.00    -0.153 A  
HETATM    4  C   UNL     1      -6.846  14.262  67.664  1.00  0.00    -0.201 A  
HETATM    5  C   UNL     1      -8.022  14.988  67.965  1.00  0.00    -0.134 A  
HETATM    6  C   UNL     1      -9.229  14.307  68.126  1.00  0.00    -0.202 A  
HETATM    7  C   UNL     1      -9.304  12.927  67.846  1.00  0.00    -0.208 A  
HETATM    8  N   UNL     1     -10.193  15.230  68.569  1.00  0.00    -0.220 N  
HETATM    9  C   UNL     1     -11.505  14.921  69.042  1.00  0.00    -0.301 C  
HETATM   10  C   UNL     1      -8.123  12.231  67.559  1.00  0.00    -0.170 A  
HETATM   11  C   UNL     1      -9.622  16.510  68.457  1.00  0.00    -0.233 A  
HETATM   12  C   UNL     1      -8.283  16.380  68.100  1.00  0.00    -0.170 A  
HETATM   13  O   UNL     1     -12.366  15.789  68.933  1.00  0.00    -0.142 OA 
HETATM   14  C   UNL     1     -10.336  17.787  68.783  1.00  0.00    -0.332 C  
BRANCH   9  15
HETATM   15  C   UNL     1     -11.938  13.621  69.634  1.00  0.00    -0.402 A  
HETATM   16  C   UNL     1     -11.861  12.470  68.835  1.00  0.00    -0.346 A  
HETATM   17  C   UNL     1     -12.422  13.514  70.944  1.00  0.00    -0.448 A  
HETATM   18  C   UNL     1     -12.678  12.253  71.493  1.00  0.00    -0.339 A  
HETATM   19 CL   UNL     1     -12.739   9.555  71.417  1.00  0.00    -0.415 Cl 
HETATM   20  C   UNL     1     -12.511  11.108  70.716  1.00  0.00    -0.384 A  
HETATM   21  C   UNL     1     -12.142  11.213  69.377  1.00  0.00    -0.396 A  
ENDBRANCH   9  15
BRANCH  12  22
HETATM   22  C   UNL     1      -7.268  17.487  67.959  1.00  0.00    -0.206 C  
HETATM   23  O   UNL     1      -7.985  17.820  65.632  1.00  0.00    -0.532 OA 
HETATM   24  C   UNL     1      -7.093  18.129  66.593  1.00  0.00    -0.211 C  
HETATM   25  O   UNL     1      -6.180  18.917  66.371  1.00  0.00    -0.174 OA 
ENDBRANCH  12  22
ENDBRANCH   2   3
TORSDOF 3
ENDMDL
MODEL       69
REMARK 921   NORMALIZED FREE ENERGY PREDICTED BY IDOCK:   -4.59 KCAL/MOL
REMARK 922        TOTAL FREE ENERGY PREDICTED BY IDOCK:   -6.33 KCAL/MOL
REMARK 923 INTER-LIGAND FREE ENERGY PREDICTED BY IDOCK:   -5.38 KCAL/MOL
REMARK 924 INTRA-LIGAND FREE ENERGY PREDICTED BY IDOCK:   -0.95 KCAL/MOL
REMARK 927      BINDING AFFINITY PREDICTED BY RF-SCORE:    0.00 PKD
ROOT
HETATM    1  C   UNL     1     -12.743  14.499  63.998  1.00  0.00     0.331 C  
HETATM    2  O   UNL     1     -12.819  13.450  64.960  1.00  0.00    -0.685 OA 
ENDROOT
BRANCH   2   3
HETATM    3  C   UNL     1     -11.674  13.171  65.654  1.00  0.00    -0.364 A  
HETATM    4  C   UNL     1     -11.460  12.038  66.438  1.00  0.00    -0.417 A  
HETATM    5  C   UNL     1     -10.241  11.872  67.135  1.00  0.00    -0.230 A  
HETATM    6  C   UNL     1      -9.268  12.870  67.068  1.00  0.00    -0.226 A  
HETATM    7  C   UNL     1      -9.439  13.964  66.196  1.00  0.00    -0.194 A  
HETATM    8  N   UNL     1      -8.237  12.533  67.963  1.00  0.00    -0.156 N  
HETATM    9  C   UNL     1      -7.147  13.369  68.351  1.00  0.00    -0.108 C  
HETATM   10  C   UNL     1     -10.659  14.109  65.525  1.00  0.00    -0.335 A  
HETATM   11  C   UNL     1      -8.482  11.219  68.400  1.00  0.00    -0.153 A  
HETATM   12  C   UNL     1      -9.717  10.802  67.913  1.00  0.00    -0.181 A  
HETATM   13  O   UNL     1      -6.115  12.820  68.723  1.00  0.00    -0.064 OA 
HETATM   14  C   UNL     1      -7.590  10.456  69.333  1.00  0.00    -0.140 C  
BRANCH   9  15
HETATM   15  C   UNL     1      -7.135  14.862  68.317  1.00  0.00    -0.112 A  
HETATM   16  C   UNL     1      -6.226  15.499  67.459  1.00  0.00    -0.141 A  
HETATM   17  C   UNL     1      -7.985  15.640  69.113  1.00  0.00    -0.227 A  
HETATM   18  C   UNL     1      -8.031  17.027  68.937  1.00  0.00    -0.217 A  
HETATM   19 CL   UNL     1      -7.305  19.333  67.734  1.00  0.00    -0.277 Cl 
HETATM   20  C   UNL     1      -7.185  17.641  68.014  1.00  0.00    -0.216 A  
HETATM   21  C   UNL     1      -6.254  16.887  67.303  1.00  0.00    -0.198 A  
ENDBRANCH   9  15
BRANCH  12  22
HETATM   22  C   UNL     1     -10.418   9.499  68.208  1.00  0.00    -0.265 C  
HETATM   23  O   UNL     1      -9.499   8.557  66.133  1.00  0.00    -0.218 OA 
HETATM   24  C   UNL     1     -10.345   8.394  67.168  1.00  0.00    -0.311 C  
HETATM   25  O   UNL     1     -11.021   7.376  67.271  1.00  0.00    -0.280 OA 
ENDBRANCH  12  22
ENDBRANCH   2   3
TORSDOF 3
ENDMDL
MODEL       70
REMARK 921   NORMALIZED FREE ENERGY PREDICTED BY IDOCK:   -4.59 KCAL/MOL
REMARK 922        TOTAL FREE ENERGY PREDICTED BY IDOCK:   -6.33 KCAL/MOL
REMARK 923 INTER-LIGAND FREE ENERGY PREDICTED BY IDOCK:   -5.43 KCAL/MOL
REMARK 924 INTRA-LIGAND FREE ENERGY PREDICTED BY IDOCK:   -0.90 KCAL/MOL
REMARK 927      BINDING AFFINITY PREDICTED BY RF-SCORE:    0.00 PKD
ROOT
HETATM    1  C   UNL     1      -9.883  13.011  67.572  1.00  0.00    -0.209 C  
HETATM    2  O   UNL     1     -10.973  12.138  67.293  1.00  0.00    -0.237 OA 
ENDROOT
BRANCH   2   3
HETATM    3  C   UNL     1     -10.877  10.862  67.776  1.00  0.00    -0.259 A  
HETATM    4  C   UNL     1     -11.228  10.456  69.063  1.00  0.00    -0.289 A  
HETATM    5  C   UNL     1     -11.055   9.109  69.458  1.00  0.00    -0.068 A  
HETATM    6  C   UNL     1     -10.492   8.196  68.565  1.00  0.00    -0.162 A  
HETATM    7  C   UNL     1     -10.233   8.579  67.234  1.00  0.00    -0.346 A  
HETATM    8  N   UNL     1     -10.290   6.986  69.252  1.00  0.00    -0.194 N  
HETATM    9  C   UNL     1      -9.562   5.854  68.774  1.00  0.00    -0.128 C  
HETATM   10  C   UNL     1     -10.404   9.921  66.871  1.00  0.00    -0.300 A  
HETATM   11  C   UNL     1     -10.941   7.100  70.493  1.00  0.00    -0.262 A  
HETATM   12  C   UNL     1     -11.405   8.404  70.643  1.00  0.00    -0.262 A  
HETATM   13  O   UNL     1      -9.861   4.754  69.227  1.00  0.00    -0.181 OA 
HETATM   14  C   UNL     1     -11.011   6.007  71.517  1.00  0.00    -0.335 C  
BRANCH   9  15
HETATM   15  C   UNL     1      -8.481   5.880  67.745  1.00  0.00    -0.107 A  
HETATM   16  C   UNL     1      -8.725   5.261  66.510  1.00  0.00    -0.115 A  
HETATM   17  C   UNL     1      -7.239   6.488  67.972  1.00  0.00    -0.088 A  
HETATM   18  C   UNL     1      -6.319   6.609  66.925  1.00  0.00    -0.042 A  
HETATM   19 CL   UNL     1      -5.519   6.294  64.365  1.00  0.00    -0.018 Cl 
HETATM   20  C   UNL     1      -6.611   6.068  65.674  1.00  0.00    -0.047 A  
HETATM   21  C   UNL     1      -7.794   5.360  65.472  1.00  0.00    -0.098 A  
ENDBRANCH   9  15
BRANCH  12  22
HETATM   22  C   UNL     1     -12.081   8.994  71.855  1.00  0.00    -0.448 C  
HETATM   23  O   UNL     1     -14.170   7.871  71.213  1.00  0.00    -0.345 OA 
HETATM   24  C   UNL     1     -13.571   8.757  72.033  1.00  0.00    -0.427 C  
HETATM   25  O   UNL     1     -14.210   9.338  72.903  1.00  0.00    -0.465 OA 
ENDBRANCH  12  22
ENDBRANCH   2   3
TORSDOF 3
ENDMDL
MODEL       71
REMARK 921   NORMALIZED FREE ENERGY PREDICTED BY IDOCK:   -4.56 KCAL/MOL
REMARK 922        TOTAL FREE ENERGY PREDICTED BY IDOCK:   -6.29 KCAL/MOL
REMARK 923 INTER-LIGAND FREE ENERGY PREDICTED BY IDOCK:   -5.85 KCAL/MOL
REMARK 924 INTRA-LIGAND FREE ENERGY PREDICTED BY IDOCK:   -0.45 KCAL/MOL
REMARK 927      BINDING AFFINITY PREDICTED BY RF-SCORE:    0.00 PKD
ROOT
HETATM    1  C   UNL     1      -6.036  10.892  66.296  1.00  0.00    -0.139 C  
HETATM    2  O   UNL     1      -6.082   9.661  67.012  1.00  0.00    -0.061 OA 
ENDROOT
BRANCH   2   3
HETATM    3  C   UNL     1      -7.202   9.430  67.763  1.00  0.00    -0.083 A  
HETATM    4  C   UNL     1      -7.821   8.192  67.929  1.00  0.00    -0.122 A  
HETATM    5  C   UNL     1      -8.996   8.081  68.708  1.00  0.00    -0.141 A  
HETATM    6  C   UNL     1      -9.556   9.226  69.276  1.00  0.00    -0.161 A  
HETATM    7  C   UNL     1      -8.877  10.458  69.196  1.00  0.00    -0.180 A  
HETATM    8  N   UNL     1     -10.785   8.865  69.857  1.00  0.00    -0.228 N  
HETATM    9  C   UNL     1     -11.772   9.760  70.372  1.00  0.00    -0.231 C  
HETATM   10  C   UNL     1      -7.721  10.542  68.410  1.00  0.00    -0.104 A  
HETATM   11  C   UNL     1     -10.856   7.461  69.838  1.00  0.00    -0.246 A  
HETATM   12  C   UNL     1      -9.771   6.962  69.123  1.00  0.00    -0.155 A  
HETATM   13  O   UNL     1     -12.522   9.336  71.246  1.00  0.00    -0.310 OA 
HETATM   14  C   UNL     1     -11.989   6.662  70.409  1.00  0.00    -0.342 C  
BRANCH   9  15
HETATM   15  C   UNL     1     -11.959  11.184  69.965  1.00  0.00    -0.447 A  
HETATM   16  C   UNL     1     -12.311  12.116  70.953  1.00  0.00    -0.370 A  
HETATM   17  C   UNL     1     -11.805  11.615  68.640  1.00  0.00    -0.370 A  
HETATM   18  C   UNL     1     -11.851  12.980  68.341  1.00  0.00    -0.370 A  
HETATM   19 CL   UNL     1     -12.080  15.590  68.997  1.00  0.00    -0.304 Cl 
HETATM   20  C   UNL     1     -12.112  13.907  69.349  1.00  0.00    -0.337 A  
HETATM   21  C   UNL     1     -12.382  13.478  70.647  1.00  0.00    -0.432 A  
ENDBRANCH   9  15
BRANCH  12  22
HETATM   22  C   UNL     1      -9.497   5.520  68.775  1.00  0.00    -0.163 C  
HETATM   23  O   UNL     1     -10.378   5.918  66.516  1.00  0.00    -0.204 OA 
HETATM   24  C   UNL     1      -9.943   5.013  67.414  1.00  0.00    -0.177 C  
HETATM   25  O   UNL     1      -9.897   3.821  67.131  1.00  0.00    -0.175 OA 
ENDBRANCH  12  22
ENDBRANCH   2   3
TORSDOF 3
ENDMDL
MODEL       72
REMARK 921   NORMALIZED FREE ENERGY PREDICTED BY IDOCK:   -4.55 KCAL/MOL
REMARK 922        TOTAL FREE ENERGY PREDICTED BY IDOCK:   -6.29 KCAL/MOL
REMARK 923 INTER-LIGAND FREE ENERGY PREDICTED BY IDOCK:   -5.56 KCAL/MOL
REMARK 924 INTRA-LIGAND FREE ENERGY PREDICTED BY IDOCK:   -0.72 KCAL/MOL
REMARK 927      BINDING AFFINITY PREDICTED BY RF-SCORE:    0.00 PKD
ROOT
HETATM    1  C   UNL     1     -10.653  12.822  65.673  1.00  0.00    -0.275 C  
HETATM    2  O   UNL     1     -10.791  11.470  65.245  1.00  0.00    -0.287 OA 
ENDROOT
BRANCH   2   3
HETATM    3  C   UNL     1     -10.242  10.512  66.053  1.00  0.00    -0.245 A  
HETATM    4  C   UNL     1      -9.407   9.480  65.629  1.00  0.00    -0.302 A  
HETATM    5  C   UNL     1      -8.922   8.528  66.555  1.00  0.00    -0.194 A  
HETATM    6  C   UNL     1      -9.319   8.603  67.891  1.00  0.00    -0.142 A  
HETATM    7  C   UNL     1     -10.078   9.702  68.341  1.00  0.00    -0.199 A  
HETATM    8  N   UNL     1      -8.829   7.464  68.555  1.00  0.00    -0.127 N  
HETATM    9  C   UNL     1      -9.166   7.046  69.878  1.00  0.00    -0.144 C  
HETATM   10  C   UNL     1     -10.553  10.625  67.401  1.00  0.00    -0.304 A  
HETATM   11  C   UNL     1      -7.945   6.819  67.672  1.00  0.00    -0.113 A  
HETATM   12  C   UNL     1      -8.000   7.451  66.433  1.00  0.00    -0.108 A  
HETATM   13  O   UNL     1      -8.346   6.361  70.483  1.00  0.00    -0.125 OA 
HETATM   14  C   UNL     1      -7.165   5.583  68.006  1.00  0.00    -0.072 C  
BRANCH   9  15
HETATM   15  C   UNL     1     -10.419   7.390  70.611  1.00  0.00    -0.224 A  
HETATM   16  C   UNL     1     -10.417   8.530  71.430  1.00  0.00    -0.305 A  
HETATM   17  C   UNL     1     -11.584   6.617  70.518  1.00  0.00    -0.448 A  
HETATM   18  C   UNL     1     -12.769   7.064  71.111  1.00  0.00    -0.361 A  
HETATM   19 CL   UNL     1     -14.250   8.843  72.503  1.00  0.00    -0.485 Cl 
HETATM   20  C   UNL     1     -12.775   8.248  71.849  1.00  0.00    -0.342 A  
HETATM   21  C   UNL     1     -11.595   8.962  72.045  1.00  0.00    -0.435 A  
ENDBRANCH   9  15
BRANCH  12  22
HETATM   22  C   UNL     1      -7.288   7.038  65.169  1.00  0.00    -0.081 C  
HETATM   23  O   UNL     1      -9.023   5.346  64.767  1.00  0.00    -0.089 OA 
HETATM   24  C   UNL     1      -7.828   5.847  64.397  1.00  0.00    -0.112 C  
HETATM   25  O   UNL     1      -7.208   5.361  63.457  1.00  0.00    -0.046 OA 
ENDBRANCH  12  22
ENDBRANCH   2   3
TORSDOF 3
ENDMDL
MODEL       73
REMARK 921   NORMALIZED FREE ENERGY PREDICTED BY IDOCK:   -4.51 KCAL/MOL
REMARK 922        TOTAL FREE ENERGY PREDICTED BY IDOCK:   -6.23 KCAL/MOL
REMARK 923 INTER-LIGAND FREE ENERGY PREDICTED BY IDOCK:   -5.52 KCAL/MOL
REMARK 924 INTRA-LIGAND FREE ENERGY PREDICTED BY IDOCK:   -0.71 KCAL/MOL
REMARK 927      BINDING AFFINITY PREDICTED BY RF-SCORE:    0.00 PKD
ROOT
HETATM    1  C   UNL     1      -5.937   9.020  71.308  1.00  0.00    -0.059 C  
HETATM    2  O   UNL     1      -7.164   8.345  71.048  1.00  0.00    -0.052 OA 
ENDROOT
BRANCH   2   3
HETATM    3  C   UNL     1      -8.004   8.927  70.139  1.00  0.00    -0.111 A  
HETATM    4  C   UNL     1      -7.892   8.823  68.753  1.00  0.00    -0.101 A  
HETATM    5  C   UNL     1      -8.806   9.497  67.911  1.00  0.00    -0.119 A  
HETATM    6  C   UNL     1      -9.798  10.302  68.475  1.00  0.00    -0.164 A  
HETATM    7  C   UNL     1      -9.977  10.326  69.873  1.00  0.00    -0.183 A  
HETATM    8  N   UNL     1     -10.461  10.970  67.430  1.00  0.00    -0.206 N  
HETATM    9  C   UNL     1     -11.406  12.031  67.571  1.00  0.00    -0.319 C  
HETATM   10  C   UNL     1      -9.051   9.658  70.684  1.00  0.00    -0.126 A  
HETATM   11  C   UNL     1     -10.020  10.395  66.225  1.00  0.00    -0.226 A  
HETATM   12  C   UNL     1      -8.993   9.497  66.501  1.00  0.00    -0.173 A  
HETATM   13  O   UNL     1     -12.230  12.180  66.674  1.00  0.00    -0.566 OA 
HETATM   14  C   UNL     1     -10.519  10.786  64.867  1.00  0.00    -0.324 C  
BRANCH   9  15
HETATM   15  C   UNL     1     -11.504  12.967  68.730  1.00  0.00    -0.340 A  
HETATM   16  C   UNL     1     -10.690  14.110  68.730  1.00  0.00    -0.265 A  
HETATM   17  C   UNL     1     -12.366  12.740  69.810  1.00  0.00    -0.096 A  
HETATM   18  C   UNL     1     -12.522  13.719  70.797  1.00  0.00    -0.441 A  
HETATM   19 CL   UNL     1     -12.029  16.134  71.901  1.00  0.00    -0.578 Cl 
HETATM   20  C   UNL     1     -11.773  14.893  70.738  1.00  0.00    -0.311 A  
HETATM   21  C   UNL     1     -10.828  15.076  69.731  1.00  0.00    -0.277 A  
ENDBRANCH   9  15
BRANCH  12  22
HETATM   22  C   UNL     1      -8.169   8.723  65.501  1.00  0.00    -0.133 C  
HETATM   23  O   UNL     1      -9.354   6.669  66.143  1.00  0.00    -0.146 OA 
HETATM   24  C   UNL     1      -8.340   7.215  65.444  1.00  0.00    -0.118 C  
HETATM   25  O   UNL     1      -7.591   6.513  64.773  1.00  0.00    -0.084 OA 
ENDBRANCH  12  22
ENDBRANCH   2   3
TORSDOF 3
ENDMDL
MODEL       74
REMARK 921   NORMALIZED FREE ENERGY PREDICTED BY IDOCK:   -4.46 KCAL/MOL
REMARK 922        TOTAL FREE ENERGY PREDICTED BY IDOCK:   -6.17 KCAL/MOL
REMARK 923 INTER-LIGAND FREE ENERGY PREDICTED BY IDOCK:   -5.40 KCAL/MOL
REMARK 924 INTRA-LIGAND FREE ENERGY PREDICTED BY IDOCK:   -0.77 KCAL/MOL
REMARK 927      BINDING AFFINITY PREDICTED BY RF-SCORE:    0.00 PKD
ROOT
HETATM    1  C   UNL     1     -11.914  13.616  68.655  1.00  0.00    -0.360 C  
HETATM    2  O   UNL     1     -12.106  12.385  69.345  1.00  0.00    -0.265 OA 
ENDROOT
BRANCH   2   3
HETATM    3  C   UNL     1     -11.344  11.326  68.933  1.00  0.00    -0.275 A  
HETATM    4  C   UNL     1     -11.073  10.993  67.607  1.00  0.00    -0.363 A  
HETATM    5  C   UNL     1     -10.294   9.853  67.303  1.00  0.00    -0.303 A  
HETATM    6  C   UNL     1      -9.831   9.038  68.337  1.00  0.00    -0.166 A  
HETATM    7  C   UNL     1     -10.015   9.429  69.679  1.00  0.00    -0.209 A  
HETATM    8  N   UNL     1      -9.227   7.906  67.762  1.00  0.00    -0.137 N  
HETATM    9  C   UNL     1      -8.798   6.733  68.454  1.00  0.00    -0.122 C  
HETATM   10  C   UNL     1     -10.799  10.556  69.952  1.00  0.00    -0.334 A  
HETATM   11  C   UNL     1      -9.124   8.149  66.380  1.00  0.00    -0.183 A  
HETATM   12  C   UNL     1      -9.787   9.335  66.078  1.00  0.00    -0.363 A  
HETATM   13  O   UNL     1      -7.895   6.074  67.948  1.00  0.00    -0.102 OA 
HETATM   14  C   UNL     1      -8.491   7.208  65.400  1.00  0.00    -0.090 C  
BRANCH   9  15
HETATM   15  C   UNL     1      -9.330   6.245  69.760  1.00  0.00    -0.152 A  
HETATM   16  C   UNL     1      -8.446   6.162  70.847  1.00  0.00    -0.128 A  
HETATM   17  C   UNL     1     -10.666   5.862  69.934  1.00  0.00    -0.406 A  
HETATM   18  C   UNL     1     -11.143   5.550  71.212  1.00  0.00    -0.134 A  
HETATM   19 CL   UNL     1     -10.877   5.262  73.884  1.00  0.00    -0.318 Cl 
HETATM   20  C   UNL     1     -10.273   5.559  72.301  1.00  0.00    -0.199 A  
HETATM   21  C   UNL     1      -8.918   5.824  72.118  1.00  0.00    -0.137 A  
ENDBRANCH   9  15
BRANCH  12  22
HETATM   22  C   UNL     1     -10.006   9.931  64.710  1.00  0.00    -0.132 C  
HETATM   23  O   UNL     1      -7.606  10.440  64.569  1.00  0.00    -0.126 OA 
HETATM   24  C   UNL     1      -8.826  10.593  64.018  1.00  0.00    -0.164 C  
HETATM   25  O   UNL     1      -8.971  11.234  62.983  1.00  0.00    -0.237 OA 
ENDBRANCH  12  22
ENDBRANCH   2   3
TORSDOF 3
ENDMDL
MODEL       75
REMARK 921   NORMALIZED FREE ENERGY PREDICTED BY IDOCK:   -4.42 KCAL/MOL
REMARK 922        TOTAL FREE ENERGY PREDICTED BY IDOCK:   -6.13 KCAL/MOL
REMARK 923 INTER-LIGAND FREE ENERGY PREDICTED BY IDOCK:   -5.16 KCAL/MOL
REMARK 924 INTRA-LIGAND FREE ENERGY PREDICTED BY IDOCK:   -0.97 KCAL/MOL
REMARK 927      BINDING AFFINITY PREDICTED BY RF-SCORE:    0.00 PKD
ROOT
HETATM    1  C   UNL     1     -12.006  13.630  67.278  1.00  0.00    -0.381 C  
HETATM    2  O   UNL     1     -12.018  12.783  68.423  1.00  0.00    -0.319 OA 
ENDROOT
BRANCH   2   3
HETATM    3  C   UNL     1     -11.504  11.525  68.262  1.00  0.00    -0.299 A  
HETATM    4  C   UNL     1     -11.523  10.516  69.224  1.00  0.00    -0.323 A  
HETATM    5  C   UNL     1     -10.932   9.261  68.951  1.00  0.00    -0.050 A  
HETATM    6  C   UNL     1     -10.294   9.050  67.728  1.00  0.00    -0.246 A  
HETATM    7  C   UNL     1     -10.364  10.031  66.718  1.00  0.00    -0.283 A  
HETATM    8  N   UNL     1      -9.666   7.793  67.776  1.00  0.00    -0.148 N  
HETATM    9  C   UNL     1      -8.746   7.270  66.817  1.00  0.00    -0.130 C  
HETATM   10  C   UNL     1     -10.946  11.269  67.017  1.00  0.00    -0.352 A  
HETATM   11  C   UNL     1     -10.117   7.149  68.942  1.00  0.00    -0.177 A  
HETATM   12  C   UNL     1     -10.885   8.042  69.684  1.00  0.00    -0.172 A  
HETATM   13  O   UNL     1      -8.661   6.050  66.718  1.00  0.00    -0.116 OA 
HETATM   14  C   UNL     1      -9.725   5.761  69.349  1.00  0.00    -0.200 C  
BRANCH   9  15
HETATM   15  C   UNL     1      -7.891   8.076  65.896  1.00  0.00    -0.099 A  
HETATM   16  C   UNL     1      -8.138   7.990  64.517  1.00  0.00    -0.132 A  
HETATM   17  C   UNL     1      -6.855   8.899  66.356  1.00  0.00    -0.075 A  
HETATM   18  C   UNL     1      -6.182   9.739  65.463  1.00  0.00    -0.074 A  
HETATM   19 CL   UNL     1      -5.734  10.807  63.023  1.00  0.00    -0.131 Cl 
HETATM   20  C   UNL     1      -6.499   9.711  64.106  1.00  0.00    -0.111 A  
HETATM   21  C   UNL     1      -7.447   8.812  63.622  1.00  0.00    -0.108 A  
ENDBRANCH   9  15
BRANCH  12  22
HETATM   22  C   UNL     1     -11.492   7.805  71.044  1.00  0.00    -0.298 C  
HETATM   23  O   UNL     1      -9.484   8.764  72.085  1.00  0.00    -0.301 OA 
HETATM   24  C   UNL     1     -10.649   8.113  72.270  1.00  0.00    -0.309 C  
HETATM   25  O   UNL     1     -11.018   7.795  73.395  1.00  0.00    -0.327 OA 
ENDBRANCH  12  22
ENDBRANCH   2   3
TORSDOF 3
ENDMDL
MODEL       76
REMARK 921   NORMALIZED FREE ENERGY PREDICTED BY IDOCK:   -4.41 KCAL/MOL
REMARK 922        TOTAL FREE ENERGY PREDICTED BY IDOCK:   -6.12 KCAL/MOL
REMARK 923 INTER-LIGAND FREE ENERGY PREDICTED BY IDOCK:   -5.33 KCAL/MOL
REMARK 924 INTRA-LIGAND FREE ENERGY PREDICTED BY IDOCK:   -0.79 KCAL/MOL
REMARK 927      BINDING AFFINITY PREDICTED BY RF-SCORE:    0.00 PKD
ROOT
HETATM    1  C   UNL     1      -9.781   4.285  64.976  1.00  0.00    -0.189 C  
HETATM    2  O   UNL     1     -10.851   4.865  65.716  1.00  0.00    -0.262 OA 
ENDROOT
BRANCH   2   3
HETATM    3  C   UNL     1     -10.523   5.470  66.898  1.00  0.00    -0.287 A  
HETATM    4  C   UNL     1     -10.492   4.846  68.144  1.00  0.00     0.054 A  
HETATM    5  C   UNL     1     -10.164   5.585  69.304  1.00  0.00    -0.315 A  
HETATM    6  C   UNL     1      -9.912   6.953  69.201  1.00  0.00    -0.162 A  
HETATM    7  C   UNL     1      -9.841   7.564  67.933  1.00  0.00    -0.185 A  
HETATM    8  N   UNL     1      -9.770   7.468  70.502  1.00  0.00    -0.179 N  
HETATM    9  C   UNL     1      -9.697   8.848  70.862  1.00  0.00    -0.239 C  
HETATM   10  C   UNL     1     -10.180   6.812  66.801  1.00  0.00    -0.273 A  
HETATM   11  C   UNL     1      -9.709   6.370  71.378  1.00  0.00    -0.172 A  
HETATM   12  C   UNL     1      -9.964   5.204  70.661  1.00  0.00    -0.296 A  
HETATM   13  O   UNL     1      -9.111   9.134  71.901  1.00  0.00    -0.354 OA 
HETATM   14  C   UNL     1      -9.511   6.477  72.860  1.00  0.00    -0.151 C  
BRANCH   9  15
HETATM   15  C   UNL     1     -10.248   9.988  70.071  1.00  0.00    -0.306 A  
HETATM   16  C   UNL     1      -9.372  10.703  69.240  1.00  0.00    -0.136 A  
HETATM   17  C   UNL     1     -11.594  10.370  70.137  1.00  0.00    -0.392 A  
HETATM   18  C   UNL     1     -12.086  11.351  69.269  1.00  0.00    -0.356 A  
HETATM   19 CL   UNL     1     -11.842  13.133  67.254  1.00  0.00    -0.420 Cl 
HETATM   20  C   UNL     1     -11.222  11.992  68.382  1.00  0.00    -0.262 A  
HETATM   21  C   UNL     1      -9.860  11.701  68.391  1.00  0.00    -0.202 A  
ENDBRANCH   9  15
BRANCH  12  22
HETATM   22  C   UNL     1     -10.087   3.806  71.213  1.00  0.00    -0.062 C  
HETATM   23  O   UNL     1      -7.638   3.654  71.325  1.00  0.00    -0.046 OA 
HETATM   24  C   UNL     1      -8.815   3.008  71.439  1.00  0.00    -0.081 C  
HETATM   25  O   UNL     1      -8.851   1.818  71.731  1.00  0.00    -0.058 OA 
ENDBRANCH  12  22
ENDBRANCH   2   3
TORSDOF 3
ENDMDL
MODEL       77
REMARK 921   NORMALIZED FREE ENERGY PREDICTED BY IDOCK:   -4.41 KCAL/MOL
REMARK 922        TOTAL FREE ENERGY PREDICTED BY IDOCK:   -6.11 KCAL/MOL
REMARK 923 INTER-LIGAND FREE ENERGY PREDICTED BY IDOCK:   -5.21 KCAL/MOL
REMARK 924 INTRA-LIGAND FREE ENERGY PREDICTED BY IDOCK:   -0.90 KCAL/MOL
REMARK 927      BINDING AFFINITY PREDICTED BY RF-SCORE:    0.00 PKD
ROOT
HETATM    1  C   UNL     1     -10.137   4.276  65.261  1.00  0.00    -0.218 C  
HETATM    2  O   UNL     1     -11.026   4.961  66.139  1.00  0.00    -0.220 OA 
ENDROOT
BRANCH   2   3
HETATM    3  C   UNL     1     -10.456   5.789  67.067  1.00  0.00    -0.280 A  
HETATM    4  C   UNL     1     -10.433   5.567  68.443  1.00  0.00    -0.227 A  
HETATM    5  C   UNL     1      -9.837   6.513  69.308  1.00  0.00    -0.161 A  
HETATM    6  C   UNL     1      -9.308   7.692  68.781  1.00  0.00    -0.148 A  
HETATM    7  C   UNL     1      -9.237   7.871  67.385  1.00  0.00    -0.160 A  
HETATM    8  N   UNL     1      -8.925   8.515  69.855  1.00  0.00    -0.143 N  
HETATM    9  C   UNL     1      -8.521   9.882  69.771  1.00  0.00    -0.192 C  
HETATM   10  C   UNL     1      -9.843   6.923  66.551  1.00  0.00    -0.168 A  
HETATM   11  C   UNL     1      -9.014   7.738  71.024  1.00  0.00    -0.142 A  
HETATM   12  C   UNL     1      -9.586   6.509  70.709  1.00  0.00    -0.190 A  
HETATM   13  O   UNL     1      -7.783  10.311  70.653  1.00  0.00    -0.098 OA 
HETATM   14  C   UNL     1      -8.647   8.224  72.394  1.00  0.00    -0.270 C  
BRANCH   9  15
HETATM   15  C   UNL     1      -8.890  10.837  68.685  1.00  0.00    -0.152 A  
HETATM   16  C   UNL     1     -10.227  11.254  68.595  1.00  0.00    -0.214 A  
HETATM   17  C   UNL     1      -7.958  11.321  67.758  1.00  0.00    -0.117 A  
HETATM   18  C   UNL     1      -8.327  12.323  66.854  1.00  0.00    -0.137 A  
HETATM   19 CL   UNL     1     -10.070  14.086  65.784  1.00  0.00    -0.335 Cl 
HETATM   20  C   UNL     1      -9.639  12.794  66.834  1.00  0.00    -0.235 A  
HETATM   21  C   UNL     1     -10.601  12.236  67.673  1.00  0.00    -0.238 A  
ENDBRANCH   9  15
BRANCH  12  22
HETATM   22  C   UNL     1      -9.952   5.404  71.668  1.00  0.00    -0.239 C  
HETATM   23  O   UNL     1     -12.079   6.540  72.136  1.00  0.00    -0.315 OA 
HETATM   24  C   UNL     1     -11.236   5.542  72.467  1.00  0.00    -0.274 C  
HETATM   25  O   UNL     1     -11.510   4.765  73.375  1.00  0.00    -0.338 OA 
ENDBRANCH  12  22
ENDBRANCH   2   3
TORSDOF 3
ENDMDL
MODEL       78
REMARK 921   NORMALIZED FREE ENERGY PREDICTED BY IDOCK:   -4.39 KCAL/MOL
REMARK 922        TOTAL FREE ENERGY PREDICTED BY IDOCK:   -6.09 KCAL/MOL
REMARK 923 INTER-LIGAND FREE ENERGY PREDICTED BY IDOCK:   -5.16 KCAL/MOL
REMARK 924 INTRA-LIGAND FREE ENERGY PREDICTED BY IDOCK:   -0.93 KCAL/MOL
REMARK 927      BINDING AFFINITY PREDICTED BY RF-SCORE:    0.00 PKD
ROOT
HETATM    1  C   UNL     1     -10.527   5.183  66.624  1.00  0.00    -0.275 C  
HETATM    2  O   UNL     1     -11.050   6.123  67.559  1.00  0.00    -0.330 OA 
ENDROOT
BRANCH   2   3
HETATM    3  C   UNL     1     -10.276   7.218  67.827  1.00  0.00    -0.195 A  
HETATM    4  C   UNL     1      -9.343   7.315  68.858  1.00  0.00    -0.144 A  
HETATM    5  C   UNL     1      -8.620   8.514  69.055  1.00  0.00    -0.130 A  
HETATM    6  C   UNL     1      -8.875   9.615  68.237  1.00  0.00    -0.120 A  
HETATM    7  C   UNL     1      -9.740   9.487  67.132  1.00  0.00    -0.221 A  
HETATM    8  N   UNL     1      -8.146  10.708  68.739  1.00  0.00    -0.130 N  
HETATM    9  C   UNL     1      -8.268  12.068  68.324  1.00  0.00    -0.161 C  
HETATM   10  C   UNL     1     -10.451   8.292  66.965  1.00  0.00    -0.384 A  
HETATM   11  C   UNL     1      -7.275  10.207  69.723  1.00  0.00    -0.141 A  
HETATM   12  C   UNL     1      -7.562   8.863  69.941  1.00  0.00    -0.063 A  
HETATM   13  O   UNL     1      -7.292  12.797  68.473  1.00  0.00    -0.107 OA 
HETATM   14  C   UNL     1      -6.282  11.039  70.479  1.00  0.00    -0.053 C  
BRANCH   9  15
HETATM   15  C   UNL     1      -9.472  12.685  67.693  1.00  0.00    -0.189 A  
HETATM   16  C   UNL     1      -9.379  13.107  66.358  1.00  0.00    -0.188 A  
HETATM   17  C   UNL     1     -10.677  12.864  68.385  1.00  0.00    -0.273 A  
HETATM   18  C   UNL     1     -11.813  13.314  67.705  1.00  0.00    -0.400 A  
HETATM   19 CL   UNL     1     -13.146  14.113  65.496  1.00  0.00    -0.355 Cl 
HETATM   20  C   UNL     1     -11.730  13.645  66.353  1.00  0.00    -0.373 A  
HETATM   21  C   UNL     1     -10.509  13.581  65.686  1.00  0.00    -0.296 A  
ENDBRANCH   9  15
BRANCH  12  22
HETATM   22  C   UNL     1      -6.936   7.955  70.970  1.00  0.00    -0.049 C  
HETATM   23  O   UNL     1      -8.534   8.783  72.643  1.00  0.00    -0.413 OA 
HETATM   24  C   UNL     1      -7.432   8.046  72.403  1.00  0.00    -0.109 C  
HETATM   25  O   UNL     1      -6.861   7.457  73.315  1.00  0.00    -0.064 OA 
ENDBRANCH  12  22
ENDBRANCH   2   3
TORSDOF 3
ENDMDL
MODEL       79
REMARK 921   NORMALIZED FREE ENERGY PREDICTED BY IDOCK:   -4.30 KCAL/MOL
REMARK 922        TOTAL FREE ENERGY PREDICTED BY IDOCK:   -5.98 KCAL/MOL
REMARK 923 INTER-LIGAND FREE ENERGY PREDICTED BY IDOCK:   -5.12 KCAL/MOL
REMARK 924 INTRA-LIGAND FREE ENERGY PREDICTED BY IDOCK:   -0.86 KCAL/MOL
REMARK 927      BINDING AFFINITY PREDICTED BY RF-SCORE:    0.00 PKD
ROOT
HETATM    1  C   UNL     1     -11.803  13.432  67.067  1.00  0.00    -0.394 C  
HETATM    2  O   UNL     1     -12.065  12.312  67.908  1.00  0.00    -0.466 OA 
ENDROOT
BRANCH   2   3
HETATM    3  C   UNL     1     -11.179  11.271  67.836  1.00  0.00    -0.290 A  
HETATM    4  C   UNL     1     -10.612  10.772  66.665  1.00  0.00    -0.291 A  
HETATM    5  C   UNL     1      -9.729   9.669  66.714  1.00  0.00    -0.252 A  
HETATM    6  C   UNL     1      -9.460   9.056  67.938  1.00  0.00    -0.141 A  
HETATM    7  C   UNL     1      -9.949   9.621  69.133  1.00  0.00    -0.189 A  
HETATM    8  N   UNL     1      -8.689   7.907  67.689  1.00  0.00    -0.126 N  
HETATM    9  C   UNL     1      -8.360   6.887  68.633  1.00  0.00    -0.121 C  
HETATM   10  C   UNL     1     -10.829  10.708  69.056  1.00  0.00    -0.277 A  
HETATM   11  C   UNL     1      -8.302   7.953  66.338  1.00  0.00    -0.129 A  
HETATM   12  C   UNL     1      -8.943   9.023  65.719  1.00  0.00    -0.242 A  
HETATM   13  O   UNL     1      -7.337   6.239  68.436  1.00  0.00    -0.082 OA 
HETATM   14  C   UNL     1      -7.426   6.936  65.672  1.00  0.00    -0.085 C  
BRANCH   9  15
HETATM   15  C   UNL     1      -9.136   6.552  69.864  1.00  0.00    -0.143 A  
HETATM   16  C   UNL     1     -10.423   6.015  69.711  1.00  0.00    -0.320 A  
HETATM   17  C   UNL     1      -8.631   6.763  71.153  1.00  0.00    -0.132 A  
HETATM   18  C   UNL     1      -9.340   6.299  72.266  1.00  0.00    -0.146 A  
HETATM   19 CL   UNL     1     -11.410   5.035  73.454  1.00  0.00    -0.393 Cl 
HETATM   20  C   UNL     1     -10.580   5.684  72.095  1.00  0.00    -0.223 A  
HETATM   21  C   UNL     1     -11.143   5.575  70.825  1.00  0.00    -0.101 A  
ENDBRANCH   9  15
BRANCH  12  22
HETATM   22  C   UNL     1      -8.891   9.392  64.257  1.00  0.00    -0.220 C  
HETATM   23  O   UNL     1      -6.684  10.410  64.613  1.00  0.00    -0.109 OA 
HETATM   24  C   UNL     1      -7.715  10.219  63.767  1.00  0.00    -0.100 C  
HETATM   25  O   UNL     1      -7.692  10.687  62.634  1.00  0.00    -0.148 OA 
ENDBRANCH  12  22
ENDBRANCH   2   3
TORSDOF 3
ENDMDL
MODEL       80
REMARK 921   NORMALIZED FREE ENERGY PREDICTED BY IDOCK:   -4.22 KCAL/MOL
REMARK 922        TOTAL FREE ENERGY PREDICTED BY IDOCK:   -5.89 KCAL/MOL
REMARK 923 INTER-LIGAND FREE ENERGY PREDICTED BY IDOCK:   -5.09 KCAL/MOL
REMARK 924 INTRA-LIGAND FREE ENERGY PREDICTED BY IDOCK:   -0.81 KCAL/MOL
REMARK 927      BINDING AFFINITY PREDICTED BY RF-SCORE:    0.00 PKD
ROOT
HETATM    1  C   UNL     1      -9.612   4.260  66.984  1.00  0.00    -0.203 C  
HETATM    2  O   UNL     1     -10.290   5.272  67.723  1.00  0.00    -0.178 OA 
ENDROOT
BRANCH   2   3
HETATM    3  C   UNL     1      -9.697   6.504  67.762  1.00  0.00    -0.122 A  
HETATM    4  C   UNL     1      -8.979   7.022  68.839  1.00  0.00    -0.129 A  
HETATM    5  C   UNL     1      -8.435   8.325  68.773  1.00  0.00    -0.125 A  
HETATM    6  C   UNL     1      -8.655   9.107  67.639  1.00  0.00    -0.117 A  
HETATM    7  C   UNL     1      -9.290   8.551  66.510  1.00  0.00    -0.260 A  
HETATM    8  N   UNL     1      -8.148  10.394  67.893  1.00  0.00    -0.102 N  
HETATM    9  C   UNL     1      -8.338  11.553  67.081  1.00  0.00    -0.160 C  
HETATM   10  C   UNL     1      -9.828   7.261  66.606  1.00  0.00    -0.257 A  
HETATM   11  C   UNL     1      -7.419  10.322  69.094  1.00  0.00    -0.105 A  
HETATM   12  C   UNL     1      -7.596   9.061  69.656  1.00  0.00    -0.077 A  
HETATM   13  O   UNL     1      -7.487  12.436  67.145  1.00  0.00    -0.148 OA 
HETATM   14  C   UNL     1      -6.673  11.471  69.702  1.00  0.00    -0.083 C  
BRANCH   9  15
HETATM   15  C   UNL     1      -9.468  11.782  66.133  1.00  0.00    -0.240 A  
HETATM   16  C   UNL     1      -9.257  11.512  64.773  1.00  0.00     0.020 A  
HETATM   17  C   UNL     1     -10.717  12.260  66.551  1.00  0.00    -0.279 A  
HETATM   18  C   UNL     1     -11.781  12.319  65.645  1.00  0.00    -0.440 A  
HETATM   19 CL   UNL     1     -12.910  11.948  63.220  1.00  0.00    -0.542 Cl 
HETATM   20  C   UNL     1     -11.582  11.961  64.312  1.00  0.00    -0.324 A  
HETATM   21  C   UNL     1     -10.315  11.596  63.863  1.00  0.00    -0.417 A  
ENDBRANCH   9  15
BRANCH  12  22
HETATM   22  C   UNL     1      -7.072   8.577  70.985  1.00  0.00    -0.068 C  
HETATM   23  O   UNL     1      -9.266   9.031  71.993  1.00  0.00    -0.373 OA 
HETATM   24  C   UNL     1      -7.979   8.692  72.199  1.00  0.00    -0.035 C  
HETATM   25  O   UNL     1      -7.562   8.469  73.330  1.00  0.00    -0.325 OA 
ENDBRANCH  12  22
ENDBRANCH   2   3
TORSDOF 3
ENDMDL
MODEL       81
REMARK 921   NORMALIZED FREE ENERGY PREDICTED BY IDOCK:   -4.22 KCAL/MOL
REMARK 922        TOTAL FREE ENERGY PREDICTED BY IDOCK:   -5.89 KCAL/MOL
REMARK 923 INTER-LIGAND FREE ENERGY PREDICTED BY IDOCK:   -5.19 KCAL/MOL
REMARK 924 INTRA-LIGAND FREE ENERGY PREDICTED BY IDOCK:   -0.70 KCAL/MOL
REMARK 927      BINDING AFFINITY PREDICTED BY RF-SCORE:    0.00 PKD
ROOT
HETATM    1  C   UNL     1      -9.419  11.037  65.494  1.00  0.00    -0.216 C  
HETATM    2  O   UNL     1      -9.172   9.711  65.033  1.00  0.00    -0.224 OA 
ENDROOT
BRANCH   2   3
HETATM    3  C   UNL     1      -9.240   8.714  65.968  1.00  0.00    -0.216 A  
HETATM    4  C   UNL     1      -9.115   7.351  65.705  1.00  0.00    -0.006 A  
HETATM    5  C   UNL     1      -9.234   6.409  66.753  1.00  0.00    -0.154 A  
HETATM    6  C   UNL     1      -9.518   6.849  68.046  1.00  0.00    -0.124 A  
HETATM    7  C   UNL     1      -9.543   8.229  68.333  1.00  0.00    -0.153 A  
HETATM    8  N   UNL     1      -9.736   5.718  68.852  1.00  0.00    -0.130 N  
HETATM    9  C   UNL     1     -10.244   5.715  70.187  1.00  0.00    -0.250 C  
HETATM   10  C   UNL     1      -9.432   9.140  67.275  1.00  0.00    -0.187 A  
HETATM   11  C   UNL     1      -9.358   4.593  68.098  1.00  0.00    -0.135 A  
HETATM   12  C   UNL     1      -9.059   4.997  66.800  1.00  0.00    -0.118 A  
HETATM   13  O   UNL     1      -9.936   4.772  70.910  1.00  0.00    -0.193 OA 
HETATM   14  C   UNL     1      -9.389   3.183  68.605  1.00  0.00    -0.236 C  
BRANCH   9  15
HETATM   15  C   UNL     1     -11.096   6.776  70.801  1.00  0.00    -0.323 A  
HETATM   16  C   UNL     1     -10.460   7.850  71.441  1.00  0.00    -0.242 A  
HETATM   17  C   UNL     1     -12.496   6.731  70.766  1.00  0.00    -0.212 A  
HETATM   18  C   UNL     1     -13.241   7.820  71.229  1.00  0.00    -0.240 A  
HETATM   19 CL   UNL     1     -13.503  10.299  72.269  1.00  0.00    -0.382 Cl 
HETATM   20  C   UNL     1     -12.593   8.924  71.783  1.00  0.00    -0.361 A  
HETATM   21  C   UNL     1     -11.207   8.927  71.927  1.00  0.00    -0.447 A  
ENDBRANCH   9  15
BRANCH  12  22
HETATM   22  C   UNL     1      -8.697   4.113  65.633  1.00  0.00    -0.119 C  
HETATM   23  O   UNL     1     -11.028   4.209  64.862  1.00  0.00    -0.235 OA 
HETATM   24  C   UNL     1      -9.812   3.650  64.710  1.00  0.00    -0.175 C  
HETATM   25  O   UNL     1      -9.614   2.806  63.843  1.00  0.00    -0.117 OA 
ENDBRANCH  12  22
ENDBRANCH   2   3
TORSDOF 3
ENDMDL
MODEL       82
REMARK 921   NORMALIZED FREE ENERGY PREDICTED BY IDOCK:   -4.21 KCAL/MOL
REMARK 922        TOTAL FREE ENERGY PREDICTED BY IDOCK:   -5.88 KCAL/MOL
REMARK 923 INTER-LIGAND FREE ENERGY PREDICTED BY IDOCK:   -4.92 KCAL/MOL
REMARK 924 INTRA-LIGAND FREE ENERGY PREDICTED BY IDOCK:   -0.96 KCAL/MOL
REMARK 927      BINDING AFFINITY PREDICTED BY RF-SCORE:    0.00 PKD
ROOT
HETATM    1  C   UNL     1      -8.832   7.481  72.895  1.00  0.00    -0.143 C  
HETATM    2  O   UNL     1      -8.918   8.782  72.321  1.00  0.00    -0.360 OA 
ENDROOT
BRANCH   2   3
HETATM    3  C   UNL     1      -8.878   8.855  70.956  1.00  0.00    -0.230 A  
HETATM    4  C   UNL     1      -9.335   9.926  70.190  1.00  0.00    -0.200 A  
HETATM    5  C   UNL     1      -9.269   9.874  68.778  1.00  0.00    -0.147 A  
HETATM    6  C   UNL     1      -8.781   8.725  68.154  1.00  0.00    -0.134 A  
HETATM    7  C   UNL     1      -8.224   7.685  68.925  1.00  0.00    -0.128 A  
HETATM    8  N   UNL     1      -8.968   8.871  66.768  1.00  0.00    -0.126 N  
HETATM    9  C   UNL     1      -8.790   7.857  65.779  1.00  0.00    -0.119 C  
HETATM   10  C   UNL     1      -8.312   7.758  70.321  1.00  0.00    -0.127 A  
HETATM   11  C   UNL     1      -9.358  10.203  66.541  1.00  0.00    -0.164 A  
HETATM   12  C   UNL     1      -9.562  10.831  67.767  1.00  0.00    -0.176 A  
HETATM   13  O   UNL     1      -8.516   8.218  64.638  1.00  0.00    -0.143 OA 
HETATM   14  C   UNL     1      -9.614  10.792  65.187  1.00  0.00    -0.295 C  
BRANCH   9  15
HETATM   15  C   UNL     1      -8.878   6.385  66.010  1.00  0.00    -0.160 A  
HETATM   16  C   UNL     1      -7.711   5.620  65.867  1.00  0.00    -0.095 A  
HETATM   17  C   UNL     1     -10.078   5.747  66.353  1.00  0.00    -0.182 A  
HETATM   18  C   UNL     1     -10.074   4.391  66.698  1.00  0.00    -0.197 A  
HETATM   19 CL   UNL     1      -8.866   2.018  67.148  1.00  0.00    -0.140 Cl 
HETATM   20  C   UNL     1      -8.888   3.661  66.639  1.00  0.00    -0.130 A  
HETATM   21  C   UNL     1      -7.714   4.259  66.187  1.00  0.00    -0.090 A  
ENDBRANCH   9  15
BRANCH  12  22
HETATM   22  C   UNL     1     -10.073  12.231  67.997  1.00  0.00    -0.206 C  
HETATM   23  O   UNL     1     -12.338  11.331  68.310  1.00  0.00    -0.542 OA 
HETATM   24  C   UNL     1     -11.569  12.429  68.172  1.00  0.00    -0.341 C  
HETATM   25  O   UNL     1     -12.065  13.550  68.201  1.00  0.00    -0.346 OA 
ENDBRANCH  12  22
ENDBRANCH   2   3
TORSDOF 3
ENDMDL
MODEL       83
REMARK 921   NORMALIZED FREE ENERGY PREDICTED BY IDOCK:   -4.19 KCAL/MOL
REMARK 922        TOTAL FREE ENERGY PREDICTED BY IDOCK:   -5.86 KCAL/MOL
REMARK 923 INTER-LIGAND FREE ENERGY PREDICTED BY IDOCK:   -5.07 KCAL/MOL
REMARK 924 INTRA-LIGAND FREE ENERGY PREDICTED BY IDOCK:   -0.78 KCAL/MOL
REMARK 927      BINDING AFFINITY PREDICTED BY RF-SCORE:    0.00 PKD
ROOT
HETATM    1  C   UNL     1      -6.388   9.896  65.417  1.00  0.00    -0.089 C  
HETATM    2  O   UNL     1      -6.414  11.183  66.027  1.00  0.00    -0.092 OA 
ENDROOT
BRANCH   2   3
HETATM    3  C   UNL     1      -7.459  11.442  66.870  1.00  0.00    -0.147 A  
HETATM    4  C   UNL     1      -8.392  10.505  67.313  1.00  0.00    -0.122 A  
HETATM    5  C   UNL     1      -9.450  10.899  68.163  1.00  0.00    -0.167 A  
HETATM    6  C   UNL     1      -9.581  12.240  68.525  1.00  0.00    -0.125 A  
HETATM    7  C   UNL     1      -8.584  13.169  68.164  1.00  0.00    -0.181 A  
HETATM    8  N   UNL     1     -10.787  12.383  69.234  1.00  0.00    -0.092 N  
HETATM    9  C   UNL     1     -11.402  13.614  69.617  1.00  0.00    -0.161 C  
HETATM   10  C   UNL     1      -7.552  12.755  67.314  1.00  0.00    -0.116 A  
HETATM   11  C   UNL     1     -11.269  11.089  69.497  1.00  0.00    -0.279 A  
HETATM   12  C   UNL     1     -10.467  10.164  68.834  1.00  0.00    -0.230 A  
HETATM   13  O   UNL     1     -12.139  13.599  70.598  1.00  0.00    -0.342 OA 
HETATM   14  C   UNL     1     -12.513  10.790  70.277  1.00  0.00    -0.395 C  
BRANCH   9  15
HETATM   15  C   UNL     1     -11.208  14.934  68.947  1.00  0.00    -0.282 A  
HETATM   16  C   UNL     1     -10.839  16.032  69.739  1.00  0.00    -0.337 A  
HETATM   17  C   UNL     1     -11.389  15.113  67.569  1.00  0.00    -0.325 A  
HETATM   18  C   UNL     1     -11.055  16.334  66.974  1.00  0.00     0.017 A  
HETATM   19 CL   UNL     1     -10.108  18.863  67.020  1.00  0.00    -0.373 Cl 
HETATM   20  C   UNL     1     -10.602  17.392  67.761  1.00  0.00    -0.371 A  
HETATM   21  C   UNL     1     -10.531  17.259  69.146  1.00  0.00    -0.263 A  
ENDBRANCH   9  15
BRANCH  12  22
HETATM   22  C   UNL     1     -10.670   8.671  68.764  1.00  0.00    -0.098 C  
HETATM   23  O   UNL     1      -9.337   8.412  70.811  1.00  0.00    -0.152 OA 
HETATM   24  C   UNL     1      -9.953   7.800  69.781  1.00  0.00    -0.189 C  
HETATM   25  O   UNL     1      -9.946   6.578  69.682  1.00  0.00    -0.161 OA 
ENDBRANCH  12  22
ENDBRANCH   2   3
TORSDOF 3
ENDMDL
MODEL       84
REMARK 921   NORMALIZED FREE ENERGY PREDICTED BY IDOCK:   -4.15 KCAL/MOL
REMARK 922        TOTAL FREE ENERGY PREDICTED BY IDOCK:   -5.81 KCAL/MOL
REMARK 923 INTER-LIGAND FREE ENERGY PREDICTED BY IDOCK:   -4.93 KCAL/MOL
REMARK 924 INTRA-LIGAND FREE ENERGY PREDICTED BY IDOCK:   -0.88 KCAL/MOL
REMARK 927      BINDING AFFINITY PREDICTED BY RF-SCORE:    0.00 PKD
ROOT
HETATM    1  C   UNL     1     -11.088   6.167  73.394  1.00  0.00    -0.061 C  
HETATM    2  O   UNL     1     -11.100   7.537  73.003  1.00  0.00    -0.360 OA 
ENDROOT
BRANCH   2   3
HETATM    3  C   UNL     1     -10.812   7.804  71.693  1.00  0.00    -0.229 A  
HETATM    4  C   UNL     1      -9.929   7.078  70.896  1.00  0.00    -0.200 A  
HETATM    5  C   UNL     1      -9.689   7.469  69.558  1.00  0.00    -0.164 A  
HETATM    6  C   UNL     1     -10.310   8.611  69.053  1.00  0.00    -0.213 A  
HETATM    7  C   UNL     1     -11.280   9.286  69.821  1.00  0.00    -0.104 A  
HETATM    8  N   UNL     1      -9.786   8.860  67.772  1.00  0.00    -0.155 N  
HETATM    9  C   UNL     1      -9.999  10.031  66.983  1.00  0.00    -0.205 C  
HETATM   10  C   UNL     1     -11.491   8.884  71.146  1.00  0.00    -0.364 A  
HETATM   11  C   UNL     1      -9.017   7.738  67.414  1.00  0.00    -0.123 A  
HETATM   12  C   UNL     1      -8.934   6.879  68.506  1.00  0.00    -0.122 A  
HETATM   13  O   UNL     1      -9.905   9.920  65.764  1.00  0.00    -0.252 OA 
HETATM   14  C   UNL     1      -8.318   7.574  66.098  1.00  0.00    -0.138 C  
BRANCH   9  15
HETATM   15  C   UNL     1     -10.357  11.383  67.505  1.00  0.00    -0.224 A  
HETATM   16  C   UNL     1      -9.398  12.079  68.258  1.00  0.00    -0.197 A  
HETATM   17  C   UNL     1     -11.608  11.971  67.279  1.00  0.00    -0.383 A  
HETATM   18  C   UNL     1     -11.839  13.295  67.667  1.00  0.00    -0.400 A  
HETATM   19 CL   UNL     1     -11.095  15.662  68.733  1.00  0.00    -0.287 Cl 
HETATM   20  C   UNL     1     -10.844  14.008  68.335  1.00  0.00    -0.249 A  
HETATM   21  C   UNL     1      -9.639  13.393  68.668  1.00  0.00    -0.064 A  
ENDBRANCH   9  15
BRANCH  12  22
HETATM   22  C   UNL     1      -8.136   5.602  68.600  1.00  0.00    -0.100 C  
HETATM   23  O   UNL     1      -9.968   4.398  67.490  1.00  0.00    -0.154 OA 
HETATM   24  C   UNL     1      -8.791   4.311  68.140  1.00  0.00    -0.107 C  
HETATM   25  O   UNL     1      -8.263   3.222  68.337  1.00  0.00    -0.071 OA 
ENDBRANCH  12  22
ENDBRANCH   2   3
TORSDOF 3
ENDMDL
MODEL       85
REMARK 921   NORMALIZED FREE ENERGY PREDICTED BY IDOCK:   -4.14 KCAL/MOL
REMARK 922        TOTAL FREE ENERGY PREDICTED BY IDOCK:   -5.80 KCAL/MOL
REMARK 923 INTER-LIGAND FREE ENERGY PREDICTED BY IDOCK:   -4.90 KCAL/MOL
REMARK 924 INTRA-LIGAND FREE ENERGY PREDICTED BY IDOCK:   -0.90 KCAL/MOL
REMARK 927      BINDING AFFINITY PREDICTED BY RF-SCORE:    0.00 PKD
ROOT
HETATM    1  C   UNL     1     -13.045   9.112  72.327  1.00  0.00    -0.438 C  
HETATM    2  O   UNL     1     -12.462   8.072  71.547  1.00  0.00    -0.299 OA 
ENDROOT
BRANCH   2   3
HETATM    3  C   UNL     1     -11.457   8.436  70.693  1.00  0.00    -0.219 A  
HETATM    4  C   UNL     1     -11.309   9.693  70.109  1.00  0.00    -0.275 A  
HETATM    5  C   UNL     1     -10.242   9.943  69.215  1.00  0.00    -0.222 A  
HETATM    6  C   UNL     1      -9.362   8.911  68.888  1.00  0.00    -0.140 A  
HETATM    7  C   UNL     1      -9.448   7.672  69.554  1.00  0.00    -0.152 A  
HETATM    8  N   UNL     1      -8.504   9.376  67.876  1.00  0.00    -0.116 N  
HETATM    9  C   UNL     1      -7.585   8.589  67.117  1.00  0.00    -0.096 C  
HETATM   10  C   UNL     1     -10.519   7.448  70.427  1.00  0.00    -0.230 A  
HETATM   11  C   UNL     1      -8.719  10.761  67.754  1.00  0.00    -0.130 A  
HETATM   12  C   UNL     1      -9.794  11.124  68.561  1.00  0.00    -0.199 A  
HETATM   13  O   UNL     1      -6.604   9.157  66.646  1.00  0.00    -0.066 OA 
HETATM   14  C   UNL     1      -7.968  11.656  66.816  1.00  0.00    -0.140 C  
BRANCH   9  15
HETATM   15  C   UNL     1      -7.691   7.121  66.866  1.00  0.00    -0.106 A  
HETATM   16  C   UNL     1      -8.733   6.662  66.045  1.00  0.00    -0.155 A  
HETATM   17  C   UNL     1      -6.800   6.195  67.424  1.00  0.00    -0.063 A  
HETATM   18  C   UNL     1      -6.859   4.851  67.041  1.00  0.00    -0.056 A  
HETATM   19 CL   UNL     1      -7.862   2.790  65.613  1.00  0.00    -0.081 Cl 
HETATM   20  C   UNL     1      -7.845   4.422  66.152  1.00  0.00    -0.095 A  
HETATM   21  C   UNL     1      -8.807   5.314  65.684  1.00  0.00    -0.152 A  
ENDBRANCH   9  15
BRANCH  12  22
HETATM   22  C   UNL     1     -10.428  12.489  68.670  1.00  0.00    -0.220 C  
HETATM   23  O   UNL     1     -11.802  11.987  66.696  1.00  0.00    -0.583 OA 
HETATM   24  C   UNL     1     -11.402  12.916  67.586  1.00  0.00    -0.303 C  
HETATM   25  O   UNL     1     -11.827  14.065  67.527  1.00  0.00    -0.365 OA 
ENDBRANCH  12  22
ENDBRANCH   2   3
TORSDOF 3
ENDMDL
MODEL       86
REMARK 921   NORMALIZED FREE ENERGY PREDICTED BY IDOCK:   -4.11 KCAL/MOL
REMARK 922        TOTAL FREE ENERGY PREDICTED BY IDOCK:   -5.76 KCAL/MOL
REMARK 923 INTER-LIGAND FREE ENERGY PREDICTED BY IDOCK:   -5.49 KCAL/MOL
REMARK 924 INTRA-LIGAND FREE ENERGY PREDICTED BY IDOCK:   -0.27 KCAL/MOL
REMARK 927      BINDING AFFINITY PREDICTED BY RF-SCORE:    0.00 PKD
ROOT
HETATM    1  C   UNL     1     -11.042  14.467  65.398  1.00  0.00    -0.345 C  
HETATM    2  O   UNL     1     -11.634  13.177  65.274  1.00  0.00    -0.306 OA 
ENDROOT
BRANCH   2   3
HETATM    3  C   UNL     1     -10.972  12.138  65.869  1.00  0.00    -0.292 A  
HETATM    4  C   UNL     1     -10.162  11.215  65.210  1.00  0.00    -0.337 A  
HETATM    5  C   UNL     1      -9.550  10.162  65.930  1.00  0.00    -0.274 A  
HETATM    6  C   UNL     1      -9.796  10.028  67.297  1.00  0.00    -0.181 A  
HETATM    7  C   UNL     1     -10.529  11.018  67.982  1.00  0.00    -0.219 A  
HETATM    8  N   UNL     1      -9.203   8.829  67.730  1.00  0.00    -0.134 N  
HETATM    9  C   UNL     1      -9.377   8.212  69.006  1.00  0.00    -0.147 C  
HETATM   10  C   UNL     1     -11.131  12.044  67.244  1.00  0.00    -0.341 A  
HETATM   11  C   UNL     1      -8.407   8.355  66.672  1.00  0.00    -0.110 A  
HETATM   12  C   UNL     1      -8.619   9.155  65.553  1.00  0.00    -0.192 A  
HETATM   13  O   UNL     1      -8.477   7.484  69.412  1.00  0.00    -0.130 OA 
HETATM   14  C   UNL     1      -7.561   7.119  66.736  1.00  0.00    -0.093 C  
BRANCH   9  15
HETATM   15  C   UNL     1     -10.549   8.394  69.913  1.00  0.00    -0.228 A  
HETATM   16  C   UNL     1     -11.451   7.328  70.054  1.00  0.00    -0.142 A  
HETATM   17  C   UNL     1     -10.782   9.584  70.613  1.00  0.00    -0.375 A  
HETATM   18  C   UNL     1     -11.812   9.650  71.557  1.00  0.00    -0.483 A  
HETATM   19 CL   UNL     1     -13.857   8.600  72.976  1.00  0.00    -0.040 Cl 
HETATM   20  C   UNL     1     -12.647   8.551  71.754  1.00  0.00    -0.346 A  
HETATM   21  C   UNL     1     -12.496   7.404  70.978  1.00  0.00    -0.285 A  
ENDBRANCH   9  15
BRANCH  12  22
HETATM   22  C   UNL     1      -8.042   8.957  64.173  1.00  0.00    -0.160 C  
HETATM   23  O   UNL     1      -6.196  10.473  64.749  1.00  0.00    -0.114 OA 
HETATM   24  C   UNL     1      -6.819   9.770  63.783  1.00  0.00    -0.119 C  
HETATM   25  O   UNL     1      -6.399   9.778  62.631  1.00  0.00    -0.099 OA 
ENDBRANCH  12  22
ENDBRANCH   2   3
TORSDOF 3
ENDMDL
MODEL       87
REMARK 921   NORMALIZED FREE ENERGY PREDICTED BY IDOCK:   -4.08 KCAL/MOL
REMARK 922        TOTAL FREE ENERGY PREDICTED BY IDOCK:   -5.73 KCAL/MOL
REMARK 923 INTER-LIGAND FREE ENERGY PREDICTED BY IDOCK:   -4.80 KCAL/MOL
REMARK 924 INTRA-LIGAND FREE ENERGY PREDICTED BY IDOCK:   -0.93 KCAL/MOL
REMARK 927      BINDING AFFINITY PREDICTED BY RF-SCORE:    0.00 PKD
ROOT
HETATM    1  C   UNL     1     -13.162  10.182  71.885  1.00  0.00    -0.452 C  
HETATM    2  O   UNL     1     -12.150   9.196  71.701  1.00  0.00    -0.315 OA 
ENDROOT
BRANCH   2   3
HETATM    3  C   UNL     1     -11.274   9.401  70.670  1.00  0.00    -0.284 A  
HETATM    4  C   UNL     1     -10.082   8.706  70.473  1.00  0.00    -0.228 A  
HETATM    5  C   UNL     1      -9.241   9.028  69.383  1.00  0.00    -0.150 A  
HETATM    6  C   UNL     1      -9.590  10.074  68.528  1.00  0.00    -0.151 A  
HETATM    7  C   UNL     1     -10.842  10.708  68.664  1.00  0.00    -0.266 A  
HETATM    8  N   UNL     1      -8.522  10.284  67.639  1.00  0.00    -0.118 N  
HETATM    9  C   UNL     1      -8.380  11.377  66.730  1.00  0.00    -0.163 C  
HETATM   10  C   UNL     1     -11.652  10.377  69.757  1.00  0.00    -0.339 A  
HETATM   11  C   UNL     1      -7.624   9.215  67.810  1.00  0.00    -0.085 A  
HETATM   12  C   UNL     1      -8.043   8.440  68.888  1.00  0.00    -0.114 A  
HETATM   13  O   UNL     1      -7.700  11.194  65.725  1.00  0.00    -0.035 OA 
HETATM   14  C   UNL     1      -6.367   9.028  67.016  1.00  0.00    -0.060 C  
BRANCH   9  15
HETATM   15  C   UNL     1      -9.009  12.722  66.876  1.00  0.00    -0.213 A  
HETATM   16  C   UNL     1      -8.551  13.561  67.903  1.00  0.00    -0.182 A  
HETATM   17  C   UNL     1     -10.038  13.167  66.036  1.00  0.00    -0.286 A  
HETATM   18  C   UNL     1     -10.491  14.488  66.126  1.00  0.00    -0.303 A  
HETATM   19 CL   UNL     1     -10.456  16.988  67.146  1.00  0.00    -0.313 Cl 
HETATM   20  C   UNL     1      -9.963  15.341  67.094  1.00  0.00    -0.233 A  
HETATM   21  C   UNL     1      -9.024  14.872  68.009  1.00  0.00    -0.172 A  
ENDBRANCH   9  15
BRANCH  12  22
HETATM   22  C   UNL     1      -7.332   7.250  69.483  1.00  0.00    -0.086 C  
HETATM   23  O   UNL     1      -8.624   5.768  68.009  1.00  0.00    -0.106 OA 
HETATM   24  C   UNL     1      -7.768   5.862  69.046  1.00  0.00    -0.091 C  
HETATM   25  O   UNL     1      -7.347   4.855  69.605  1.00  0.00    -0.054 OA 
ENDBRANCH  12  22
ENDBRANCH   2   3
TORSDOF 3
ENDMDL
MODEL       88
REMARK 921   NORMALIZED FREE ENERGY PREDICTED BY IDOCK:   -4.08 KCAL/MOL
REMARK 922        TOTAL FREE ENERGY PREDICTED BY IDOCK:   -5.72 KCAL/MOL
REMARK 923 INTER-LIGAND FREE ENERGY PREDICTED BY IDOCK:   -4.85 KCAL/MOL
REMARK 924 INTRA-LIGAND FREE ENERGY PREDICTED BY IDOCK:   -0.88 KCAL/MOL
REMARK 927      BINDING AFFINITY PREDICTED BY RF-SCORE:    0.00 PKD
ROOT
HETATM    1  C   UNL     1     -11.318   6.019  70.556  1.00  0.00    -0.240 C  
HETATM    2  O   UNL     1     -11.417   6.132  69.139  1.00  0.00    -0.379 OA 
ENDROOT
BRANCH   2   3
HETATM    3  C   UNL     1     -10.429   6.838  68.510  1.00  0.00    -0.204 A  
HETATM    4  C   UNL     1      -9.163   7.096  69.032  1.00  0.00    -0.135 A  
HETATM    5  C   UNL     1      -8.232   7.866  68.297  1.00  0.00    -0.124 A  
HETATM    6  C   UNL     1      -8.602   8.401  67.063  1.00  0.00    -0.122 A  
HETATM    7  C   UNL     1      -9.842   8.056  66.487  1.00  0.00    -0.289 A  
HETATM    8  N   UNL     1      -7.563   9.241  66.624  1.00  0.00    -0.093 N  
HETATM    9  C   UNL     1      -7.611  10.134  65.510  1.00  0.00    -0.146 C  
HETATM   10  C   UNL     1     -10.749   7.300  67.240  1.00  0.00    -0.391 A  
HETATM   11  C   UNL     1      -6.471   9.033  67.484  1.00  0.00    -0.064 A  
HETATM   12  C   UNL     1      -6.868   8.201  68.527  1.00  0.00    -0.068 A  
HETATM   13  O   UNL     1      -6.549  10.420  64.966  1.00  0.00    -0.125 OA 
HETATM   14  C   UNL     1      -5.137   9.702  67.338  1.00  0.00    -0.035 C  
BRANCH   9  15
HETATM   15  C   UNL     1      -8.845  10.735  64.923  1.00  0.00    -0.176 A  
HETATM   16  C   UNL     1      -9.153  10.443  63.586  1.00  0.00    -0.277 A  
HETATM   17  C   UNL     1      -9.693  11.579  65.653  1.00  0.00    -0.261 A  
HETATM   18  C   UNL     1     -10.908  11.996  65.100  1.00  0.00    -0.347 A  
HETATM   19 CL   UNL     1     -12.777  12.063  63.152  1.00  0.00    -0.506 Cl 
HETATM   20  C   UNL     1     -11.245  11.624  63.799  1.00  0.00    -0.414 A  
HETATM   21  C   UNL     1     -10.356  10.882  63.025  1.00  0.00    -0.084 A  
ENDBRANCH   9  15
BRANCH  12  22
HETATM   22  C   UNL     1      -6.048   7.789  69.724  1.00  0.00    -0.027 C  
HETATM   23  O   UNL     1      -7.197   9.490  71.074  1.00  0.00    -0.269 OA 
HETATM   24  C   UNL     1      -6.200   8.587  71.008  1.00  0.00    -0.038 C  
HETATM   25  O   UNL     1      -5.451   8.409  71.962  1.00  0.00    -0.036 OA 
ENDBRANCH  12  22
ENDBRANCH   2   3
TORSDOF 3
ENDMDL
MODEL       89
REMARK 921   NORMALIZED FREE ENERGY PREDICTED BY IDOCK:   -3.99 KCAL/MOL
REMARK 922        TOTAL FREE ENERGY PREDICTED BY IDOCK:   -5.62 KCAL/MOL
REMARK 923 INTER-LIGAND FREE ENERGY PREDICTED BY IDOCK:   -4.79 KCAL/MOL
REMARK 924 INTRA-LIGAND FREE ENERGY PREDICTED BY IDOCK:   -0.83 KCAL/MOL
REMARK 927      BINDING AFFINITY PREDICTED BY RF-SCORE:    0.00 PKD
ROOT
HETATM    1  C   UNL     1     -10.900  16.120  65.061  1.00  0.00    -0.363 C  
HETATM    2  O   UNL     1     -11.396  15.293  66.109  1.00  0.00    -0.285 OA 
ENDROOT
BRANCH   2   3
HETATM    3  C   UNL     1     -10.482  14.511  66.760  1.00  0.00    -0.270 A  
HETATM    4  C   UNL     1      -9.131  14.814  66.924  1.00  0.00    -0.268 A  
HETATM    5  C   UNL     1      -8.273  13.910  67.592  1.00  0.00    -0.181 A  
HETATM    6  C   UNL     1      -8.777  12.693  68.050  1.00  0.00    -0.190 A  
HETATM    7  C   UNL     1     -10.160  12.429  67.977  1.00  0.00    -0.214 A  
HETATM    8  N   UNL     1      -7.699  11.928  68.528  1.00  0.00    -0.133 N  
HETATM    9  C   UNL     1      -7.739  10.551  68.904  1.00  0.00    -0.117 C  
HETATM   10  C   UNL     1     -10.986  13.337  67.302  1.00  0.00    -0.284 A  
HETATM   11  C   UNL     1      -6.576  12.774  68.568  1.00  0.00    -0.086 A  
HETATM   12  C   UNL     1      -6.907  13.993  67.983  1.00  0.00    -0.148 A  
HETATM   13  O   UNL     1      -6.910  10.161  69.721  1.00  0.00    -0.074 OA 
HETATM   14  C   UNL     1      -5.223  12.364  69.065  1.00  0.00    -0.055 C  
BRANCH   9  15
HETATM   15  C   UNL     1      -8.722   9.539  68.415  1.00  0.00    -0.124 A  
HETATM   16  C   UNL     1      -8.695   9.192  67.055  1.00  0.00    -0.131 A  
HETATM   17  C   UNL     1      -9.666   8.938  69.256  1.00  0.00    -0.165 A  
HETATM   18  C   UNL     1     -10.465   7.894  68.777  1.00  0.00    -0.198 A  
HETATM   19 CL   UNL     1     -11.282   6.155  66.879  1.00  0.00    -0.297 Cl 
HETATM   20  C   UNL     1     -10.365   7.496  67.445  1.00  0.00    -0.276 A  
HETATM   21  C   UNL     1      -9.512   8.166  66.571  1.00  0.00    -0.286 A  
ENDBRANCH   9  15
BRANCH  12  22
HETATM   22  C   UNL     1      -5.986  15.160  67.730  1.00  0.00    -0.150 C  
HETATM   23  O   UNL     1      -7.086  16.397  69.547  1.00  0.00    -0.223 OA 
HETATM   24  C   UNL     1      -6.210  16.436  68.523  1.00  0.00    -0.128 C  
HETATM   25  O   UNL     1      -5.605  17.469  68.256  1.00  0.00    -0.143 OA 
ENDBRANCH  12  22
ENDBRANCH   2   3
TORSDOF 3
ENDMDL
MODEL       90
REMARK 921   NORMALIZED FREE ENERGY PREDICTED BY IDOCK:   -3.98 KCAL/MOL
REMARK 922        TOTAL FREE ENERGY PREDICTED BY IDOCK:   -5.62 KCAL/MOL
REMARK 923 INTER-LIGAND FREE ENERGY PREDICTED BY IDOCK:   -4.73 KCAL/MOL
REMARK 924 INTRA-LIGAND FREE ENERGY PREDICTED BY IDOCK:   -0.88 KCAL/MOL
REMARK 927      BINDING AFFINITY PREDICTED BY RF-SCORE:    0.00 PKD
ROOT
HETATM    1  C   UNL     1     -12.590  13.856  66.025  1.00  0.00    -0.423 C  
HETATM    2  O   UNL     1     -12.330  12.479  66.280  1.00  0.00    -0.570 OA 
ENDROOT
BRANCH   2   3
HETATM    3  C   UNL     1     -11.240  12.194  67.056  1.00  0.00    -0.314 A  
HETATM    4  C   UNL     1      -9.976  12.763  66.914  1.00  0.00    -0.232 A  
HETATM    5  C   UNL     1      -8.915  12.366  67.761  1.00  0.00    -0.182 A  
HETATM    6  C   UNL     1      -9.131  11.370  68.714  1.00  0.00    -0.089 A  
HETATM    7  C   UNL     1     -10.431  10.869  68.929  1.00  0.00    -0.228 A  
HETATM    8  N   UNL     1      -7.894  11.059  69.306  1.00  0.00    -0.099 N  
HETATM    9  C   UNL     1      -7.628   9.966  70.185  1.00  0.00    -0.175 C  
HETATM   10  C   UNL     1     -11.461  11.272  68.070  1.00  0.00    -0.369 A  
HETATM   11  C   UNL     1      -6.972  12.027  68.870  1.00  0.00    -0.104 A  
HETATM   12  C   UNL     1      -7.579  12.830  67.909  1.00  0.00    -0.138 A  
HETATM   13  O   UNL     1      -6.696  10.086  70.974  1.00  0.00    -0.325 OA 
HETATM   14  C   UNL     1      -5.539  12.089  69.306  1.00  0.00    -0.068 C  
BRANCH   9  15
HETATM   15  C   UNL     1      -8.403   8.692  70.256  1.00  0.00    -0.129 A  
HETATM   16  C   UNL     1      -8.252   7.765  69.213  1.00  0.00    -0.129 A  
HETATM   17  C   UNL     1      -9.273   8.397  71.313  1.00  0.00    -0.228 A  
HETATM   18  C   UNL     1      -9.862   7.131  71.402  1.00  0.00    -0.178 A  
HETATM   19 CL   UNL     1     -10.284   4.601  70.556  1.00  0.00    -0.266 Cl 
HETATM   20  C   UNL     1      -9.632   6.185  70.403  1.00  0.00    -0.164 A  
HETATM   21  C   UNL     1      -8.862   6.510  69.289  1.00  0.00    -0.132 A  
ENDBRANCH   9  15
BRANCH  12  22
HETATM   22  C   UNL     1      -6.934  13.934  67.108  1.00  0.00     0.348 C  
HETATM   23  O   UNL     1      -7.778  15.576  68.729  1.00  0.00    -0.138 OA 
HETATM   24  C   UNL     1      -7.173  15.370  67.544  1.00  0.00    -0.196 C  
HETATM   25  O   UNL     1      -6.814  16.315  66.850  1.00  0.00    -0.204 OA 
ENDBRANCH  12  22
ENDBRANCH   2   3
TORSDOF 3
ENDMDL
MODEL       91
REMARK 921   NORMALIZED FREE ENERGY PREDICTED BY IDOCK:   -3.98 KCAL/MOL
REMARK 922        TOTAL FREE ENERGY PREDICTED BY IDOCK:   -5.61 KCAL/MOL
REMARK 923 INTER-LIGAND FREE ENERGY PREDICTED BY IDOCK:   -4.71 KCAL/MOL
REMARK 924 INTRA-LIGAND FREE ENERGY PREDICTED BY IDOCK:   -0.90 KCAL/MOL
REMARK 927      BINDING AFFINITY PREDICTED BY RF-SCORE:    0.00 PKD
ROOT
HETATM    1  C   UNL     1     -12.012  13.017  66.728  1.00  0.00    -0.369 C  
HETATM    2  O   UNL     1     -12.198  11.963  67.668  1.00  0.00    -0.510 OA 
ENDROOT
BRANCH   2   3
HETATM    3  C   UNL     1     -11.077  11.286  68.061  1.00  0.00    -0.266 A  
HETATM    4  C   UNL     1      -9.912  11.147  67.308  1.00  0.00    -0.211 A  
HETATM    5  C   UNL     1      -8.824  10.395  67.809  1.00  0.00    -0.128 A  
HETATM    6  C   UNL     1      -8.938   9.758  69.045  1.00  0.00    -0.154 A  
HETATM    7  C   UNL     1     -10.072   9.981  69.852  1.00  0.00    -0.289 A  
HETATM    8  N   UNL     1      -7.794   8.963  69.232  1.00  0.00    -0.094 N  
HETATM    9  C   UNL     1      -7.593   7.998  70.266  1.00  0.00    -0.081 C  
HETATM   10  C   UNL     1     -11.139  10.721  69.328  1.00  0.00    -0.312 A  
HETATM   11  C   UNL     1      -6.885   9.299  68.212  1.00  0.00    -0.064 A  
HETATM   12  C   UNL     1      -7.507  10.168  67.320  1.00  0.00    -0.091 A  
HETATM   13  O   UNL     1      -6.437   7.749  70.593  1.00  0.00    -0.037 OA 
HETATM   14  C   UNL     1      -5.513   8.713  68.073  1.00  0.00    -0.035 C  
BRANCH   9  15
HETATM   15  C   UNL     1      -8.668   7.280  71.012  1.00  0.00    -0.140 A  
HETATM   16  C   UNL     1      -9.370   6.262  70.348  1.00  0.00    -0.171 A  
HETATM   17  C   UNL     1      -9.003   7.591  72.336  1.00  0.00    -0.172 A  
HETATM   18  C   UNL     1      -9.917   6.792  73.032  1.00  0.00    -0.199 A  
HETATM   19 CL   UNL     1     -11.597   4.691  73.266  1.00  0.00    -0.362 Cl 
HETATM   20  C   UNL     1     -10.542   5.726  72.387  1.00  0.00    -0.220 A  
HETATM   21  C   UNL     1     -10.303   5.481  71.036  1.00  0.00    -0.307 A  
ENDBRANCH   9  15
BRANCH  12  22
HETATM   22  C   UNL     1      -6.937  10.711  66.033  1.00  0.00    -0.128 C  
HETATM   23  O   UNL     1      -7.880   8.789  64.828  1.00  0.00    -0.110 OA 
HETATM   24  C   UNL     1      -7.082   9.873  64.775  1.00  0.00    -0.133 C  
HETATM   25  O   UNL     1      -6.506  10.177  63.736  1.00  0.00    -0.131 OA 
ENDBRANCH  12  22
ENDBRANCH   2   3
TORSDOF 3
ENDMDL
MODEL       92
REMARK 921   NORMALIZED FREE ENERGY PREDICTED BY IDOCK:   -3.95 KCAL/MOL
REMARK 922        TOTAL FREE ENERGY PREDICTED BY IDOCK:   -5.58 KCAL/MOL
REMARK 923 INTER-LIGAND FREE ENERGY PREDICTED BY IDOCK:   -4.67 KCAL/MOL
REMARK 924 INTRA-LIGAND FREE ENERGY PREDICTED BY IDOCK:   -0.91 KCAL/MOL
REMARK 927      BINDING AFFINITY PREDICTED BY RF-SCORE:    0.00 PKD
ROOT
HETATM    1  C   UNL     1     -13.421  10.947  71.863  1.00  0.00    -0.202 C  
HETATM    2  O   UNL     1     -12.931  10.082  70.842  1.00  0.00    -0.356 OA 
ENDROOT
BRANCH   2   3
HETATM    3  C   UNL     1     -11.679   9.563  71.026  1.00  0.00    -0.343 A  
HETATM    4  C   UNL     1     -10.534   9.949  70.331  1.00  0.00    -0.347 A  
HETATM    5  C   UNL     1      -9.296   9.316  70.589  1.00  0.00    -0.329 A  
HETATM    6  C   UNL     1      -9.235   8.273  71.515  1.00  0.00    -0.177 A  
HETATM    7  C   UNL     1     -10.367   7.951  72.291  1.00  0.00    -0.314 A  
HETATM    8  N   UNL     1      -7.942   7.724  71.466  1.00  0.00    -0.089 N  
HETATM    9  C   UNL     1      -7.509   6.521  72.103  1.00  0.00    -0.092 C  
HETATM   10  C   UNL     1     -11.582   8.587  72.008  1.00  0.00    -0.432 A  
HETATM   11  C   UNL     1      -7.156   8.583  70.677  1.00  0.00    -0.047 A  
HETATM   12  C   UNL     1      -7.976   9.560  70.118  1.00  0.00    -0.171 A  
HETATM   13  O   UNL     1      -6.317   6.422  72.379  1.00  0.00    -0.052 OA 
HETATM   14  C   UNL     1      -5.695   8.388  70.408  1.00  0.00    -0.028 C  
BRANCH   9  15
HETATM   15  C   UNL     1      -8.382   5.376  72.494  1.00  0.00    -0.114 A  
HETATM   16  C   UNL     1      -8.633   5.168  73.859  1.00  0.00    -0.113 A  
HETATM   17  C   UNL     1      -8.947   4.504  71.554  1.00  0.00    -0.164 A  
HETATM   18  C   UNL     1      -9.871   3.537  71.964  1.00  0.00    -0.238 A  
HETATM   19 CL   UNL     1     -11.382   2.273  73.811  1.00  0.00    -0.304 Cl 
HETATM   20  C   UNL     1     -10.181   3.400  73.316  1.00  0.00    -0.151 A  
HETATM   21  C   UNL     1      -9.537   4.185  74.270  1.00  0.00    -0.132 A  
ENDBRANCH   9  15
BRANCH  12  22
HETATM   22  C   UNL     1      -7.573  10.630  69.135  1.00  0.00    -0.131 C  
HETATM   23  O   UNL     1      -8.458   9.253  67.302  1.00  0.00    -0.123 OA 
HETATM   24  C   UNL     1      -7.762  10.352  67.653  1.00  0.00    -0.093 C  
HETATM   25  O   UNL     1      -7.310  11.107  66.799  1.00  0.00    -0.132 OA 
ENDBRANCH  12  22
ENDBRANCH   2   3
TORSDOF 3
ENDMDL
MODEL       93
REMARK 921   NORMALIZED FREE ENERGY PREDICTED BY IDOCK:   -3.90 KCAL/MOL
REMARK 922        TOTAL FREE ENERGY PREDICTED BY IDOCK:   -5.51 KCAL/MOL
REMARK 923 INTER-LIGAND FREE ENERGY PREDICTED BY IDOCK:   -4.62 KCAL/MOL
REMARK 924 INTRA-LIGAND FREE ENERGY PREDICTED BY IDOCK:   -0.89 KCAL/MOL
REMARK 927      BINDING AFFINITY PREDICTED BY RF-SCORE:    0.00 PKD
ROOT
HETATM    1  C   UNL     1     -12.541  14.673  64.322  1.00  0.00    -0.076 C  
HETATM    2  O   UNL     1     -12.666  13.622  65.276  1.00  0.00    -0.583 OA 
ENDROOT
BRANCH   2   3
HETATM    3  C   UNL     1     -11.523  13.241  65.923  1.00  0.00    -0.332 A  
HETATM    4  C   UNL     1     -10.688  14.087  66.653  1.00  0.00    -0.281 A  
HETATM    5  C   UNL     1      -9.513  13.582  67.256  1.00  0.00    -0.230 A  
HETATM    6  C   UNL     1      -9.170  12.241  67.081  1.00  0.00    -0.196 A  
HETATM    7  C   UNL     1     -10.062  11.363  66.433  1.00  0.00    -0.255 A  
HETATM    8  N   UNL     1      -7.897  12.041  67.643  1.00  0.00    -0.138 N  
HETATM    9  C   UNL     1      -7.090  10.870  67.513  1.00  0.00    -0.090 C  
HETATM   10  C   UNL     1     -11.215  11.890  65.837  1.00  0.00    -0.373 A  
HETATM   11  C   UNL     1      -7.571  13.208  68.356  1.00  0.00    -0.133 A  
HETATM   12  C   UNL     1      -8.547  14.171  68.118  1.00  0.00    -0.175 A  
HETATM   13  O   UNL     1      -6.274  10.641  68.401  1.00  0.00    -0.050 OA 
HETATM   14  C   UNL     1      -6.312  13.393  69.148  1.00  0.00    -0.102 C  
BRANCH   9  15
HETATM   15  C   UNL     1      -7.165   9.874  66.403  1.00  0.00    -0.100 A  
HETATM   16  C   UNL     1      -7.630   8.584  66.700  1.00  0.00    -0.082 A  
HETATM   17  C   UNL     1      -6.782  10.180  65.090  1.00  0.00    -0.131 A  
HETATM   18  C   UNL     1      -7.009   9.256  64.064  1.00  0.00    -0.091 A  
HETATM   19 CL   UNL     1      -7.916   6.908  63.087  1.00  0.00    -0.101 Cl 
HETATM   20  C   UNL     1      -7.556   8.008  64.359  1.00  0.00    -0.116 A  
HETATM   21  C   UNL     1      -7.831   7.652  65.677  1.00  0.00    -0.109 A  
ENDBRANCH   9  15
BRANCH  12  22
HETATM   22  C   UNL     1      -8.554  15.598  68.607  1.00  0.00    -0.188 C  
HETATM   23  O   UNL     1      -7.840  16.345  66.378  1.00  0.00    -0.289 OA 
HETATM   24  C   UNL     1      -8.065  16.683  67.663  1.00  0.00    -0.171 C  
HETATM   25  O   UNL     1      -7.893  17.834  68.048  1.00  0.00    -0.227 OA 
ENDBRANCH  12  22
ENDBRANCH   2   3
TORSDOF 3
ENDMDL
MODEL       94
REMARK 921   NORMALIZED FREE ENERGY PREDICTED BY IDOCK:   -3.89 KCAL/MOL
REMARK 922        TOTAL FREE ENERGY PREDICTED BY IDOCK:   -5.51 KCAL/MOL
REMARK 923 INTER-LIGAND FREE ENERGY PREDICTED BY IDOCK:   -4.64 KCAL/MOL
REMARK 924 INTRA-LIGAND FREE ENERGY PREDICTED BY IDOCK:   -0.87 KCAL/MOL
REMARK 927      BINDING AFFINITY PREDICTED BY RF-SCORE:    0.00 PKD
ROOT
HETATM    1  C   UNL     1      -6.209   9.279  71.490  1.00  0.00    -0.046 C  
HETATM    2  O   UNL     1      -7.346   8.542  71.050  1.00  0.00    -0.058 OA 
ENDROOT
BRANCH   2   3
HETATM    3  C   UNL     1      -7.878   8.899  69.842  1.00  0.00    -0.092 A  
HETATM    4  C   UNL     1      -7.483   8.394  68.604  1.00  0.00    -0.093 A  
HETATM    5  C   UNL     1      -8.090   8.863  67.416  1.00  0.00    -0.108 A  
HETATM    6  C   UNL     1      -9.058   9.865  67.486  1.00  0.00    -0.134 A  
HETATM    7  C   UNL     1      -9.532  10.302  68.739  1.00  0.00    -0.176 A  
HETATM    8  N   UNL     1      -9.379  10.252  66.172  1.00  0.00    -0.163 N  
HETATM    9  C   UNL     1     -10.175  11.375  65.792  1.00  0.00    -0.248 C  
HETATM   10  C   UNL     1      -8.907   9.829  69.900  1.00  0.00    -0.248 A  
HETATM   11  C   UNL     1      -8.771   9.324  65.307  1.00  0.00    -0.184 A  
HETATM   12  C   UNL     1      -7.963   8.471  66.053  1.00  0.00    -0.107 A  
HETATM   13  O   UNL     1     -10.756  11.319  64.712  1.00  0.00    -0.310 OA 
HETATM   14  C   UNL     1      -8.903   9.346  63.814  1.00  0.00    -0.201 C  
BRANCH   9  15
HETATM   15  C   UNL     1     -10.392  12.608  66.605  1.00  0.00    -0.249 A  
HETATM   16  C   UNL     1      -9.288  13.434  66.865  1.00  0.00    -0.253 A  
HETATM   17  C   UNL     1     -11.647  12.960  67.119  1.00  0.00    -0.421 A  
HETATM   18  C   UNL     1     -11.821  14.196  67.749  1.00  0.00    -0.414 A  
HETATM   19 CL   UNL     1     -10.965  16.606  68.617  1.00  0.00    -0.344 Cl 
HETATM   20  C   UNL     1     -10.733  15.050  67.922  1.00  0.00    -0.268 A  
HETATM   21  C   UNL     1      -9.459  14.658  67.518  1.00  0.00    -0.198 A  
ENDBRANCH   9  15
BRANCH  12  22
HETATM   22  C   UNL     1      -7.057   7.386  65.527  1.00  0.00    -0.061 C  
HETATM   23  O   UNL     1      -8.735   5.706  66.159  1.00  0.00    -0.126 OA 
HETATM   24  C   UNL     1      -7.485   5.941  65.714  1.00  0.00    -0.081 C  
HETATM   25  O   UNL     1      -6.726   5.012  65.457  1.00  0.00    -0.052 OA 
ENDBRANCH  12  22
ENDBRANCH   2   3
TORSDOF 3
ENDMDL
MODEL       95
REMARK 921   NORMALIZED FREE ENERGY PREDICTED BY IDOCK:   -3.88 KCAL/MOL
REMARK 922        TOTAL FREE ENERGY PREDICTED BY IDOCK:   -5.49 KCAL/MOL
REMARK 923 INTER-LIGAND FREE ENERGY PREDICTED BY IDOCK:   -4.91 KCAL/MOL
REMARK 924 INTRA-LIGAND FREE ENERGY PREDICTED BY IDOCK:   -0.58 KCAL/MOL
REMARK 927      BINDING AFFINITY PREDICTED BY RF-SCORE:    0.00 PKD
ROOT
HETATM    1  C   UNL     1      -5.897  14.026  67.999  1.00  0.00    -0.136 C  
HETATM    2  O   UNL     1      -5.717  12.892  67.155  1.00  0.00    -0.347 OA 
ENDROOT
BRANCH   2   3
HETATM    3  C   UNL     1      -6.520  11.812  67.399  1.00  0.00    -0.116 A  
HETATM    4  C   UNL     1      -6.572  10.653  66.626  1.00  0.00    -0.101 A  
HETATM    5  C   UNL     1      -7.468   9.611  66.962  1.00  0.00    -0.091 A  
HETATM    6  C   UNL     1      -8.329   9.767  68.049  1.00  0.00    -0.110 A  
HETATM    7  C   UNL     1      -8.207  10.890  68.891  1.00  0.00    -0.141 A  
HETATM    8  N   UNL     1      -9.208   8.669  68.067  1.00  0.00    -0.140 N  
HETATM    9  C   UNL     1     -10.367   8.528  68.889  1.00  0.00    -0.210 C  
HETATM   10  C   UNL     1      -7.319  11.911  68.530  1.00  0.00    -0.111 A  
HETATM   11  C   UNL     1      -8.729   7.739  67.128  1.00  0.00    -0.125 A  
HETATM   12  C   UNL     1      -7.667   8.307  66.429  1.00  0.00    -0.091 A  
HETATM   13  O   UNL     1     -10.740   7.389  69.154  1.00  0.00    -0.217 OA 
HETATM   14  C   UNL     1      -9.351   6.401  66.867  1.00  0.00    -0.150 C  
BRANCH   9  15
HETATM   15  C   UNL     1     -11.158   9.645  69.486  1.00  0.00    -0.198 A  
HETATM   16  C   UNL     1     -11.614   9.504  70.805  1.00  0.00    -0.378 A  
HETATM   17  C   UNL     1     -11.464  10.813  68.776  1.00  0.00    -0.364 A  
HETATM   18  C   UNL     1     -12.082  11.885  69.429  1.00  0.00    -0.277 A  
HETATM   19 CL   UNL     1     -13.129  13.113  71.595  1.00  0.00    -0.471 Cl 
HETATM   20  C   UNL     1     -12.451  11.766  70.769  1.00  0.00    -0.312 A  
HETATM   21  C   UNL     1     -12.255  10.566  71.449  1.00  0.00    -0.429 A  
ENDBRANCH   9  15
BRANCH  12  22
HETATM   22  C   UNL     1      -6.914   7.701  65.271  1.00  0.00    -0.058 C  
HETATM   23  O   UNL     1      -8.457   8.810  63.713  1.00  0.00    -0.171 OA 
HETATM   24  C   UNL     1      -7.454   7.924  63.869  1.00  0.00    -0.110 C  
HETATM   25  O   UNL     1      -6.985   7.331  62.903  1.00  0.00    -0.058 OA 
ENDBRANCH  12  22
ENDBRANCH   2   3
TORSDOF 3
ENDMDL
MODEL       96
REMARK 921   NORMALIZED FREE ENERGY PREDICTED BY IDOCK:   -3.86 KCAL/MOL
REMARK 922        TOTAL FREE ENERGY PREDICTED BY IDOCK:   -5.47 KCAL/MOL
REMARK 923 INTER-LIGAND FREE ENERGY PREDICTED BY IDOCK:   -5.16 KCAL/MOL
REMARK 924 INTRA-LIGAND FREE ENERGY PREDICTED BY IDOCK:   -0.31 KCAL/MOL
REMARK 927      BINDING AFFINITY PREDICTED BY RF-SCORE:    0.00 PKD
ROOT
HETATM    1  C   UNL     1      -5.654  12.021  69.111  1.00  0.00    -0.061 C  
HETATM    2  O   UNL     1      -5.543  10.672  68.666  1.00  0.00    -0.041 OA 
ENDROOT
BRANCH   2   3
HETATM    3  C   UNL     1      -6.575   9.833  68.987  1.00  0.00    -0.049 A  
HETATM    4  C   UNL     1      -6.768   8.554  68.466  1.00  0.00    -0.060 A  
HETATM    5  C   UNL     1      -7.893   7.789  68.853  1.00  0.00    -0.122 A  
HETATM    6  C   UNL     1      -8.831   8.338  69.728  1.00  0.00    -0.142 A  
HETATM    7  C   UNL     1      -8.585   9.586  70.335  1.00  0.00    -0.246 A  
HETATM    8  N   UNL     1      -9.912   7.443  69.822  1.00  0.00    -0.186 N  
HETATM    9  C   UNL     1     -11.168   7.698  70.452  1.00  0.00    -0.244 C  
HETATM   10  C   UNL     1      -7.469  10.327  69.927  1.00  0.00    -0.165 A  
HETATM   11  C   UNL     1      -9.522   6.253  69.182  1.00  0.00    -0.133 A  
HETATM   12  C   UNL     1      -8.288   6.452  68.569  1.00  0.00    -0.113 A  
HETATM   13  O   UNL     1     -11.796   6.733  70.876  1.00  0.00    -0.350 OA 
HETATM   14  C   UNL     1     -10.369   5.020  69.097  1.00  0.00    -0.174 C  
BRANCH   9  15
HETATM   15  C   UNL     1     -11.779   9.042  70.672  1.00  0.00    -0.237 A  
HETATM   16  C   UNL     1     -12.595   9.223  71.800  1.00  0.00    -0.461 A  
HETATM   17  C   UNL     1     -11.576  10.114  69.794  1.00  0.00    -0.245 A  
HETATM   18  C   UNL     1     -12.054  11.387  70.124  1.00  0.00    -0.439 A  
HETATM   19 CL   UNL     1     -13.299  13.153  71.744  1.00  0.00    -0.493 Cl 
HETATM   20  C   UNL     1     -12.788  11.574  71.295  1.00  0.00    -0.360 A  
HETATM   21  C   UNL     1     -13.094  10.490  72.115  1.00  0.00    -0.413 A  
ENDBRANCH   9  15
BRANCH  12  22
HETATM   22  C   UNL     1      -7.538   5.476  67.697  1.00  0.00    -0.088 C  
HETATM   23  O   UNL     1      -8.800   6.277  65.747  1.00  0.00    -0.157 OA 
HETATM   24  C   UNL     1      -7.938   5.364  66.236  1.00  0.00    -0.105 C  
HETATM   25  O   UNL     1      -7.483   4.482  65.516  1.00  0.00    -0.078 OA 
ENDBRANCH  12  22
ENDBRANCH   2   3
TORSDOF 3
ENDMDL
MODEL       97
REMARK 921   NORMALIZED FREE ENERGY PREDICTED BY IDOCK:   -3.84 KCAL/MOL
REMARK 922        TOTAL FREE ENERGY PREDICTED BY IDOCK:   -5.45 KCAL/MOL
REMARK 923 INTER-LIGAND FREE ENERGY PREDICTED BY IDOCK:   -4.76 KCAL/MOL
REMARK 924 INTRA-LIGAND FREE ENERGY PREDICTED BY IDOCK:   -0.69 KCAL/MOL
REMARK 927      BINDING AFFINITY PREDICTED BY RF-SCORE:    0.00 PKD
ROOT
HETATM    1  C   UNL     1     -11.873  14.488  68.196  1.00  0.00    -0.313 C  
HETATM    2  O   UNL     1     -12.130  13.220  68.792  1.00  0.00    -0.326 OA 
ENDROOT
BRANCH   2   3
HETATM    3  C   UNL     1     -11.233  12.222  68.522  1.00  0.00    -0.271 A  
HETATM    4  C   UNL     1     -10.545  12.059  67.321  1.00  0.00    -0.252 A  
HETATM    5  C   UNL     1      -9.662  10.967  67.149  1.00  0.00    -0.198 A  
HETATM    6  C   UNL     1      -9.516  10.031  68.173  1.00  0.00    -0.138 A  
HETATM    7  C   UNL     1     -10.130  10.250  69.423  1.00  0.00    -0.255 A  
HETATM    8  N   UNL     1      -8.714   8.981  67.691  1.00  0.00    -0.124 N  
HETATM    9  C   UNL     1      -8.477   7.731  68.340  1.00  0.00    -0.125 C  
HETATM   10  C   UNL     1     -11.006  11.333  69.564  1.00  0.00    -0.249 A  
HETATM   11  C   UNL     1      -8.191   9.395  66.453  1.00  0.00    -0.111 A  
HETATM   12  C   UNL     1      -8.773  10.608  66.097  1.00  0.00    -0.178 A  
HETATM   13  O   UNL     1      -7.433   7.143  68.073  1.00  0.00    -0.094 OA 
HETATM   14  C   UNL     1      -7.243   8.585  65.620  1.00  0.00    -0.079 C  
BRANCH   9  15
HETATM   15  C   UNL     1      -9.372   7.082  69.342  1.00  0.00    -0.146 A  
HETATM   16  C   UNL     1      -8.849   6.796  70.612  1.00  0.00    -0.151 A  
HETATM   17  C   UNL     1     -10.702   6.745  69.057  1.00  0.00    -0.280 A  
HETATM   18  C   UNL     1     -11.536   6.272  70.076  1.00  0.00    -0.460 A  
HETATM   19 CL   UNL     1     -12.072   5.580  72.631  1.00  0.00    -0.156 Cl 
HETATM   20  C   UNL     1     -11.026   6.076  71.359  1.00  0.00    -0.276 A  
HETATM   21  C   UNL     1      -9.677   6.298  71.622  1.00  0.00    -0.177 A  
ENDBRANCH   9  15
BRANCH  12  22
HETATM   22  C   UNL     1      -8.574  11.369  64.810  1.00  0.00     0.423 C  
HETATM   23  O   UNL     1     -10.887  10.847  64.166  1.00  0.00    -0.305 OA 
HETATM   24  C   UNL     1      -9.700  11.362  63.790  1.00  0.00    -0.287 C  
HETATM   25  O   UNL     1      -9.543  11.822  62.665  1.00  0.00    -0.228 OA 
ENDBRANCH  12  22
ENDBRANCH   2   3
TORSDOF 3
ENDMDL
MODEL       98
REMARK 921   NORMALIZED FREE ENERGY PREDICTED BY IDOCK:   -3.84 KCAL/MOL
REMARK 922        TOTAL FREE ENERGY PREDICTED BY IDOCK:   -5.44 KCAL/MOL
REMARK 923 INTER-LIGAND FREE ENERGY PREDICTED BY IDOCK:   -4.56 KCAL/MOL
REMARK 924 INTRA-LIGAND FREE ENERGY PREDICTED BY IDOCK:   -0.89 KCAL/MOL
REMARK 927      BINDING AFFINITY PREDICTED BY RF-SCORE:    0.00 PKD
ROOT
HETATM    1  C   UNL     1     -11.856  16.157  64.311  1.00  0.00     0.108 C  
HETATM    2  O   UNL     1     -11.278  14.873  64.529  1.00  0.00    -0.341 OA 
ENDROOT
BRANCH   2   3
HETATM    3  C   UNL     1     -10.357  14.777  65.536  1.00  0.00    -0.364 A  
HETATM    4  C   UNL     1      -9.588  15.829  66.029  1.00  0.00    -0.388 A  
HETATM    5  C   UNL     1      -8.643  15.602  67.057  1.00  0.00    -0.253 A  
HETATM    6  C   UNL     1      -8.456  14.308  67.546  1.00  0.00    -0.187 A  
HETATM    7  C   UNL     1      -9.303  13.264  67.123  1.00  0.00    -0.240 A  
HETATM    8  N   UNL     1      -7.367  14.334  68.435  1.00  0.00    -0.110 N  
HETATM    9  C   UNL     1      -6.716  13.199  69.007  1.00  0.00    -0.103 C  
HETATM   10  C   UNL     1     -10.223  13.515  66.097  1.00  0.00    -0.303 A  
HETATM   11  C   UNL     1      -7.043  15.684  68.655  1.00  0.00    -0.127 A  
HETATM   12  C   UNL     1      -7.809  16.478  67.805  1.00  0.00    -0.164 A  
HETATM   13  O   UNL     1      -6.143  13.355  70.081  1.00  0.00    -0.144 OA 
HETATM   14  C   UNL     1      -5.964  16.157  69.582  1.00  0.00    -0.171 C  
BRANCH   9  15
HETATM   15  C   UNL     1      -6.691  11.822  68.430  1.00  0.00    -0.065 A  
HETATM   16  C   UNL     1      -7.351  10.799  69.128  1.00  0.00    -0.115 A  
HETATM   17  C   UNL     1      -6.030  11.519  67.233  1.00  0.00    -0.100 A  
HETATM   18  C   UNL     1      -6.160  10.246  66.666  1.00  0.00    -0.064 A  
HETATM   19 CL   UNL     1      -7.128   7.726  66.587  1.00  0.00    -0.077 Cl 
HETATM   20  C   UNL     1      -6.895   9.262  67.326  1.00  0.00    -0.080 A  
HETATM   21  C   UNL     1      -7.458   9.520  68.574  1.00  0.00    -0.080 A  
ENDBRANCH   9  15
BRANCH  12  22
HETATM   22  C   UNL     1      -7.725  17.975  67.639  1.00  0.00    -0.215 C  
HETATM   23  O   UNL     1      -9.805  18.215  68.925  1.00  0.00    -0.350 OA 
HETATM   24  C   UNL     1      -8.872  18.821  68.164  1.00  0.00    -0.306 C  
HETATM   25  O   UNL     1      -8.944  20.020  67.921  1.00  0.00    -0.317 OA 
ENDBRANCH  12  22
ENDBRANCH   2   3
TORSDOF 3
ENDMDL
MODEL       99
REMARK 921   NORMALIZED FREE ENERGY PREDICTED BY IDOCK:   -3.82 KCAL/MOL
REMARK 922        TOTAL FREE ENERGY PREDICTED BY IDOCK:   -5.42 KCAL/MOL
REMARK 923 INTER-LIGAND FREE ENERGY PREDICTED BY IDOCK:   -4.61 KCAL/MOL
REMARK 924 INTRA-LIGAND FREE ENERGY PREDICTED BY IDOCK:   -0.81 KCAL/MOL
REMARK 927      BINDING AFFINITY PREDICTED BY RF-SCORE:    0.00 PKD
ROOT
HETATM    1  C   UNL     1     -11.085  11.796  66.992  1.00  0.00    -0.304 C  
HETATM    2  O   UNL     1     -11.050  11.220  68.295  1.00  0.00    -0.202 OA 
ENDROOT
BRANCH   2   3
HETATM    3  C   UNL     1     -10.810   9.875  68.365  1.00  0.00    -0.221 A  
HETATM    4  C   UNL     1     -10.759   9.124  69.538  1.00  0.00    -0.226 A  
HETATM    5  C   UNL     1     -10.473   7.740  69.486  1.00  0.00    -0.225 A  
HETATM    6  C   UNL     1     -10.202   7.138  68.256  1.00  0.00    -0.184 A  
HETATM    7  C   UNL     1     -10.355   7.871  67.063  1.00  0.00    -0.411 A  
HETATM    8  N   UNL     1      -9.802   5.812  68.500  1.00  0.00    -0.133 N  
HETATM    9  C   UNL     1      -9.249   4.906  67.545  1.00  0.00    -0.123 C  
HETATM   10  C   UNL     1     -10.629   9.242  67.143  1.00  0.00    -0.286 A  
HETATM   11  C   UNL     1     -10.051   5.548  69.859  1.00  0.00    -0.235 A  
HETATM   12  C   UNL     1     -10.451   6.725  70.484  1.00  0.00    -0.238 A  
HETATM   13  O   UNL     1      -9.397   3.705  67.750  1.00  0.00    -0.169 OA 
HETATM   14  C   UNL     1      -9.809   4.226  70.523  1.00  0.00    -0.269 C  
BRANCH   9  15
HETATM   15  C   UNL     1      -8.527   5.286  66.295  1.00  0.00    -0.115 A  
HETATM   16  C   UNL     1      -7.355   6.050  66.412  1.00  0.00    -0.081 A  
HETATM   17  C   UNL     1      -8.980   4.918  65.022  1.00  0.00    -0.147 A  
HETATM   18  C   UNL     1      -8.189   5.178  63.897  1.00  0.00    -0.130 A  
HETATM   19 CL   UNL     1      -5.968   6.099  62.668  1.00  0.00    -0.026 Cl 
HETATM   20  C   UNL     1      -6.981   5.859  64.037  1.00  0.00    -0.050 A  
HETATM   21  C   UNL     1      -6.579   6.331  65.284  1.00  0.00    -0.043 A  
ENDBRANCH   9  15
BRANCH  12  22
HETATM   22  C   UNL     1     -10.732   6.925  71.952  1.00  0.00    -0.245 C  
HETATM   23  O   UNL     1      -8.566   8.058  72.194  1.00  0.00    -0.128 OA 
HETATM   24  C   UNL     1      -9.644   7.541  72.814  1.00  0.00    -0.178 C  
HETATM   25  O   UNL     1      -9.745   7.583  74.036  1.00  0.00    -0.245 OA 
ENDBRANCH  12  22
ENDBRANCH   2   3
TORSDOF 3
ENDMDL
MODEL      100
REMARK 921   NORMALIZED FREE ENERGY PREDICTED BY IDOCK:   -3.81 KCAL/MOL
REMARK 922        TOTAL FREE ENERGY PREDICTED BY IDOCK:   -5.41 KCAL/MOL
REMARK 923 INTER-LIGAND FREE ENERGY PREDICTED BY IDOCK:   -4.55 KCAL/MOL
REMARK 924 INTRA-LIGAND FREE ENERGY PREDICTED BY IDOCK:   -0.86 KCAL/MOL
REMARK 927      BINDING AFFINITY PREDICTED BY RF-SCORE:    0.00 PKD
ROOT
HETATM    1  C   UNL     1      -5.789  14.005  69.769  1.00  0.00    -0.115 C  
HETATM    2  O   UNL     1      -6.088  12.670  69.370  1.00  0.00    -0.092 OA 
ENDROOT
BRANCH   2   3
HETATM    3  C   UNL     1      -7.062  12.517  68.421  1.00  0.00    -0.107 A  
HETATM    4  C   UNL     1      -8.380  12.956  68.538  1.00  0.00    -0.054 A  
HETATM    5  C   UNL     1      -9.307  12.713  67.499  1.00  0.00    -0.188 A  
HETATM    6  C   UNL     1      -8.907  11.994  66.372  1.00  0.00    -0.126 A  
HETATM    7  C   UNL     1      -7.553  11.640  66.205  1.00  0.00     0.172 A  
HETATM    8  N   UNL     1     -10.044  11.761  65.579  1.00  0.00    -0.240 N  
HETATM    9  C   UNL     1     -10.120  10.901  64.441  1.00  0.00    -0.339 C  
HETATM   10  C   UNL     1      -6.657  11.884  67.254  1.00  0.00    -0.141 A  
HETATM   11  C   UNL     1     -11.088  12.536  66.114  1.00  0.00    -0.298 A  
HETATM   12  C   UNL     1     -10.657  13.117  67.303  1.00  0.00    -0.250 A  
HETATM   13  O   UNL     1     -10.973  11.152  63.595  1.00  0.00    -0.349 OA 
HETATM   14  C   UNL     1     -12.468  12.615  65.534  1.00  0.00    -0.345 C  
BRANCH   9  15
HETATM   15  C   UNL     1      -9.233   9.732  64.169  1.00  0.00    -0.277 A  
HETATM   16  C   UNL     1      -8.496   9.722  62.975  1.00  0.00    -0.180 A  
HETATM   17  C   UNL     1      -9.120   8.650  65.051  1.00  0.00     0.023 A  
HETATM   18  C   UNL     1      -8.168   7.652  64.816  1.00  0.00    -0.081 A  
HETATM   19 CL   UNL     1      -6.147   6.525  63.424  1.00  0.00    -0.030 Cl 
HETATM   20  C   UNL     1      -7.377   7.702  63.669  1.00  0.00    -0.093 A  
HETATM   21  C   UNL     1      -7.564   8.711  62.727  1.00  0.00    -0.112 A  
ENDBRANCH   9  15
BRANCH  12  22
HETATM   22  C   UNL     1     -11.476  13.953  68.255  1.00  0.00    -0.346 C  
HETATM   23  O   UNL     1     -10.633  15.987  67.167  1.00  0.00    -0.306 OA 
HETATM   24  C   UNL     1     -11.330  15.463  68.194  1.00  0.00    -0.348 C  
HETATM   25  O   UNL     1     -11.840  16.189  69.040  1.00  0.00    -0.327 OA 
ENDBRANCH  12  22
ENDBRANCH   2   3
TORSDOF 3
ENDMDL
MODEL      101
REMARK 921   NORMALIZED FREE ENERGY PREDICTED BY IDOCK:   -3.79 KCAL/MOL
REMARK 922        TOTAL FREE ENERGY PREDICTED BY IDOCK:   -5.39 KCAL/MOL
REMARK 923 INTER-LIGAND FREE ENERGY PREDICTED BY IDOCK:   -4.47 KCAL/MOL
REMARK 924 INTRA-LIGAND FREE ENERGY PREDICTED BY IDOCK:   -0.92 KCAL/MOL
REMARK 927      BINDING AFFINITY PREDICTED BY RF-SCORE:    0.00 PKD
ROOT
HETATM    1  C   UNL     1     -10.022   4.177  65.071  1.00  0.00    -0.208 C  
HETATM    2  O   UNL     1     -10.873   4.951  65.911  1.00  0.00    -0.289 OA 
ENDROOT
BRANCH   2   3
HETATM    3  C   UNL     1     -10.266   5.876  66.714  1.00  0.00    -0.219 A  
HETATM    4  C   UNL     1      -9.201   6.695  66.341  1.00  0.00    -0.180 A  
HETATM    5  C   UNL     1      -8.634   7.597  67.272  1.00  0.00    -0.121 A  
HETATM    6  C   UNL     1      -9.119   7.633  68.579  1.00  0.00    -0.131 A  
HETATM    7  C   UNL     1     -10.260   6.883  68.930  1.00  0.00    -0.184 A  
HETATM    8  N   UNL     1      -8.291   8.488  69.327  1.00  0.00    -0.118 N  
HETATM    9  C   UNL     1      -8.310   8.658  70.745  1.00  0.00    -0.152 C  
HETATM   10  C   UNL     1     -10.796   5.991  67.992  1.00  0.00    -0.374 A  
HETATM   11  C   UNL     1      -7.443   9.144  68.416  1.00  0.00    -0.082 A  
HETATM   12  C   UNL     1      -7.631   8.599  67.149  1.00  0.00    -0.092 A  
HETATM   13  O   UNL     1      -7.909   9.727  71.194  1.00  0.00    -0.218 OA 
HETATM   14  C   UNL     1      -6.432  10.183  68.797  1.00  0.00    -0.052 C  
BRANCH   9  15
HETATM   15  C   UNL     1      -8.804   7.659  71.738  1.00  0.00    -0.139 A  
HETATM   16  C   UNL     1      -9.919   7.997  72.520  1.00  0.00    -0.338 A  
HETATM   17  C   UNL     1      -8.192   6.413  71.921  1.00  0.00    -0.109 A  
HETATM   18  C   UNL     1      -8.781   5.462  72.761  1.00  0.00    -0.123 A  
HETATM   19 CL   UNL     1     -10.715   4.581  74.428  1.00  0.00    -0.283 Cl 
HETATM   20  C   UNL     1      -9.942   5.778  73.465  1.00  0.00    -0.180 A  
HETATM   21  C   UNL     1     -10.492   7.055  73.379  1.00  0.00    -0.383 A  
ENDBRANCH   9  15
BRANCH  12  22
HETATM   22  C   UNL     1      -6.868   8.936  65.892  1.00  0.00    -0.072 C  
HETATM   23  O   UNL     1      -8.654  10.497  65.251  1.00  0.00    -0.170 OA 
HETATM   24  C   UNL     1      -7.522   9.866  64.885  1.00  0.00    -0.135 C  
HETATM   25  O   UNL     1      -7.031  10.053  63.777  1.00  0.00    -0.123 OA 
ENDBRANCH  12  22
ENDBRANCH   2   3
TORSDOF 3
ENDMDL
MODEL      102
REMARK 921   NORMALIZED FREE ENERGY PREDICTED BY IDOCK:   -3.77 KCAL/MOL
REMARK 922        TOTAL FREE ENERGY PREDICTED BY IDOCK:   -5.36 KCAL/MOL
REMARK 923 INTER-LIGAND FREE ENERGY PREDICTED BY IDOCK:   -4.43 KCAL/MOL
REMARK 924 INTRA-LIGAND FREE ENERGY PREDICTED BY IDOCK:   -0.93 KCAL/MOL
REMARK 927      BINDING AFFINITY PREDICTED BY RF-SCORE:    0.00 PKD
ROOT
HETATM    1  C   UNL     1     -11.066  12.586  63.482  1.00  0.00    -0.439 C  
HETATM    2  O   UNL     1     -11.404  12.954  64.817  1.00  0.00    -0.298 OA 
ENDROOT
BRANCH   2   3
HETATM    3  C   UNL     1     -10.714  12.328  65.819  1.00  0.00    -0.263 A  
HETATM    4  C   UNL     1      -9.636  12.869  66.517  1.00  0.00    -0.259 A  
HETATM    5  C   UNL     1      -8.981  12.112  67.516  1.00  0.00    -0.177 A  
HETATM    6  C   UNL     1      -9.395  10.804  67.771  1.00  0.00    -0.152 A  
HETATM    7  C   UNL     1     -10.547  10.292  67.141  1.00  0.00    -0.320 A  
HETATM    8  N   UNL     1      -8.491  10.232  68.684  1.00  0.00    -0.120 N  
HETATM    9  C   UNL     1      -8.428   8.857  69.063  1.00  0.00    -0.133 C  
HETATM   10  C   UNL     1     -11.170  11.059  66.148  1.00  0.00     0.024 A  
HETATM   11  C   UNL     1      -7.665  11.269  69.153  1.00  0.00    -0.046 A  
HETATM   12  C   UNL     1      -7.943  12.429  68.436  1.00  0.00    -0.149 A  
HETATM   13  O   UNL     1      -7.957   8.593  70.166  1.00  0.00    -0.093 OA 
HETATM   14  C   UNL     1      -6.590  11.096  70.184  1.00  0.00    -0.048 C  
BRANCH   9  15
HETATM   15  C   UNL     1      -8.912   7.702  68.250  1.00  0.00    -0.127 A  
HETATM   16  C   UNL     1      -9.997   6.957  68.736  1.00  0.00    -0.153 A  
HETATM   17  C   UNL     1      -8.318   7.336  67.035  1.00  0.00    -0.118 A  
HETATM   18  C   UNL     1      -8.901   6.338  66.246  1.00  0.00    -0.153 A  
HETATM   19 CL   UNL     1     -10.802   4.502  65.691  1.00  0.00    -0.214 Cl 
HETATM   20  C   UNL     1     -10.035   5.665  66.699  1.00  0.00    -0.181 A  
HETATM   21  C   UNL     1     -10.563   5.943  67.958  1.00  0.00    -0.321 A  
ENDBRANCH   9  15
BRANCH  12  22
HETATM   22  C   UNL     1      -7.234  13.756  68.544  1.00  0.00    -0.108 C  
HETATM   23  O   UNL     1      -5.480  12.919  67.041  1.00  0.00    -0.338 OA 
HETATM   24  C   UNL     1      -5.883  13.906  67.866  1.00  0.00    -0.127 C  
HETATM   25  O   UNL     1      -5.184  14.896  68.047  1.00  0.00    -0.113 OA 
ENDBRANCH  12  22
ENDBRANCH   2   3
TORSDOF 3
ENDMDL
MODEL      103
REMARK 921   NORMALIZED FREE ENERGY PREDICTED BY IDOCK:   -3.69 KCAL/MOL
REMARK 922        TOTAL FREE ENERGY PREDICTED BY IDOCK:   -5.27 KCAL/MOL
REMARK 923 INTER-LIGAND FREE ENERGY PREDICTED BY IDOCK:   -4.33 KCAL/MOL
REMARK 924 INTRA-LIGAND FREE ENERGY PREDICTED BY IDOCK:   -0.95 KCAL/MOL
REMARK 927      BINDING AFFINITY PREDICTED BY RF-SCORE:    0.00 PKD
ROOT
HETATM    1  C   UNL     1      -7.930   6.971  64.324  1.00  0.00    -0.091 C  
HETATM    2  O   UNL     1      -7.954   6.220  65.534  1.00  0.00    -0.102 OA 
ENDROOT
BRANCH   2   3
HETATM    3  C   UNL     1      -8.539   6.820  66.616  1.00  0.00    -0.123 A  
HETATM    4  C   UNL     1      -9.206   6.156  67.645  1.00  0.00    -0.107 A  
HETATM    5  C   UNL     1      -9.798   6.888  68.700  1.00  0.00    -0.145 A  
HETATM    6  C   UNL     1      -9.747   8.282  68.684  1.00  0.00    -0.156 A  
HETATM    7  C   UNL     1      -8.987   8.950  67.703  1.00  0.00    -0.141 A  
HETATM    8  N   UNL     1     -10.535   8.758  69.747  1.00  0.00    -0.216 N  
HETATM    9  C   UNL     1     -10.915  10.115  69.978  1.00  0.00    -0.307 C  
HETATM   10  C   UNL     1      -8.419   8.202  66.664  1.00  0.00    -0.129 A  
HETATM   11  C   UNL     1     -10.874   7.647  70.540  1.00  0.00    -0.241 A  
HETATM   12  C   UNL     1     -10.441   6.487  69.904  1.00  0.00    -0.258 A  
HETATM   13  O   UNL     1     -11.165  10.447  71.133  1.00  0.00    -0.204 OA 
HETATM   14  C   UNL     1     -11.672   7.723  71.807  1.00  0.00    -0.323 C  
BRANCH   9  15
HETATM   15  C   UNL     1     -11.008  11.185  68.940  1.00  0.00    -0.276 A  
HETATM   16  C   UNL     1     -10.033  12.194  68.938  1.00  0.00     0.025 A  
HETATM   17  C   UNL     1     -12.032  11.220  67.985  1.00  0.00    -0.132 A  
HETATM   18  C   UNL     1     -11.991  12.160  66.950  1.00  0.00    -0.164 A  
HETATM   19 CL   UNL     1     -10.864  14.202  65.588  1.00  0.00    -0.296 Cl 
HETATM   20  C   UNL     1     -10.965  13.104  66.907  1.00  0.00    -0.276 A  
HETATM   21  C   UNL     1     -10.008  13.150  67.919  1.00  0.00    -0.233 A  
ENDBRANCH   9  15
BRANCH  12  22
HETATM   22  C   UNL     1     -10.672   5.065  70.351  1.00  0.00    -0.010 C  
HETATM   23  O   UNL     1      -8.450   5.054  71.399  1.00  0.00    -0.114 OA 
HETATM   24  C   UNL     1      -9.533   4.336  71.043  1.00  0.00    -0.166 C  
HETATM   25  O   UNL     1      -9.598   3.136  71.286  1.00  0.00    -0.144 OA 
ENDBRANCH  12  22
ENDBRANCH   2   3
TORSDOF 3
ENDMDL
MODEL      104
REMARK 921   NORMALIZED FREE ENERGY PREDICTED BY IDOCK:   -3.66 KCAL/MOL
REMARK 922        TOTAL FREE ENERGY PREDICTED BY IDOCK:   -5.23 KCAL/MOL
REMARK 923 INTER-LIGAND FREE ENERGY PREDICTED BY IDOCK:   -4.33 KCAL/MOL
REMARK 924 INTRA-LIGAND FREE ENERGY PREDICTED BY IDOCK:   -0.90 KCAL/MOL
REMARK 927      BINDING AFFINITY PREDICTED BY RF-SCORE:    0.00 PKD
ROOT
HETATM    1  C   UNL     1      -8.290   9.944  65.121  1.00  0.00    -0.148 C  
HETATM    2  O   UNL     1      -8.800   8.633  64.894  1.00  0.00    -0.145 OA 
ENDROOT
BRANCH   2   3
HETATM    3  C   UNL     1      -8.779   7.774  65.958  1.00  0.00    -0.161 A  
HETATM    4  C   UNL     1      -8.519   6.406  65.888  1.00  0.00    -0.147 A  
HETATM    5  C   UNL     1      -8.555   5.612  67.057  1.00  0.00    -0.109 A  
HETATM    6  C   UNL     1      -8.892   6.198  68.278  1.00  0.00    -0.112 A  
HETATM    7  C   UNL     1      -9.053   7.595  68.369  1.00  0.00    -0.130 A  
HETATM    8  N   UNL     1      -9.006   5.174  69.235  1.00  0.00    -0.098 N  
HETATM    9  C   UNL     1      -9.522   5.308  70.560  1.00  0.00    -0.167 C  
HETATM   10  C   UNL     1      -9.022   8.357  67.195  1.00  0.00    -0.153 A  
HETATM   11  C   UNL     1      -8.514   3.997  68.643  1.00  0.00    -0.087 A  
HETATM   12  C   UNL     1      -8.245   4.244  67.299  1.00  0.00    -0.100 A  
HETATM   13  O   UNL     1      -9.130   4.509  71.405  1.00  0.00    -0.123 OA 
HETATM   14  C   UNL     1      -8.412   2.675  69.342  1.00  0.00    -0.100 C  
BRANCH   9  15
HETATM   15  C   UNL     1     -10.478   6.356  71.024  1.00  0.00    -0.268 A  
HETATM   16  C   UNL     1     -11.780   6.345  70.501  1.00  0.00    -0.385 A  
HETATM   17  C   UNL     1     -10.120   7.346  71.948  1.00  0.00    -0.204 A  
HETATM   18  C   UNL     1     -11.094   8.213  72.455  1.00  0.00    -0.446 A  
HETATM   19 CL   UNL     1     -13.621   9.138  72.680  1.00  0.00    -0.479 Cl 
HETATM   20  C   UNL     1     -12.407   8.133  71.993  1.00  0.00    -0.338 A  
HETATM   21  C   UNL     1     -12.746   7.229  70.989  1.00  0.00    -0.284 A  
ENDBRANCH   9  15
BRANCH  12  22
HETATM   22  C   UNL     1      -7.789   3.246  66.265  1.00  0.00    -0.078 C  
HETATM   23  O   UNL     1      -5.468   3.575  66.998  1.00  0.00    -0.019 OA 
HETATM   24  C   UNL     1      -6.297   3.023  66.091  1.00  0.00    -0.028 C  
HETATM   25  O   UNL     1      -5.856   2.350  65.165  1.00  0.00    -0.016 OA 
ENDBRANCH  12  22
ENDBRANCH   2   3
TORSDOF 3
ENDMDL
MODEL      105
REMARK 921   NORMALIZED FREE ENERGY PREDICTED BY IDOCK:   -3.65 KCAL/MOL
REMARK 922        TOTAL FREE ENERGY PREDICTED BY IDOCK:   -5.22 KCAL/MOL
REMARK 923 INTER-LIGAND FREE ENERGY PREDICTED BY IDOCK:   -4.65 KCAL/MOL
REMARK 924 INTRA-LIGAND FREE ENERGY PREDICTED BY IDOCK:   -0.58 KCAL/MOL
REMARK 927      BINDING AFFINITY PREDICTED BY RF-SCORE:    0.00 PKD
ROOT
HETATM    1  C   UNL     1     -12.813  11.459  71.599  1.00  0.00    -0.391 C  
HETATM    2  O   UNL     1     -12.067  11.585  70.392  1.00  0.00    -0.350 OA 
ENDROOT
BRANCH   2   3
HETATM    3  C   UNL     1     -11.236  10.546  70.073  1.00  0.00    -0.315 A  
HETATM    4  C   UNL     1     -10.558   9.744  70.990  1.00  0.00    -0.295 A  
HETATM    5  C   UNL     1      -9.700   8.715  70.538  1.00  0.00    -0.210 A  
HETATM    6  C   UNL     1      -9.503   8.533  69.169  1.00  0.00    -0.154 A  
HETATM    7  C   UNL     1     -10.265   9.272  68.242  1.00  0.00    -0.236 A  
HETATM    8  N   UNL     1      -8.499   7.563  68.999  1.00  0.00    -0.132 N  
HETATM    9  C   UNL     1      -7.855   7.219  67.772  1.00  0.00    -0.114 C  
HETATM   10  C   UNL     1     -11.100  10.292  68.715  1.00  0.00    -0.276 A  
HETATM   11  C   UNL     1      -8.253   6.997  70.262  1.00  0.00    -0.128 A  
HETATM   12  C   UNL     1      -8.972   7.702  71.223  1.00  0.00    -0.141 A  
HETATM   13  O   UNL     1      -7.386   6.088  67.674  1.00  0.00    -0.075 OA 
HETATM   14  C   UNL     1      -7.281   5.884  70.517  1.00  0.00    -0.083 C  
BRANCH   9  15
HETATM   15  C   UNL     1      -7.722   8.102  66.576  1.00  0.00    -0.093 A  
HETATM   16  C   UNL     1      -7.939   7.541  65.309  1.00  0.00    -0.126 A  
HETATM   17  C   UNL     1      -7.382   9.458  66.675  1.00  0.00    -0.090 A  
HETATM   18  C   UNL     1      -7.412  10.270  65.537  1.00  0.00    -0.149 A  
HETATM   19 CL   UNL     1      -7.842  10.732  62.911  1.00  0.00    -0.056 Cl 
HETATM   20  C   UNL     1      -7.718   9.718  64.294  1.00  0.00    -0.134 A  
HETATM   21  C   UNL     1      -7.942   8.349  64.168  1.00  0.00    -0.151 A  
ENDBRANCH   9  15
BRANCH  12  22
HETATM   22  C   UNL     1      -8.936   7.497  72.717  1.00  0.00    -0.195 C  
HETATM   23  O   UNL     1     -10.719   5.819  72.510  1.00  0.00    -0.212 OA 
HETATM   24  C   UNL     1      -9.962   6.565  73.339  1.00  0.00    -0.198 C  
HETATM   25  O   UNL     1     -10.092   6.479  74.555  1.00  0.00    -0.344 OA 
ENDBRANCH  12  22
ENDBRANCH   2   3
TORSDOF 3
ENDMDL
MODEL      106
REMARK 921   NORMALIZED FREE ENERGY PREDICTED BY IDOCK:   -3.59 KCAL/MOL
REMARK 922        TOTAL FREE ENERGY PREDICTED BY IDOCK:   -5.15 KCAL/MOL
REMARK 923 INTER-LIGAND FREE ENERGY PREDICTED BY IDOCK:   -5.89 KCAL/MOL
REMARK 924 INTRA-LIGAND FREE ENERGY PREDICTED BY IDOCK:    0.74 KCAL/MOL
REMARK 927      BINDING AFFINITY PREDICTED BY RF-SCORE:    0.00 PKD
ROOT
HETATM    1  C   UNL     1      -9.342  17.157  66.748  1.00  0.00    -0.254 C  
HETATM    2  O   UNL     1     -10.621  16.541  66.628  1.00  0.00    -0.291 OA 
ENDROOT
BRANCH   2   3
HETATM    3  C   UNL     1     -10.750  15.286  67.157  1.00  0.00    -0.316 A  
HETATM    4  C   UNL     1     -11.150  14.996  68.460  1.00  0.00    -0.279 A  
HETATM    5  C   UNL     1     -11.218  13.655  68.904  1.00  0.00    -0.309 A  
HETATM    6  C   UNL     1     -10.842  12.625  68.042  1.00  0.00    -0.225 A  
HETATM    7  C   UNL     1     -10.538  12.907  66.695  1.00  0.00    -0.273 A  
HETATM    8  N   UNL     1     -10.853  11.422  68.771  1.00  0.00    -0.197 N  
HETATM    9  C   UNL     1     -10.349  10.161  68.330  1.00  0.00    -0.183 C  
HETATM   10  C   UNL     1     -10.469  14.244  66.284  1.00  0.00    -0.291 A  
HETATM   11  C   UNL     1     -11.454  11.696  70.012  1.00  0.00    -0.182 A  
HETATM   12  C   UNL     1     -11.673  13.067  70.117  1.00  0.00    -0.244 A  
HETATM   13  O   UNL     1     -10.836   9.150  68.827  1.00  0.00    -0.171 OA 
HETATM   14  C   UNL     1     -11.706  10.671  71.077  1.00  0.00    -0.329 C  
BRANCH   9  15
HETATM   15  C   UNL     1      -9.296   9.955  67.292  1.00  0.00    -0.167 A  
HETATM   16  C   UNL     1      -9.613   9.169  66.173  1.00  0.00    -0.333 A  
HETATM   17  C   UNL     1      -8.013  10.506  67.401  1.00  0.00    -0.110 A  
HETATM   18  C   UNL     1      -7.115  10.401  66.333  1.00  0.00    -0.118 A  
HETATM   19 CL   UNL     1      -6.406   9.638  63.841  1.00  0.00    -0.104 Cl 
HETATM   20  C   UNL     1      -7.475   9.692  65.187  1.00  0.00    -0.115 A  
HETATM   21  C   UNL     1      -8.705   9.042  65.118  1.00  0.00    -0.223 A  
ENDBRANCH   9  15
BRANCH  12  22
HETATM   22  C   UNL     1     -12.212  13.813  71.312  1.00  0.00    -0.314 C  
HETATM   23  O   UNL     1     -13.850  12.017  71.669  1.00  0.00     0.270 OA 
HETATM   24  C   UNL     1     -13.434  13.249  72.018  1.00  0.00    -0.507 C  
HETATM   25  O   UNL     1     -14.017  13.885  72.890  1.00  0.00    -0.627 OA 
ENDBRANCH  12  22
ENDBRANCH   2   3
TORSDOF 3
ENDMDL
MODEL      107
REMARK 921   NORMALIZED FREE ENERGY PREDICTED BY IDOCK:   -3.56 KCAL/MOL
REMARK 922        TOTAL FREE ENERGY PREDICTED BY IDOCK:   -5.12 KCAL/MOL
REMARK 923 INTER-LIGAND FREE ENERGY PREDICTED BY IDOCK:   -4.22 KCAL/MOL
REMARK 924 INTRA-LIGAND FREE ENERGY PREDICTED BY IDOCK:   -0.90 KCAL/MOL
REMARK 927      BINDING AFFINITY PREDICTED BY RF-SCORE:    0.00 PKD
ROOT
HETATM    1  C   UNL     1      -6.119  11.981  69.979  1.00  0.00    -0.146 C  
HETATM    2  O   UNL     1      -6.492  10.858  70.772  1.00  0.00    -0.339 OA 
ENDROOT
BRANCH   2   3
HETATM    3  C   UNL     1      -6.985   9.771  70.103  1.00  0.00    -0.118 A  
HETATM    4  C   UNL     1      -7.319   9.739  68.750  1.00  0.00    -0.074 A  
HETATM    5  C   UNL     1      -7.850   8.561  68.174  1.00  0.00    -0.103 A  
HETATM    6  C   UNL     1      -8.076   7.443  68.978  1.00  0.00    -0.127 A  
HETATM    7  C   UNL     1      -7.644   7.439  70.319  1.00  0.00    -0.088 A  
HETATM    8  N   UNL     1      -8.744   6.479  68.203  1.00  0.00    -0.118 N  
HETATM    9  C   UNL     1      -9.335   5.270  68.681  1.00  0.00    -0.121 C  
HETATM   10  C   UNL     1      -7.130   8.621  70.867  1.00  0.00    -0.067 A  
HETATM   11  C   UNL     1      -8.716   6.927  66.870  1.00  0.00    -0.118 A  
HETATM   12  C   UNL     1      -8.183   8.213  66.836  1.00  0.00    -0.111 A  
HETATM   13  O   UNL     1      -9.440   4.337  67.890  1.00  0.00    -0.149 OA 
HETATM   14  C   UNL     1      -9.280   6.167  65.708  1.00  0.00    -0.014 C  
BRANCH   9  15
HETATM   15  C   UNL     1      -9.815   5.023  70.073  1.00  0.00    -0.298 A  
HETATM   16  C   UNL     1      -9.236   3.970  70.797  1.00  0.00    -0.197 A  
HETATM   17  C   UNL     1     -10.821   5.793  70.671  1.00  0.00    -0.337 A  
HETATM   18  C   UNL     1     -11.130   5.611  72.023  1.00  0.00    -0.291 A  
HETATM   19 CL   UNL     1     -10.798   4.454  74.440  1.00  0.00    -0.211 Cl 
HETATM   20  C   UNL     1     -10.482   4.619  72.758  1.00  0.00    -0.201 A  
HETATM   21  C   UNL     1      -9.564   3.772  72.141  1.00  0.00    -0.212 A  
ENDBRANCH   9  15
BRANCH  12  22
HETATM   22  C   UNL     1      -8.051   9.110  65.630  1.00  0.00    -0.113 C  
HETATM   23  O   UNL     1     -10.299   9.997  66.068  1.00  0.00    -0.231 OA 
HETATM   24  C   UNL     1      -9.251   9.947  65.224  1.00  0.00    -0.226 C  
HETATM   25  O   UNL     1      -9.266  10.571  64.168  1.00  0.00    -0.208 OA 
ENDBRANCH  12  22
ENDBRANCH   2   3
TORSDOF 3
ENDMDL
MODEL      108
REMARK 921   NORMALIZED FREE ENERGY PREDICTED BY IDOCK:   -3.54 KCAL/MOL
REMARK 922        TOTAL FREE ENERGY PREDICTED BY IDOCK:   -5.10 KCAL/MOL
REMARK 923 INTER-LIGAND FREE ENERGY PREDICTED BY IDOCK:   -4.20 KCAL/MOL
REMARK 924 INTRA-LIGAND FREE ENERGY PREDICTED BY IDOCK:   -0.89 KCAL/MOL
REMARK 927      BINDING AFFINITY PREDICTED BY RF-SCORE:    0.00 PKD
ROOT
HETATM    1  C   UNL     1     -10.878   9.267  71.463  1.00  0.00    -0.372 C  
HETATM    2  O   UNL     1     -11.394   8.707  70.258  1.00  0.00    -0.235 OA 
ENDROOT
BRANCH   2   3
HETATM    3  C   UNL     1     -10.952   7.456  69.924  1.00  0.00    -0.223 A  
HETATM    4  C   UNL     1     -10.580   6.463  70.829  1.00  0.00    -0.288 A  
HETATM    5  C   UNL     1     -10.109   5.214  70.362  1.00  0.00    -0.333 A  
HETATM    6  C   UNL     1      -9.980   4.995  68.990  1.00  0.00    -0.181 A  
HETATM    7  C   UNL     1     -10.452   5.957  68.075  1.00  0.00    -0.294 A  
HETATM    8  N   UNL     1      -9.353   3.750  68.806  1.00  0.00    -0.157 N  
HETATM    9  C   UNL     1      -8.856   3.228  67.573  1.00  0.00    -0.133 C  
HETATM   10  C   UNL     1     -10.904   7.189  68.563  1.00  0.00    -0.141 A  
HETATM   11  C   UNL     1      -9.311   3.117  70.061  1.00  0.00    -0.156 A  
HETATM   12  C   UNL     1      -9.759   4.008  71.032  1.00  0.00    -0.252 A  
HETATM   13  O   UNL     1      -8.787   2.008  67.460  1.00  0.00    -0.109 OA 
HETATM   14  C   UNL     1      -8.762   1.743  70.300  1.00  0.00    -0.109 C  
BRANCH   9  15
HETATM   15  C   UNL     1      -8.435   4.033  66.389  1.00  0.00    -0.109 A  
HETATM   16  C   UNL     1      -9.183   3.916  65.207  1.00  0.00    -0.150 A  
HETATM   17  C   UNL     1      -7.324   4.886  66.414  1.00  0.00    -0.082 A  
HETATM   18  C   UNL     1      -7.061   5.723  65.325  1.00  0.00    -0.065 A  
HETATM   19 CL   UNL     1      -7.598   6.753  62.886  1.00  0.00    -0.088 Cl 
HETATM   20  C   UNL     1      -7.867   5.663  64.189  1.00  0.00    -0.112 A  
HETATM   21  C   UNL     1      -8.903   4.735  64.109  1.00  0.00    -0.122 A  
ENDBRANCH   9  15
BRANCH  12  22
HETATM   22  C   UNL     1      -9.797   3.784  72.523  1.00  0.00    -0.215 C  
HETATM   23  O   UNL     1      -7.754   5.128  72.758  1.00  0.00    -0.095 OA 
HETATM   24  C   UNL     1      -8.645   4.316  73.358  1.00  0.00    -0.093 C  
HETATM   25  O   UNL     1      -8.532   4.030  74.546  1.00  0.00    -0.091 OA 
ENDBRANCH  12  22
ENDBRANCH   2   3
TORSDOF 3
ENDMDL
MODEL      109
REMARK 921   NORMALIZED FREE ENERGY PREDICTED BY IDOCK:   -3.54 KCAL/MOL
REMARK 922        TOTAL FREE ENERGY PREDICTED BY IDOCK:   -5.09 KCAL/MOL
REMARK 923 INTER-LIGAND FREE ENERGY PREDICTED BY IDOCK:   -5.96 KCAL/MOL
REMARK 924 INTRA-LIGAND FREE ENERGY PREDICTED BY IDOCK:    0.87 KCAL/MOL
REMARK 927      BINDING AFFINITY PREDICTED BY RF-SCORE:    0.00 PKD
ROOT
HETATM    1  C   UNL     1     -10.544  14.953  65.626  1.00  0.00    -0.344 C  
HETATM    2  O   UNL     1     -10.285  15.127  67.016  1.00  0.00    -0.255 OA 
ENDROOT
BRANCH   2   3
HETATM    3  C   UNL     1     -10.743  14.147  67.853  1.00  0.00    -0.240 A  
HETATM    4  C   UNL     1     -11.634  14.337  68.909  1.00  0.00    -0.340 A  
HETATM    5  C   UNL     1     -12.013  13.247  69.727  1.00  0.00    -0.391 A  
HETATM    6  C   UNL     1     -11.459  11.988  69.497  1.00  0.00    -0.282 A  
HETATM    7  C   UNL     1     -10.640  11.771  68.370  1.00  0.00    -0.239 A  
HETATM    8  N   UNL     1     -11.877  11.133  70.532  1.00  0.00    -0.355 N  
HETATM    9  C   UNL     1     -11.389   9.817  70.792  1.00  0.00    -0.342 C  
HETATM   10  C   UNL     1     -10.272  12.869  67.582  1.00  0.00    -0.220 A  
HETATM   11  C   UNL     1     -12.867  11.818  71.260  1.00  0.00    -0.308 A  
HETATM   12  C   UNL     1     -12.954  13.124  70.787  1.00  0.00    -0.073 A  
HETATM   13  O   UNL     1     -12.137   9.038  71.376  1.00  0.00    -0.297 OA 
HETATM   14  C   UNL     1     -13.614  11.242  72.425  1.00  0.00     0.279 C  
BRANCH   9  15
HETATM   15  C   UNL     1     -10.053   9.285  70.391  1.00  0.00    -0.287 A  
HETATM   16  C   UNL     1      -9.129  10.173  69.821  1.00  0.00    -0.166 A  
HETATM   17  C   UNL     1      -9.698   7.939  70.554  1.00  0.00    -0.174 A  
HETATM   18  C   UNL     1      -8.387   7.526  70.295  1.00  0.00    -0.133 A  
HETATM   19 CL   UNL     1      -5.818   7.954  69.579  1.00  0.00    -0.026 Cl 
HETATM   20  C   UNL     1      -7.451   8.441  69.813  1.00  0.00    -0.072 A  
HETATM   21  C   UNL     1      -7.826   9.753  69.537  1.00  0.00    -0.128 A  
ENDBRANCH   9  15
BRANCH  12  22
HETATM   22  C   UNL     1     -13.817  14.234  71.335  1.00  0.00    -0.364 C  
HETATM   23  O   UNL     1     -11.817  15.289  72.294  1.00  0.00    -0.379 OA 
HETATM   24  C   UNL     1     -13.162  15.286  72.213  1.00  0.00    -0.398 C  
HETATM   25  O   UNL     1     -13.829  16.118  72.818  1.00  0.00    -0.429 OA 
ENDBRANCH  12  22
ENDBRANCH   2   3
TORSDOF 3
ENDMDL
MODEL      110
REMARK 921   NORMALIZED FREE ENERGY PREDICTED BY IDOCK:   -3.49 KCAL/MOL
REMARK 922        TOTAL FREE ENERGY PREDICTED BY IDOCK:   -5.04 KCAL/MOL
REMARK 923 INTER-LIGAND FREE ENERGY PREDICTED BY IDOCK:   -4.12 KCAL/MOL
REMARK 924 INTRA-LIGAND FREE ENERGY PREDICTED BY IDOCK:   -0.92 KCAL/MOL
REMARK 927      BINDING AFFINITY PREDICTED BY RF-SCORE:    0.00 PKD
ROOT
HETATM    1  C   UNL     1     -13.241  15.237  70.624  1.00  0.00    -0.323 C  
HETATM    2  O   UNL     1     -13.135  14.056  69.833  1.00  0.00     0.124 OA 
ENDROOT
BRANCH   2   3
HETATM    3  C   UNL     1     -11.871  13.657  69.493  1.00  0.00    -0.337 A  
HETATM    4  C   UNL     1     -10.844  14.501  69.071  1.00  0.00    -0.265 A  
HETATM    5  C   UNL     1      -9.584  13.967  68.717  1.00  0.00    -0.098 A  
HETATM    6  C   UNL     1      -9.385  12.586  68.753  1.00  0.00     0.132 A  
HETATM    7  C   UNL     1     -10.386  11.743  69.276  1.00  0.00     0.084 A  
HETATM    8  N   UNL     1      -8.116  12.316  68.211  1.00  0.00    -0.161 N  
HETATM    9  C   UNL     1      -7.595  11.028  67.881  1.00  0.00    -0.095 C  
HETATM   10  C   UNL     1     -11.628  12.296  69.611  1.00  0.00    -0.348 A  
HETATM   11  C   UNL     1      -7.458  13.549  68.061  1.00  0.00    -0.140 A  
HETATM   12  C   UNL     1      -8.350  14.577  68.354  1.00  0.00    -0.153 A  
HETATM   13  O   UNL     1      -6.375  10.891  67.885  1.00  0.00    -0.057 OA 
HETATM   14  C   UNL     1      -6.055  13.706  67.557  1.00  0.00    -0.024 C  
BRANCH   9  15
HETATM   15  C   UNL     1      -8.402   9.815  67.556  1.00  0.00    -0.114 A  
HETATM   16  C   UNL     1      -8.374   8.739  68.456  1.00  0.00    -0.129 A  
HETATM   17  C   UNL     1      -9.171   9.712  66.389  1.00  0.00    -0.205 A  
HETATM   18  C   UNL     1     -10.018   8.614  66.206  1.00  0.00    -0.287 A  
HETATM   19 CL   UNL     1     -11.155   6.288  66.972  1.00  0.00    -0.430 Cl 
HETATM   20  C   UNL     1     -10.050   7.592  67.154  1.00  0.00    -0.253 A  
HETATM   21  C   UNL     1      -9.202   7.630  68.259  1.00  0.00    -0.139 A  
ENDBRANCH   9  15
BRANCH  12  22
HETATM   22  C   UNL     1      -8.099  16.060  68.236  1.00  0.00    -0.150 C  
HETATM   23  O   UNL     1      -9.202  16.052  66.040  1.00  0.00    -0.324 OA 
HETATM   24  C   UNL     1      -8.481  16.751  66.938  1.00  0.00    -0.212 C  
HETATM   25  O   UNL     1      -8.160  17.913  66.716  1.00  0.00    -0.219 OA 
ENDBRANCH  12  22
ENDBRANCH   2   3
TORSDOF 3
ENDMDL
MODEL      111
REMARK 921   NORMALIZED FREE ENERGY PREDICTED BY IDOCK:   -3.43 KCAL/MOL
REMARK 922        TOTAL FREE ENERGY PREDICTED BY IDOCK:   -4.96 KCAL/MOL
REMARK 923 INTER-LIGAND FREE ENERGY PREDICTED BY IDOCK:   -4.02 KCAL/MOL
REMARK 924 INTRA-LIGAND FREE ENERGY PREDICTED BY IDOCK:   -0.94 KCAL/MOL
REMARK 927      BINDING AFFINITY PREDICTED BY RF-SCORE:    0.00 PKD
ROOT
HETATM    1  C   UNL     1     -11.084   6.579  66.867  1.00  0.00    -0.272 C  
HETATM    2  O   UNL     1     -10.475   7.868  66.878  1.00  0.00    -0.325 OA 
ENDROOT
BRANCH   2   3
HETATM    3  C   UNL     1      -9.751   8.194  67.992  1.00  0.00    -0.161 A  
HETATM    4  C   UNL     1      -8.550   8.903  67.995  1.00  0.00    -0.130 A  
HETATM    5  C   UNL     1      -7.875   9.156  69.212  1.00  0.00    -0.095 A  
HETATM    6  C   UNL     1      -8.396   8.656  70.406  1.00  0.00    -0.130 A  
HETATM    7  C   UNL     1      -9.659   8.030  70.417  1.00  0.00    -0.174 A  
HETATM    8  N   UNL     1      -7.464   8.911  71.427  1.00  0.00    -0.104 N  
HETATM    9  C   UNL     1      -7.507   8.398  72.759  1.00  0.00    -0.065 C  
HETATM   10  C   UNL     1     -10.301   7.783  69.198  1.00  0.00    -0.219 A  
HETATM   11  C   UNL     1      -6.485   9.767  70.891  1.00  0.00    -0.062 A  
HETATM   12  C   UNL     1      -6.715   9.917  69.526  1.00  0.00    -0.057 A  
HETATM   13  O   UNL     1      -6.950   9.050  73.637  1.00  0.00    -0.347 OA 
HETATM   14  C   UNL     1      -5.329  10.322  71.665  1.00  0.00    -0.011 C  
BRANCH   9  15
HETATM   15  C   UNL     1      -8.198   7.148  73.193  1.00  0.00    -0.127 A  
HETATM   16  C   UNL     1      -9.371   7.268  73.953  1.00  0.00    -0.304 A  
HETATM   17  C   UNL     1      -7.715   5.872  72.877  1.00  0.00    -0.100 A  
HETATM   18  C   UNL     1      -8.477   4.740  73.184  1.00  0.00    -0.103 A  
HETATM   19 CL   UNL     1     -10.666   3.496  74.161  1.00  0.00    -0.264 Cl 
HETATM   20  C   UNL     1      -9.688   4.878  73.862  1.00  0.00    -0.138 A  
HETATM   21  C   UNL     1     -10.119   6.134  74.283  1.00  0.00    -0.322 A  
ENDBRANCH   9  15
BRANCH  12  22
HETATM   22  C   UNL     1      -5.860  10.672  68.539  1.00  0.00    -0.040 C  
HETATM   23  O   UNL     1      -7.368  12.602  68.739  1.00  0.00    -0.107 OA 
HETATM   24  C   UNL     1      -6.327  12.046  68.089  1.00  0.00    -0.053 C  
HETATM   25  O   UNL     1      -5.769  12.642  67.173  1.00  0.00    -0.307 OA 
ENDBRANCH  12  22
ENDBRANCH   2   3
TORSDOF 3
ENDMDL
MODEL      112
REMARK 921   NORMALIZED FREE ENERGY PREDICTED BY IDOCK:   -3.39 KCAL/MOL
REMARK 922        TOTAL FREE ENERGY PREDICTED BY IDOCK:   -4.92 KCAL/MOL
REMARK 923 INTER-LIGAND FREE ENERGY PREDICTED BY IDOCK:   -4.03 KCAL/MOL
REMARK 924 INTRA-LIGAND FREE ENERGY PREDICTED BY IDOCK:   -0.89 KCAL/MOL
REMARK 927      BINDING AFFINITY PREDICTED BY RF-SCORE:    0.00 PKD
ROOT
HETATM    1  C   UNL     1     -12.993  11.852  62.938  1.00  0.00     0.616 C  
HETATM    2  O   UNL     1     -13.354  12.244  64.260  1.00  0.00    -0.777 OA 
ENDROOT
BRANCH   2   3
HETATM    3  C   UNL     1     -12.339  12.668  65.073  1.00  0.00    -0.497 A  
HETATM    4  C   UNL     1     -11.041  12.159  65.076  1.00  0.00    -0.368 A  
HETATM    5  C   UNL     1     -10.081  12.659  65.986  1.00  0.00    -0.274 A  
HETATM    6  C   UNL     1     -10.452  13.637  66.910  1.00  0.00    -0.272 A  
HETATM    7  C   UNL     1     -11.731  14.224  66.841  1.00  0.00    -0.430 A  
HETATM    8  N   UNL     1      -9.370  13.840  67.785  1.00  0.00    -0.205 N  
HETATM    9  C   UNL     1      -9.390  14.606  68.990  1.00  0.00    -0.118 C  
HETATM   10  C   UNL     1     -12.665  13.704  65.937  1.00  0.00    -0.428 A  
HETATM   11  C   UNL     1      -8.268  13.151  67.249  1.00  0.00    -0.168 A  
HETATM   12  C   UNL     1      -8.690  12.408  66.150  1.00  0.00     0.192 A  
HETATM   13  O   UNL     1      -8.328  15.087  69.375  1.00  0.00    -0.198 OA 
HETATM   14  C   UNL     1      -6.895  13.148  67.851  1.00  0.00    -0.135 C  
BRANCH   9  15
HETATM   15  C   UNL     1     -10.596  14.903  69.818  1.00  0.00    -0.189 A  
HETATM   16  C   UNL     1     -11.228  13.837  70.477  1.00  0.00     0.421 A  
HETATM   17  C   UNL     1     -11.118  16.196  69.950  1.00  0.00    -0.357 A  
HETATM   18  C   UNL     1     -12.161  16.440  70.851  1.00  0.00     0.267 A  
HETATM   19 CL   UNL     1     -13.942  15.696  72.739  1.00  0.00    -0.623 Cl 
HETATM   20  C   UNL     1     -12.722  15.384  71.569  1.00  0.00    -0.411 A  
HETATM   21  C   UNL     1     -12.287  14.078  71.356  1.00  0.00    -0.410 A  
ENDBRANCH   9  15
BRANCH  12  22
HETATM   22  C   UNL     1      -7.863  11.451  65.327  1.00  0.00     0.681 C  
HETATM   23  O   UNL     1      -8.717   9.584  66.677  1.00  0.00    -0.132 OA 
HETATM   24  C   UNL     1      -7.844   9.987  65.733  1.00  0.00    -0.128 C  
HETATM   25  O   UNL     1      -7.072   9.191  65.211  1.00  0.00    -0.086 OA 
ENDBRANCH  12  22
ENDBRANCH   2   3
TORSDOF 3
ENDMDL
MODEL      113
REMARK 921   NORMALIZED FREE ENERGY PREDICTED BY IDOCK:   -3.36 KCAL/MOL
REMARK 922        TOTAL FREE ENERGY PREDICTED BY IDOCK:   -4.89 KCAL/MOL
REMARK 923 INTER-LIGAND FREE ENERGY PREDICTED BY IDOCK:   -4.01 KCAL/MOL
REMARK 924 INTRA-LIGAND FREE ENERGY PREDICTED BY IDOCK:   -0.88 KCAL/MOL
REMARK 927      BINDING AFFINITY PREDICTED BY RF-SCORE:    0.00 PKD
ROOT
HETATM    1  C   UNL     1     -11.258   9.791  71.184  1.00  0.00    -0.374 C  
HETATM    2  O   UNL     1     -11.157  10.124  69.802  1.00  0.00    -0.246 OA 
ENDROOT
BRANCH   2   3
HETATM    3  C   UNL     1     -10.655   9.158  68.974  1.00  0.00    -0.199 A  
HETATM    4  C   UNL     1     -10.420   7.831  69.330  1.00  0.00    -0.221 A  
HETATM    5  C   UNL     1      -9.868   6.927  68.393  1.00  0.00    -0.143 A  
HETATM    6  C   UNL     1      -9.522   7.382  67.120  1.00  0.00    -0.149 A  
HETATM    7  C   UNL     1      -9.853   8.694  66.724  1.00  0.00    -0.322 A  
HETATM    8  N   UNL     1      -8.860   6.337  66.450  1.00  0.00    -0.139 N  
HETATM    9  C   UNL     1      -8.168   6.435  65.205  1.00  0.00    -0.134 C  
HETATM   10  C   UNL     1     -10.389   9.570  67.675  1.00  0.00    -0.299 A  
HETATM   11  C   UNL     1      -9.011   5.181  67.236  1.00  0.00    -0.112 A  
HETATM   12  C   UNL     1      -9.616   5.528  68.441  1.00  0.00    -0.155 A  
HETATM   13  O   UNL     1      -8.070   5.415  64.528  1.00  0.00    -0.110 OA 
HETATM   14  C   UNL     1      -8.492   3.826  66.859  1.00  0.00    -0.105 C  
BRANCH   9  15
HETATM   15  C   UNL     1      -7.574   7.678  64.630  1.00  0.00    -0.111 A  
HETATM   16  C   UNL     1      -6.392   8.173  65.200  1.00  0.00    -0.048 A  
HETATM   17  C   UNL     1      -8.156   8.364  63.556  1.00  0.00    -0.143 A  
HETATM   18  C   UNL     1      -7.482   9.438  62.966  1.00  0.00    -0.106 A  
HETATM   19 CL   UNL     1      -5.390  11.127  62.708  1.00  0.00    -0.125 Cl 
HETATM   20  C   UNL     1      -6.261   9.865  63.487  1.00  0.00    -0.123 A  
HETATM   21  C   UNL     1      -5.732   9.263  64.626  1.00  0.00    -0.064 A  
ENDBRANCH   9  15
BRANCH  12  22
HETATM   22  C   UNL     1      -9.887   4.622  69.616  1.00  0.00    -0.293 C  
HETATM   23  O   UNL     1      -7.853   5.462  70.707  1.00  0.00    -0.090 OA 
HETATM   24  C   UNL     1      -8.855   4.561  70.728  1.00  0.00    -0.101 C  
HETATM   25  O   UNL     1      -8.934   3.732  71.628  1.00  0.00    -0.100 OA 
ENDBRANCH  12  22
ENDBRANCH   2   3
TORSDOF 3
ENDMDL
MODEL      114
REMARK 921   NORMALIZED FREE ENERGY PREDICTED BY IDOCK:   -3.35 KCAL/MOL
REMARK 922        TOTAL FREE ENERGY PREDICTED BY IDOCK:   -4.87 KCAL/MOL
REMARK 923 INTER-LIGAND FREE ENERGY PREDICTED BY IDOCK:   -5.37 KCAL/MOL
REMARK 924 INTRA-LIGAND FREE ENERGY PREDICTED BY IDOCK:    0.50 KCAL/MOL
REMARK 927      BINDING AFFINITY PREDICTED BY RF-SCORE:    0.00 PKD
ROOT
HETATM    1  C   UNL     1      -6.839  11.069  66.790  1.00  0.00    -0.128 C  
HETATM    2  O   UNL     1      -6.256  12.207  67.419  1.00  0.00    -0.111 OA 
ENDROOT
BRANCH   2   3
HETATM    3  C   UNL     1      -7.109  13.211  67.784  1.00  0.00    -0.148 A  
HETATM    4  C   UNL     1      -8.449  13.046  68.131  1.00  0.00    -0.176 A  
HETATM    5  C   UNL     1      -9.244  14.168  68.463  1.00  0.00    -0.187 A  
HETATM    6  C   UNL     1      -8.689  15.447  68.401  1.00  0.00    -0.171 A  
HETATM    7  C   UNL     1      -7.312  15.608  68.151  1.00  0.00    -0.123 A  
HETATM    8  N   UNL     1      -9.719  16.378  68.622  1.00  0.00    -0.230 N  
HETATM    9  C   UNL     1      -9.631  17.793  68.452  1.00  0.00    -0.323 C  
HETATM   10  C   UNL     1      -6.550  14.481  67.816  1.00  0.00    -0.189 A  
HETATM   11  C   UNL     1     -10.849  15.654  69.044  1.00  0.00    -0.254 A  
HETATM   12  C   UNL     1     -10.579  14.293  68.939  1.00  0.00    -0.252 A  
HETATM   13  O   UNL     1     -10.393  18.493  69.113  1.00  0.00    -0.236 OA 
HETATM   14  C   UNL     1     -12.157  16.274  69.432  1.00  0.00     0.211 C  
BRANCH   9  15
HETATM   15  C   UNL     1      -8.671  18.509  67.561  1.00  0.00    -0.272 A  
HETATM   16  C   UNL     1      -8.296  19.817  67.904  1.00  0.00    -0.342 A  
HETATM   17  C   UNL     1      -8.145  17.928  66.400  1.00  0.00    -0.296 A  
HETATM   18  C   UNL     1      -7.141  18.587  65.682  1.00  0.00    -0.205 A  
HETATM   19 CL   UNL     1      -5.418  20.622  65.256  1.00  0.00    -0.218 Cl 
HETATM   20  C   UNL     1      -6.711  19.851  66.086  1.00  0.00    -0.228 A  
HETATM   21  C   UNL     1      -7.312  20.486  67.171  1.00  0.00    -0.374 A  
ENDBRANCH   9  15
BRANCH  12  22
HETATM   22  C   UNL     1     -11.534  13.154  69.198  1.00  0.00    -0.358 C  
HETATM   23  O   UNL     1     -11.939  14.034  71.456  1.00  0.00    -0.220 OA 
HETATM   24  C   UNL     1     -12.132  13.022  70.588  1.00  0.00    -0.248 C  
HETATM   25  O   UNL     1     -12.785  12.035  70.910  1.00  0.00    -0.294 OA 
ENDBRANCH  12  22
ENDBRANCH   2   3
TORSDOF 3
ENDMDL
MODEL      115
REMARK 921   NORMALIZED FREE ENERGY PREDICTED BY IDOCK:   -3.33 KCAL/MOL
REMARK 922        TOTAL FREE ENERGY PREDICTED BY IDOCK:   -4.84 KCAL/MOL
REMARK 923 INTER-LIGAND FREE ENERGY PREDICTED BY IDOCK:   -3.91 KCAL/MOL
REMARK 924 INTRA-LIGAND FREE ENERGY PREDICTED BY IDOCK:   -0.93 KCAL/MOL
REMARK 927      BINDING AFFINITY PREDICTED BY RF-SCORE:    0.00 PKD
ROOT
HETATM    1  C   UNL     1      -6.755  14.191  68.121  1.00  0.00    -0.124 C  
HETATM    2  O   UNL     1      -7.155  13.224  69.087  1.00  0.00    -0.086 OA 
ENDROOT
BRANCH   2   3
HETATM    3  C   UNL     1      -7.332  11.944  68.637  1.00  0.00    -0.115 A  
HETATM    4  C   UNL     1      -7.471  11.569  67.302  1.00  0.00    -0.139 A  
HETATM    5  C   UNL     1      -7.680  10.213  66.960  1.00  0.00    -0.096 A  
HETATM    6  C   UNL     1      -7.787   9.256  67.970  1.00  0.00    -0.092 A  
HETATM    7  C   UNL     1      -7.544   9.616  69.311  1.00  0.00    -0.091 A  
HETATM    8  N   UNL     1      -8.144   8.034  67.375  1.00  0.00    -0.121 N  
HETATM    9  C   UNL     1      -8.545   6.846  68.057  1.00  0.00    -0.123 C  
HETATM   10  C   UNL     1      -7.350  10.967  69.623  1.00  0.00    -0.068 A  
HETATM   11  C   UNL     1      -8.028   8.201  65.983  1.00  0.00    -0.100 A  
HETATM   12  C   UNL     1      -7.757   9.539  65.709  1.00  0.00    -0.100 A  
HETATM   13  O   UNL     1      -8.360   5.774  67.489  1.00  0.00    -0.105 OA 
HETATM   14  C   UNL     1      -8.273   7.119  64.976  1.00  0.00    -0.095 C  
BRANCH   9  15
HETATM   15  C   UNL     1      -9.148   6.782  69.422  1.00  0.00    -0.144 A  
HETATM   16  C   UNL     1      -8.377   6.246  70.464  1.00  0.00    -0.129 A  
HETATM   17  C   UNL     1     -10.449   7.228  69.692  1.00  0.00    -0.239 A  
HETATM   18  C   UNL     1     -10.910   7.279  71.012  1.00  0.00    -0.258 A  
HETATM   19 CL   UNL     1     -10.630   6.970  73.680  1.00  0.00    -0.406 Cl 
HETATM   20  C   UNL     1     -10.098   6.825  72.051  1.00  0.00    -0.182 A  
HETATM   21  C   UNL     1      -8.849   6.272  71.779  1.00  0.00    -0.137 A  
ENDBRANCH   9  15
BRANCH  12  22
HETATM   22  C   UNL     1      -7.644  10.184  64.350  1.00  0.00    -0.130 C  
HETATM   23  O   UNL     1     -10.083  10.482  64.310  1.00  0.00    -0.343 OA 
HETATM   24  C   UNL     1      -8.925  10.559  63.625  1.00  0.00    -0.218 C  
HETATM   25  O   UNL     1      -8.911  10.936  62.458  1.00  0.00    -0.271 OA 
ENDBRANCH  12  22
ENDBRANCH   2   3
TORSDOF 3
ENDMDL
MODEL      116
REMARK 921   NORMALIZED FREE ENERGY PREDICTED BY IDOCK:   -3.31 KCAL/MOL
REMARK 922        TOTAL FREE ENERGY PREDICTED BY IDOCK:   -4.82 KCAL/MOL
REMARK 923 INTER-LIGAND FREE ENERGY PREDICTED BY IDOCK:   -4.06 KCAL/MOL
REMARK 924 INTRA-LIGAND FREE ENERGY PREDICTED BY IDOCK:   -0.76 KCAL/MOL
REMARK 927      BINDING AFFINITY PREDICTED BY RF-SCORE:    0.00 PKD
ROOT
HETATM    1  C   UNL     1      -6.045   8.496  73.447  1.00  0.00    -0.110 C  
HETATM    2  O   UNL     1      -5.977   8.961  72.102  1.00  0.00    -0.072 OA 
ENDROOT
BRANCH   2   3
HETATM    3  C   UNL     1      -6.864   8.411  71.217  1.00  0.00    -0.065 A  
HETATM    4  C   UNL     1      -6.870   7.080  70.801  1.00  0.00    -0.054 A  
HETATM    5  C   UNL     1      -7.821   6.633  69.856  1.00  0.00    -0.115 A  
HETATM    6  C   UNL     1      -8.729   7.541  69.310  1.00  0.00    -0.136 A  
HETATM    7  C   UNL     1      -8.793   8.859  69.804  1.00  0.00    -0.144 A  
HETATM    8  N   UNL     1      -9.448   6.881  68.297  1.00  0.00    -0.127 N  
HETATM    9  C   UNL     1     -10.334   7.488  67.356  1.00  0.00    -0.276 C  
HETATM   10  C   UNL     1      -7.832   9.279  70.733  1.00  0.00    -0.174 A  
HETATM   11  C   UNL     1      -9.131   5.514  68.388  1.00  0.00    -0.111 A  
HETATM   12  C   UNL     1      -8.122   5.345  69.332  1.00  0.00    -0.093 A  
HETATM   13  O   UNL     1     -11.222   6.788  66.879  1.00  0.00    -0.375 OA 
HETATM   14  C   UNL     1      -9.723   4.447  67.516  1.00  0.00    -0.211 C  
BRANCH   9  15
HETATM   15  C   UNL     1     -10.299   8.914  66.916  1.00  0.00    -0.332 A  
HETATM   16  C   UNL     1     -11.100   9.840  67.602  1.00  0.00    -0.118 A  
HETATM   17  C   UNL     1      -9.508   9.353  65.845  1.00  0.00    -0.315 A  
HETATM   18  C   UNL     1      -9.404  10.720  65.569  1.00  0.00    -0.242 A  
HETATM   19 CL   UNL     1      -9.940  13.326  66.036  1.00  0.00    -0.296 Cl 
HETATM   20  C   UNL     1     -10.136  11.641  66.318  1.00  0.00    -0.221 A  
HETATM   21  C   UNL     1     -11.014  11.204  67.307  1.00  0.00    -0.354 A  
ENDBRANCH   9  15
BRANCH  12  22
HETATM   22  C   UNL     1      -7.415   4.060  69.686  1.00  0.00    -0.053 C  
HETATM   23  O   UNL     1      -5.781   4.491  67.902  1.00  0.00    -0.019 OA 
HETATM   24  C   UNL     1      -6.249   3.620  68.817  1.00  0.00    -0.029 C  
HETATM   25  O   UNL     1      -5.736   2.514  68.950  1.00  0.00    -0.021 OA 
ENDBRANCH  12  22
ENDBRANCH   2   3
TORSDOF 3
ENDMDL
MODEL      117
REMARK 921   NORMALIZED FREE ENERGY PREDICTED BY IDOCK:   -3.29 KCAL/MOL
REMARK 922        TOTAL FREE ENERGY PREDICTED BY IDOCK:   -4.80 KCAL/MOL
REMARK 923 INTER-LIGAND FREE ENERGY PREDICTED BY IDOCK:   -4.05 KCAL/MOL
REMARK 924 INTRA-LIGAND FREE ENERGY PREDICTED BY IDOCK:   -0.76 KCAL/MOL
REMARK 927      BINDING AFFINITY PREDICTED BY RF-SCORE:    0.00 PKD
ROOT
HETATM    1  C   UNL     1      -9.752  10.798  67.584  1.00  0.00    -0.166 C  
HETATM    2  O   UNL     1     -10.780   9.821  67.446  1.00  0.00    -0.268 OA 
ENDROOT
BRANCH   2   3
HETATM    3  C   UNL     1     -10.565   8.615  68.055  1.00  0.00    -0.145 A  
HETATM    4  C   UNL     1     -10.298   8.430  69.411  1.00  0.00    -0.217 A  
HETATM    5  C   UNL     1     -10.063   7.132  69.921  1.00  0.00    -0.197 A  
HETATM    6  C   UNL     1     -10.059   6.041  69.052  1.00  0.00    -0.176 A  
HETATM    7  C   UNL     1     -10.430   6.211  67.703  1.00  0.00    -0.295 A  
HETATM    8  N   UNL     1      -9.651   4.908  69.779  1.00  0.00    -0.154 N  
HETATM    9  C   UNL     1      -9.323   3.628  69.237  1.00  0.00    -0.175 C  
HETATM   10  C   UNL     1     -10.648   7.508  67.221  1.00  0.00    -0.394 A  
HETATM   11  C   UNL     1      -9.630   5.273  71.137  1.00  0.00    -0.163 A  
HETATM   12  C   UNL     1      -9.867   6.641  71.242  1.00  0.00    -0.190 A  
HETATM   13  O   UNL     1      -9.457   2.651  69.967  1.00  0.00    -0.132 OA 
HETATM   14  C   UNL     1      -9.292   4.340  72.260  1.00  0.00    -0.168 C  
BRANCH   9  15
HETATM   15  C   UNL     1      -8.857   3.362  67.844  1.00  0.00    -0.152 A  
HETATM   16  C   UNL     1      -9.515   2.369  67.103  1.00  0.00     0.024 A  
HETATM   17  C   UNL     1      -7.788   4.056  67.262  1.00  0.00    -0.091 A  
HETATM   18  C   UNL     1      -7.487   3.868  65.909  1.00  0.00    -0.081 A  
HETATM   19 CL   UNL     1      -7.898   2.774  63.474  1.00  0.00    -0.071 Cl 
HETATM   20  C   UNL     1      -8.209   2.942  65.157  1.00  0.00    -0.091 A  
HETATM   21  C   UNL     1      -9.195   2.162  65.758  1.00  0.00    -0.002 A  
ENDBRANCH   9  15
BRANCH  12  22
HETATM   22  C   UNL     1      -9.844   7.473  72.500  1.00  0.00    -0.226 C  
HETATM   23  O   UNL     1      -7.407   7.698  72.283  1.00  0.00    -0.070 OA 
HETATM   24  C   UNL     1      -8.496   7.907  73.049  1.00  0.00    -0.178 C  
HETATM   25  O   UNL     1      -8.397   8.444  74.147  1.00  0.00    -0.266 OA 
ENDBRANCH  12  22
ENDBRANCH   2   3
TORSDOF 3
ENDMDL
MODEL      118
REMARK 921   NORMALIZED FREE ENERGY PREDICTED BY IDOCK:   -3.24 KCAL/MOL
REMARK 922        TOTAL FREE ENERGY PREDICTED BY IDOCK:   -4.74 KCAL/MOL
REMARK 923 INTER-LIGAND FREE ENERGY PREDICTED BY IDOCK:   -3.84 KCAL/MOL
REMARK 924 INTRA-LIGAND FREE ENERGY PREDICTED BY IDOCK:   -0.90 KCAL/MOL
REMARK 927      BINDING AFFINITY PREDICTED BY RF-SCORE:    0.00 PKD
ROOT
HETATM    1  C   UNL     1     -12.278   6.877  71.853  1.00  0.00    -0.332 C  
HETATM    2  O   UNL     1     -12.282   6.534  70.470  1.00  0.00    -0.325 OA 
ENDROOT
BRANCH   2   3
HETATM    3  C   UNL     1     -11.112   6.726  69.788  1.00  0.00    -0.316 A  
HETATM    4  C   UNL     1     -10.488   7.956  69.585  1.00  0.00    -0.226 A  
HETATM    5  C   UNL     1      -9.292   8.033  68.834  1.00  0.00    -0.150 A  
HETATM    6  C   UNL     1      -8.760   6.876  68.263  1.00  0.00    -0.123 A  
HETATM    7  C   UNL     1      -9.331   5.620  68.553  1.00  0.00    -0.139 A  
HETATM    8  N   UNL     1      -7.674   7.250  67.452  1.00  0.00    -0.108 N  
HETATM    9  C   UNL     1      -6.972   6.409  66.537  1.00  0.00    -0.067 C  
HETATM   10  C   UNL     1     -10.520   5.573  69.290  1.00  0.00    -0.336 A  
HETATM   11  C   UNL     1      -7.410   8.606  67.715  1.00  0.00    -0.092 A  
HETATM   12  C   UNL     1      -8.403   9.108  68.552  1.00  0.00    -0.123 A  
HETATM   13  O   UNL     1      -5.808   6.698  66.278  1.00  0.00    -0.023 OA 
HETATM   14  C   UNL     1      -6.294   9.388  67.091  1.00  0.00    -0.066 C  
BRANCH   9  15
HETATM   15  C   UNL     1      -7.517   5.183  65.882  1.00  0.00    -0.082 A  
HETATM   16  C   UNL     1      -8.508   5.339  64.901  1.00  0.00    -0.150 A  
HETATM   17  C   UNL     1      -7.084   3.894  66.218  1.00  0.00    -0.064 A  
HETATM   18  C   UNL     1      -7.522   2.793  65.474  1.00  0.00    -0.072 A  
HETATM   19 CL   UNL     1      -8.911   1.634  63.469  1.00  0.00    -0.087 Cl 
HETATM   20  C   UNL     1      -8.440   2.973  64.440  1.00  0.00    -0.093 A  
HETATM   21  C   UNL     1      -8.965   4.236  64.176  1.00  0.00    -0.148 A  
ENDBRANCH   9  15
BRANCH  12  22
HETATM   22  C   UNL     1      -8.566  10.534  69.016  1.00  0.00    -0.160 C  
HETATM   23  O   UNL     1      -9.833  11.033  66.971  1.00  0.00    -0.177 OA 
HETATM   24  C   UNL     1      -9.240  11.520  68.078  1.00  0.00    -0.175 C  
HETATM   25  O   UNL     1      -9.261  12.722  68.323  1.00  0.00    -0.204 OA 
ENDBRANCH  12  22
ENDBRANCH   2   3
TORSDOF 3
ENDMDL
MODEL      119
REMARK 921   NORMALIZED FREE ENERGY PREDICTED BY IDOCK:   -3.09 KCAL/MOL
REMARK 922        TOTAL FREE ENERGY PREDICTED BY IDOCK:   -4.56 KCAL/MOL
REMARK 923 INTER-LIGAND FREE ENERGY PREDICTED BY IDOCK:   -3.70 KCAL/MOL
REMARK 924 INTRA-LIGAND FREE ENERGY PREDICTED BY IDOCK:   -0.86 KCAL/MOL
REMARK 927      BINDING AFFINITY PREDICTED BY RF-SCORE:    0.00 PKD
ROOT
HETATM    1  C   UNL     1     -10.638   5.497  71.807  1.00  0.00    -0.235 C  
HETATM    2  O   UNL     1     -11.049   6.723  71.208  1.00  0.00    -0.245 OA 
ENDROOT
BRANCH   2   3
HETATM    3  C   UNL     1     -10.231   7.238  70.240  1.00  0.00    -0.199 A  
HETATM    4  C   UNL     1      -8.919   6.834  69.993  1.00  0.00    -0.141 A  
HETATM    5  C   UNL     1      -8.159   7.463  68.981  1.00  0.00    -0.127 A  
HETATM    6  C   UNL     1      -8.715   8.519  68.257  1.00  0.00    -0.143 A  
HETATM    7  C   UNL     1     -10.071   8.859  68.434  1.00  0.00    -0.215 A  
HETATM    8  N   UNL     1      -7.710   9.060  67.435  1.00  0.00    -0.092 N  
HETATM    9  C   UNL     1      -7.793  10.269  66.681  1.00  0.00    -0.116 C  
HETATM   10  C   UNL     1     -10.799   8.227  69.450  1.00  0.00    -0.095 A  
HETATM   11  C   UNL     1      -6.610   8.184  67.496  1.00  0.00    -0.058 A  
HETATM   12  C   UNL     1      -6.864   7.205  68.451  1.00  0.00    -0.073 A  
HETATM   13  O   UNL     1      -7.087  10.365  65.681  1.00  0.00    -0.138 OA 
HETATM   14  C   UNL     1      -5.339   8.367  66.724  1.00  0.00    -0.032 C  
BRANCH   9  15
HETATM   15  C   UNL     1      -8.689  11.425  66.979  1.00  0.00    -0.160 A  
HETATM   16  C   UNL     1      -9.866  11.564  66.227  1.00  0.00    -0.245 A  
HETATM   17  C   UNL     1      -8.392  12.372  67.967  1.00  0.00    -0.170 A  
HETATM   18  C   UNL     1      -9.334  13.351  68.302  1.00  0.00    -0.205 A  
HETATM   19 CL   UNL     1     -11.734  14.569  68.077  1.00  0.00    -0.365 Cl 
HETATM   20  C   UNL     1     -10.541  13.423  67.607  1.00  0.00    -0.243 A  
HETATM   21  C   UNL     1     -10.794  12.559  66.545  1.00  0.00    -0.287 A  
ENDBRANCH   9  15
BRANCH  12  22
HETATM   22  C   UNL     1      -5.924   6.117  68.909  1.00  0.00    -0.024 C  
HETATM   23  O   UNL     1      -6.831   4.630  67.177  1.00  0.00    -0.053 OA 
HETATM   24  C   UNL     1      -6.038   4.749  68.260  1.00  0.00    -0.031 C  
HETATM   25  O   UNL     1      -5.420   3.783  68.694  1.00  0.00    -0.012 OA 
ENDBRANCH  12  22
ENDBRANCH   2   3
TORSDOF 3
ENDMDL
MODEL      120
REMARK 921   NORMALIZED FREE ENERGY PREDICTED BY IDOCK:   -2.96 KCAL/MOL
REMARK 922        TOTAL FREE ENERGY PREDICTED BY IDOCK:   -4.42 KCAL/MOL
REMARK 923 INTER-LIGAND FREE ENERGY PREDICTED BY IDOCK:   -4.23 KCAL/MOL
REMARK 924 INTRA-LIGAND FREE ENERGY PREDICTED BY IDOCK:   -0.19 KCAL/MOL
REMARK 927      BINDING AFFINITY PREDICTED BY RF-SCORE:    0.00 PKD
ROOT
HETATM    1  C   UNL     1      -5.475   8.575  66.703  1.00  0.00    -0.032 C  
HETATM    2  O   UNL     1      -6.809   8.928  66.344  1.00  0.00    -0.073 OA 
ENDROOT
BRANCH   2   3
HETATM    3  C   UNL     1      -7.770   8.742  67.299  1.00  0.00    -0.096 A  
HETATM    4  C   UNL     1      -8.551   9.749  67.866  1.00  0.00    -0.125 A  
HETATM    5  C   UNL     1      -9.496   9.438  68.870  1.00  0.00    -0.154 A  
HETATM    6  C   UNL     1      -9.615   8.123  69.321  1.00  0.00    -0.164 A  
HETATM    7  C   UNL     1      -8.902   7.089  68.680  1.00  0.00    -0.128 A  
HETATM    8  N   UNL     1     -10.500   8.116  70.414  1.00  0.00    -0.211 N  
HETATM    9  C   UNL     1     -10.752   7.018  71.292  1.00  0.00    -0.221 C  
HETATM   10  C   UNL     1      -7.966   7.426  67.695  1.00  0.00    -0.114 A  
HETATM   11  C   UNL     1     -11.090   9.391  70.476  1.00  0.00    -0.273 A  
HETATM   12  C   UNL     1     -10.475  10.221  69.543  1.00  0.00    -0.268 A  
HETATM   13  O   UNL     1     -11.839   6.983  71.859  1.00  0.00    -0.281 OA 
HETATM   14  C   UNL     1     -12.134   9.793  71.473  1.00  0.00    -0.493 C  
BRANCH   9  15
HETATM   15  C   UNL     1      -9.819   5.885  71.564  1.00  0.00    -0.201 A  
HETATM   16  C   UNL     1     -10.369   4.646  71.928  1.00  0.00    -0.220 A  
HETATM   17  C   UNL     1      -8.427   6.017  71.479  1.00  0.00    -0.128 A  
HETATM   18  C   UNL     1      -7.609   4.889  71.603  1.00  0.00    -0.095 A  
HETATM   19 CL   UNL     1      -7.179   2.245  71.941  1.00  0.00    -0.038 Cl 
HETATM   20  C   UNL     1      -8.176   3.645  71.876  1.00  0.00    -0.071 A  
HETATM   21  C   UNL     1      -9.549   3.525  72.079  1.00  0.00    -0.212 A  
ENDBRANCH   9  15
BRANCH  12  22
HETATM   22  C   UNL     1     -10.729  11.692  69.329  1.00  0.00    -0.144 C  
HETATM   23  O   UNL     1     -12.500  11.133  67.721  1.00  0.00     0.189 OA 
HETATM   24  C   UNL     1     -11.740  12.100  68.271  1.00  0.00    -0.342 C  
HETATM   25  O   UNL     1     -11.875  13.271  67.936  1.00  0.00    -0.337 OA 
ENDBRANCH  12  22
ENDBRANCH   2   3
TORSDOF 3
ENDMDL
MODEL      121
REMARK 921   NORMALIZED FREE ENERGY PREDICTED BY IDOCK:   -2.96 KCAL/MOL
REMARK 922        TOTAL FREE ENERGY PREDICTED BY IDOCK:   -4.41 KCAL/MOL
REMARK 923 INTER-LIGAND FREE ENERGY PREDICTED BY IDOCK:   -3.50 KCAL/MOL
REMARK 924 INTRA-LIGAND FREE ENERGY PREDICTED BY IDOCK:   -0.91 KCAL/MOL
REMARK 927      BINDING AFFINITY PREDICTED BY RF-SCORE:    0.00 PKD
ROOT
HETATM    1  C   UNL     1     -11.433   8.959  72.014  1.00  0.00    -0.361 C  
HETATM    2  O   UNL     1     -11.775   8.729  70.650  1.00  0.00    -0.260 OA 
ENDROOT
BRANCH   2   3
HETATM    3  C   UNL     1     -11.060   7.765  69.994  1.00  0.00    -0.175 A  
HETATM    4  C   UNL     1     -10.736   6.509  70.506  1.00  0.00    -0.305 A  
HETATM    5  C   UNL     1      -9.963   5.605  69.741  1.00  0.00    -0.264 A  
HETATM    6  C   UNL     1      -9.491   5.992  68.486  1.00  0.00    -0.120 A  
HETATM    7  C   UNL     1      -9.903   7.217  67.925  1.00  0.00    -0.172 A  
HETATM    8  N   UNL     1      -8.633   4.983  68.015  1.00  0.00    -0.103 N  
HETATM    9  C   UNL     1      -7.787   5.060  66.867  1.00  0.00    -0.096 C  
HETATM   10  C   UNL     1     -10.659   8.098  68.707  1.00  0.00    -0.149 A  
HETATM   11  C   UNL     1      -8.767   3.885  68.884  1.00  0.00    -0.094 A  
HETATM   12  C   UNL     1      -9.571   4.255  69.959  1.00  0.00    -0.274 A  
HETATM   13  O   UNL     1      -7.485   4.008  66.312  1.00  0.00    -0.084 OA 
HETATM   14  C   UNL     1      -8.058   2.576  68.712  1.00  0.00    -0.066 C  
BRANCH   9  15
HETATM   15  C   UNL     1      -7.255   6.314  66.256  1.00  0.00    -0.069 A  
HETATM   16  C   UNL     1      -7.608   6.607  64.930  1.00  0.00    -0.101 A  
HETATM   17  C   UNL     1      -6.415   7.193  66.951  1.00  0.00    -0.054 A  
HETATM   18  C   UNL     1      -6.063   8.421  66.381  1.00  0.00    -0.052 A  
HETATM   19 CL   UNL     1      -6.139  10.286  64.429  1.00  0.00    -0.135 Cl 
HETATM   20  C   UNL     1      -6.497   8.742  65.095  1.00  0.00    -0.064 A  
HETATM   21  C   UNL     1      -7.234   7.823  64.351  1.00  0.00    -0.078 A  
ENDBRANCH   9  15
BRANCH  12  22
HETATM   22  C   UNL     1      -9.906   3.422  71.171  1.00  0.00    -0.159 C  
HETATM   23  O   UNL     1      -8.019   4.444  72.369  1.00  0.00    -0.089 OA 
HETATM   24  C   UNL     1      -8.977   3.496  72.371  1.00  0.00    -0.096 C  
HETATM   25  O   UNL     1      -9.099   2.730  73.321  1.00  0.00    -0.084 OA 
ENDBRANCH  12  22
ENDBRANCH   2   3
TORSDOF 3
ENDMDL
MODEL      122
REMARK 921   NORMALIZED FREE ENERGY PREDICTED BY IDOCK:   -2.95 KCAL/MOL
REMARK 922        TOTAL FREE ENERGY PREDICTED BY IDOCK:   -4.40 KCAL/MOL
REMARK 923 INTER-LIGAND FREE ENERGY PREDICTED BY IDOCK:   -3.53 KCAL/MOL
REMARK 924 INTRA-LIGAND FREE ENERGY PREDICTED BY IDOCK:   -0.86 KCAL/MOL
REMARK 927      BINDING AFFINITY PREDICTED BY RF-SCORE:    0.00 PKD
ROOT
HETATM    1  C   UNL     1     -11.754  11.335  68.969  1.00  0.00    -0.342 C  
HETATM    2  O   UNL     1     -11.173  10.879  67.751  1.00  0.00    -0.289 OA 
ENDROOT
BRANCH   2   3
HETATM    3  C   UNL     1     -10.276   9.851  67.847  1.00  0.00    -0.193 A  
HETATM    4  C   UNL     1      -8.974   9.957  68.335  1.00  0.00    -0.120 A  
HETATM    5  C   UNL     1      -8.126   8.826  68.358  1.00  0.00    -0.117 A  
HETATM    6  C   UNL     1      -8.586   7.610  67.850  1.00  0.00    -0.122 A  
HETATM    7  C   UNL     1      -9.932   7.475  67.453  1.00  0.00    -0.246 A  
HETATM    8  N   UNL     1      -7.510   6.705  67.848  1.00  0.00    -0.096 N  
HETATM    9  C   UNL     1      -7.490   5.416  67.234  1.00  0.00    -0.084 C  
HETATM   10  C   UNL     1     -10.747   8.613  67.431  1.00  0.00    -0.212 A  
HETATM   11  C   UNL     1      -6.461   7.307  68.567  1.00  0.00    -0.040 A  
HETATM   12  C   UNL     1      -6.817   8.616  68.876  1.00  0.00    -0.061 A  
HETATM   13  O   UNL     1      -6.723   4.577  67.698  1.00  0.00    -0.046 OA 
HETATM   14  C   UNL     1      -5.140   6.655  68.843  1.00  0.00    -0.012 C  
BRANCH   9  15
HETATM   15  C   UNL     1      -8.342   4.980  66.088  1.00  0.00    -0.113 A  
HETATM   16  C   UNL     1      -8.050   5.489  64.813  1.00  0.00    -0.126 A  
HETATM   17  C   UNL     1      -9.417   4.096  66.243  1.00  0.00    -0.193 A  
HETATM   18  C   UNL     1     -10.090   3.610  65.116  1.00  0.00    -0.028 A  
HETATM   19 CL   UNL     1     -10.498   3.393  62.456  1.00  0.00    -0.158 Cl 
HETATM   20  C   UNL     1      -9.731   4.056  63.845  1.00  0.00    -0.157 A  
HETATM   21  C   UNL     1      -8.741   5.023  63.691  1.00  0.00    -0.079 A  
ENDBRANCH   9  15
BRANCH  12  22
HETATM   22  C   UNL     1      -5.961   9.655  69.557  1.00  0.00    -0.033 C  
HETATM   23  O   UNL     1      -7.172   9.247  71.656  1.00  0.00    -0.321 OA 
HETATM   24  C   UNL     1      -6.278  10.012  70.999  1.00  0.00    -0.005 C  
HETATM   25  O   UNL     1      -5.729  10.955  71.558  1.00  0.00    -0.342 OA 
ENDBRANCH  12  22
ENDBRANCH   2   3
TORSDOF 3
ENDMDL
MODEL      123
REMARK 921   NORMALIZED FREE ENERGY PREDICTED BY IDOCK:   -2.83 KCAL/MOL
REMARK 922        TOTAL FREE ENERGY PREDICTED BY IDOCK:   -4.26 KCAL/MOL
REMARK 923 INTER-LIGAND FREE ENERGY PREDICTED BY IDOCK:   -3.35 KCAL/MOL
REMARK 924 INTRA-LIGAND FREE ENERGY PREDICTED BY IDOCK:   -0.91 KCAL/MOL
REMARK 927      BINDING AFFINITY PREDICTED BY RF-SCORE:    0.00 PKD
ROOT
HETATM    1  C   UNL     1     -10.820   6.263  66.770  1.00  0.00    -0.296 C  
HETATM    2  O   UNL     1     -10.458   7.532  67.307  1.00  0.00    -0.262 OA 
ENDROOT
BRANCH   2   3
HETATM    3  C   UNL     1      -9.816   7.526  68.515  1.00  0.00    -0.165 A  
HETATM    4  C   UNL     1      -8.535   8.024  68.751  1.00  0.00    -0.127 A  
HETATM    5  C   UNL     1      -7.962   7.935  70.041  1.00  0.00    -0.111 A  
HETATM    6  C   UNL     1      -8.670   7.308  71.067  1.00  0.00    -0.140 A  
HETATM    7  C   UNL     1     -10.002   6.897  70.858  1.00  0.00    -0.200 A  
HETATM    8  N   UNL     1      -7.823   7.217  72.186  1.00  0.00    -0.089 N  
HETATM    9  C   UNL     1      -8.077   6.477  73.381  1.00  0.00    -0.108 C  
HETATM   10  C   UNL     1     -10.541   6.988  69.569  1.00  0.00    -0.253 A  
HETATM   11  C   UNL     1      -6.684   7.993  71.908  1.00  0.00    -0.067 A  
HETATM   12  C   UNL     1      -6.746   8.432  70.588  1.00  0.00    -0.038 A  
HETATM   13  O   UNL     1      -7.529   6.856  74.411  1.00  0.00    -0.103 OA 
HETATM   14  C   UNL     1      -5.549   8.205  72.864  1.00  0.00    -0.049 C  
BRANCH   9  15
HETATM   15  C   UNL     1      -8.977   5.292  73.501  1.00  0.00    -0.121 A  
HETATM   16  C   UNL     1      -8.614   4.113  72.833  1.00  0.00    -0.100 A  
HETATM   17  C   UNL     1     -10.165   5.320  74.243  1.00  0.00    -0.291 A  
HETATM   18  C   UNL     1     -10.895   4.143  74.439  1.00  0.00    -0.104 A  
HETATM   19 CL   UNL     1     -11.320   1.491  74.156  1.00  0.00    -0.200 Cl 
HETATM   20  C   UNL     1     -10.473   2.955  73.843  1.00  0.00    -0.165 A  
HETATM   21  C   UNL     1      -9.358   2.943  73.008  1.00  0.00    -0.122 A  
ENDBRANCH   9  15
BRANCH  12  22
HETATM   22  C   UNL     1      -5.696   9.215  69.840  1.00  0.00    -0.031 C  
HETATM   23  O   UNL     1      -6.863  11.297  70.422  1.00  0.00    -0.110 OA 
HETATM   24  C   UNL     1      -5.882  10.716  69.704  1.00  0.00    -0.049 C  
HETATM   25  O   UNL     1      -5.156  11.385  68.977  1.00  0.00    -0.044 OA 
ENDBRANCH  12  22
ENDBRANCH   2   3
TORSDOF 3
ENDMDL
MODEL      124
REMARK 921   NORMALIZED FREE ENERGY PREDICTED BY IDOCK:   -2.80 KCAL/MOL
REMARK 922        TOTAL FREE ENERGY PREDICTED BY IDOCK:   -4.23 KCAL/MOL
REMARK 923 INTER-LIGAND FREE ENERGY PREDICTED BY IDOCK:   -3.74 KCAL/MOL
REMARK 924 INTRA-LIGAND FREE ENERGY PREDICTED BY IDOCK:   -0.49 KCAL/MOL
REMARK 927      BINDING AFFINITY PREDICTED BY RF-SCORE:    0.00 PKD
ROOT
HETATM    1  C   UNL     1      -7.591  20.135  65.804  1.00  0.00    -0.220 C  
HETATM    2  O   UNL     1      -7.500  18.740  65.528  1.00  0.00    -0.493 OA 
ENDROOT
BRANCH   2   3
HETATM    3  C   UNL     1      -7.256  17.919  66.594  1.00  0.00    -0.219 A  
HETATM    4  C   UNL     1      -6.565  18.279  67.750  1.00  0.00    -0.204 A  
HETATM    5  C   UNL     1      -6.350  17.331  68.777  1.00  0.00    -0.181 A  
HETATM    6  C   UNL     1      -6.796  16.019  68.608  1.00  0.00    -0.131 A  
HETATM    7  C   UNL     1      -7.583  15.680  67.489  1.00  0.00    -0.200 A  
HETATM    8  N   UNL     1      -6.322  15.256  69.690  1.00  0.00    -0.143 N  
HETATM    9  C   UNL     1      -6.381  13.835  69.813  1.00  0.00    -0.112 C  
HETATM   10  C   UNL     1      -7.774  16.635  66.483  1.00  0.00    -0.337 A  
HETATM   11  C   UNL     1      -5.783  16.156  70.627  1.00  0.00     0.016 A  
HETATM   12  C   UNL     1      -5.779  17.435  70.076  1.00  0.00    -0.243 A  
HETATM   13  O   UNL     1      -6.388  13.363  70.946  1.00  0.00    -0.019 OA 
HETATM   14  C   UNL     1      -5.210  15.757  71.953  1.00  0.00     0.141 C  
BRANCH   9  15
HETATM   15  C   UNL     1      -6.466  12.862  68.684  1.00  0.00    -0.087 A  
HETATM   16  C   UNL     1      -7.617  12.066  68.579  1.00  0.00    -0.126 A  
HETATM   17  C   UNL     1      -5.442  12.713  67.740  1.00  0.00    -0.116 A  
HETATM   18  C   UNL     1      -5.635  11.893  66.623  1.00  0.00     0.019 A  
HETATM   19 CL   UNL     1      -7.095  10.236  65.069  1.00  0.00    -0.132 Cl 
HETATM   20  C   UNL     1      -6.822  11.174  66.483  1.00  0.00    -0.126 A  
HETATM   21  C   UNL     1      -7.797  11.226  67.476  1.00  0.00    -0.123 A  
ENDBRANCH   9  15
BRANCH  12  22
HETATM   22  C   UNL     1      -5.208  18.688  70.692  1.00  0.00    -0.250 C  
HETATM   23  O   UNL     1      -7.409  19.762  70.497  1.00  0.00     0.328 OA 
HETATM   24  C   UNL     1      -6.101  19.913  70.784  1.00  0.00    -0.245 C  
HETATM   25  O   UNL     1      -5.655  21.004  71.123  1.00  0.00    -0.535 OA 
ENDBRANCH  12  22
ENDBRANCH   2   3
TORSDOF 3
ENDMDL
MODEL      125
REMARK 921   NORMALIZED FREE ENERGY PREDICTED BY IDOCK:   -2.76 KCAL/MOL
REMARK 922        TOTAL FREE ENERGY PREDICTED BY IDOCK:   -4.18 KCAL/MOL
REMARK 923 INTER-LIGAND FREE ENERGY PREDICTED BY IDOCK:   -5.56 KCAL/MOL
REMARK 924 INTRA-LIGAND FREE ENERGY PREDICTED BY IDOCK:    1.39 KCAL/MOL
REMARK 927      BINDING AFFINITY PREDICTED BY RF-SCORE:    0.00 PKD
ROOT
HETATM    1  C   UNL     1     -13.327  13.132  72.280  1.00  0.00    -0.522 C  
HETATM    2  O   UNL     1     -13.056  11.804  71.843  1.00  0.00    -0.468 OA 
ENDROOT
BRANCH   2   3
HETATM    3  C   UNL     1     -12.224  11.669  70.765  1.00  0.00    -0.344 A  
HETATM    4  C   UNL     1     -11.730  10.463  70.272  1.00  0.00    -0.406 A  
HETATM    5  C   UNL     1     -10.850  10.452  69.165  1.00  0.00    -0.274 A  
HETATM    6  C   UNL     1     -10.446  11.660  68.594  1.00  0.00    -0.213 A  
HETATM    7  C   UNL     1     -11.024  12.872  69.024  1.00  0.00    -0.244 A  
HETATM    8  N   UNL     1      -9.465  11.377  67.628  1.00  0.00    -0.160 N  
HETATM    9  C   UNL     1      -8.648  12.331  66.948  1.00  0.00    -0.182 C  
HETATM   10  C   UNL     1     -11.885  12.855  70.128  1.00  0.00    -0.319 A  
HETATM   11  C   UNL     1      -9.443   9.982  67.456  1.00  0.00    -0.148 A  
HETATM   12  C   UNL     1     -10.278   9.396  68.402  1.00  0.00    -0.224 A  
HETATM   13  O   UNL     1      -8.213  12.021  65.843  1.00  0.00     0.292 OA 
HETATM   14  C   UNL     1      -8.566   9.262  66.476  1.00  0.00    -0.139 C  
BRANCH   9  15
HETATM   15  C   UNL     1      -8.294  13.693  67.446  1.00  0.00    -0.198 A  
HETATM   16  C   UNL     1      -8.666  14.801  66.670  1.00  0.00    -0.229 A  
HETATM   17  C   UNL     1      -7.602  13.899  68.647  1.00  0.00    -0.130 A  
HETATM   18  C   UNL     1      -7.424  15.198  69.136  1.00  0.00    -0.176 A  
HETATM   19 CL   UNL     1      -7.740  17.878  69.040  1.00  0.00    -0.183 Cl 
HETATM   20  C   UNL     1      -7.880  16.289  68.397  1.00  0.00    -0.168 A  
HETATM   21  C   UNL     1      -8.464  16.099  67.147  1.00  0.00    -0.218 A  
ENDBRANCH   9  15
BRANCH  12  22
HETATM   22  C   UNL     1     -10.487   7.921  68.642  1.00  0.00    -0.196 C  
HETATM   23  O   UNL     1     -10.926   8.388  71.014  1.00  0.00    -0.234 OA 
HETATM   24  C   UNL     1     -10.720   7.451  70.068  1.00  0.00    -0.246 C  
HETATM   25  O   UNL     1     -10.736   6.259  70.352  1.00  0.00    -0.232 OA 
ENDBRANCH  12  22
ENDBRANCH   2   3
TORSDOF 3
ENDMDL
MODEL      126
REMARK 921   NORMALIZED FREE ENERGY PREDICTED BY IDOCK:   -2.74 KCAL/MOL
REMARK 922        TOTAL FREE ENERGY PREDICTED BY IDOCK:   -4.15 KCAL/MOL
REMARK 923 INTER-LIGAND FREE ENERGY PREDICTED BY IDOCK:   -3.57 KCAL/MOL
REMARK 924 INTRA-LIGAND FREE ENERGY PREDICTED BY IDOCK:   -0.58 KCAL/MOL
REMARK 927      BINDING AFFINITY PREDICTED BY RF-SCORE:    0.00 PKD
ROOT
HETATM    1  C   UNL     1     -10.428   6.852  66.893  1.00  0.00    -0.279 C  
HETATM    2  O   UNL     1     -10.800   8.212  67.097  1.00  0.00    -0.261 OA 
ENDROOT
BRANCH   2   3
HETATM    3  C   UNL     1      -9.829   9.049  67.575  1.00  0.00    -0.179 A  
HETATM    4  C   UNL     1      -8.985   8.775  68.650  1.00  0.00    -0.138 A  
HETATM    5  C   UNL     1      -8.035   9.734  69.074  1.00  0.00    -0.096 A  
HETATM    6  C   UNL     1      -7.976  10.973  68.435  1.00  0.00    -0.131 A  
HETATM    7  C   UNL     1      -8.755  11.213  67.286  1.00  0.00    -0.139 A  
HETATM    8  N   UNL     1      -7.070  11.783  69.142  1.00  0.00    -0.098 N  
HETATM    9  C   UNL     1      -6.857  13.182  68.949  1.00  0.00    -0.103 C  
HETATM   10  C   UNL     1      -9.694  10.250  66.893  1.00  0.00    -0.229 A  
HETATM   11  C   UNL     1      -6.412  10.956  70.070  1.00  0.00    -0.151 A  
HETATM   12  C   UNL     1      -7.002   9.696  70.052  1.00  0.00    -0.093 A  
HETATM   13  O   UNL     1      -5.760  13.637  69.259  1.00  0.00    -0.078 OA 
HETATM   14  C   UNL     1      -5.327  11.416  70.996  1.00  0.00    -0.099 C  
BRANCH   9  15
HETATM   15  C   UNL     1      -7.841  14.145  68.372  1.00  0.00    -0.143 A  
HETATM   16  C   UNL     1      -8.659  14.865  69.256  1.00  0.00    -0.106 A  
HETATM   17  C   UNL     1      -7.980  14.344  66.993  1.00  0.00    -0.045 A  
HETATM   18  C   UNL     1      -8.815  15.360  66.515  1.00  0.00    -0.347 A  
HETATM   19 CL   UNL     1     -10.512  17.437  66.827  1.00  0.00    -0.292 Cl 
HETATM   20  C   UNL     1      -9.556  16.131  67.409  1.00  0.00    -0.229 A  
HETATM   21  C   UNL     1      -9.513  15.862  68.775  1.00  0.00    -0.221 A  
ENDBRANCH   9  15
BRANCH  12  22
HETATM   22  C   UNL     1      -6.677   8.526  70.947  1.00  0.00    -0.046 C  
HETATM   23  O   UNL     1      -5.330   7.544  69.142  1.00  0.00    -0.015 OA 
HETATM   24  C   UNL     1      -5.876   7.375  70.362  1.00  0.00    -0.024 C  
HETATM   25  O   UNL     1      -5.716   6.329  70.981  1.00  0.00    -0.024 OA 
ENDBRANCH  12  22
ENDBRANCH   2   3
TORSDOF 3
ENDMDL
MODEL      127
REMARK 921   NORMALIZED FREE ENERGY PREDICTED BY IDOCK:   -2.72 KCAL/MOL
REMARK 922        TOTAL FREE ENERGY PREDICTED BY IDOCK:   -4.13 KCAL/MOL
REMARK 923 INTER-LIGAND FREE ENERGY PREDICTED BY IDOCK:   -6.65 KCAL/MOL
REMARK 924 INTRA-LIGAND FREE ENERGY PREDICTED BY IDOCK:    2.53 KCAL/MOL
REMARK 927      BINDING AFFINITY PREDICTED BY RF-SCORE:    0.00 PKD
ROOT
HETATM    1  C   UNL     1     -11.004  14.787  65.527  1.00  0.00    -0.346 C  
HETATM    2  O   UNL     1     -11.239  14.851  66.931  1.00  0.00    -0.335 OA 
ENDROOT
BRANCH   2   3
HETATM    3  C   UNL     1     -11.391  13.658  67.582  1.00  0.00    -0.300 A  
HETATM    4  C   UNL     1     -11.868  13.503  68.883  1.00  0.00    -0.384 A  
HETATM    5  C   UNL     1     -11.953  12.216  69.463  1.00  0.00    -0.338 A  
HETATM    6  C   UNL     1     -11.517  11.105  68.740  1.00  0.00    -0.299 A  
HETATM    7  C   UNL     1     -11.132  11.246  67.392  1.00  0.00    -0.358 A  
HETATM    8  N   UNL     1     -11.564   9.987  69.592  1.00  0.00    -0.152 N  
HETATM    9  C   UNL     1     -11.024   8.693  69.320  1.00  0.00     0.027 C  
HETATM   10  C   UNL     1     -11.048  12.533  66.845  1.00  0.00    -0.323 A  
HETATM   11  C   UNL     1     -12.243  10.383  70.758  1.00  0.00    -0.359 A  
HETATM   12  C   UNL     1     -12.478  11.754  70.702  1.00  0.00    -0.364 A  
HETATM   13  O   UNL     1     -11.533   7.734  69.892  1.00  0.00    -0.070 OA 
HETATM   14  C   UNL     1     -12.552   9.473  71.909  1.00  0.00    -0.479 C  
BRANCH   9  15
HETATM   15  C   UNL     1      -9.907   8.393  68.376  1.00  0.00    -0.192 A  
HETATM   16  C   UNL     1      -8.601   8.726  68.766  1.00  0.00    -0.137 A  
HETATM   17  C   UNL     1     -10.119   7.804  67.123  1.00  0.00    -0.328 A  
HETATM   18  C   UNL     1      -9.026   7.414  66.341  1.00  0.00    -0.190 A  
HETATM   19 CL   UNL     1      -6.386   7.111  65.862  1.00  0.00    -0.043 Cl 
HETATM   20  C   UNL     1      -7.728   7.669  66.781  1.00  0.00    -0.102 A  
HETATM   21  C   UNL     1      -7.511   8.359  67.971  1.00  0.00    -0.097 A  
ENDBRANCH   9  15
BRANCH  12  22
HETATM   22  C   UNL     1     -13.097  12.614  71.775  1.00  0.00    -0.461 C  
HETATM   23  O   UNL     1     -12.927  14.560  70.285  1.00  0.00    -0.289 OA 
HETATM   24  C   UNL     1     -13.204  14.109  71.524  1.00  0.00    -0.353 C  
HETATM   25  O   UNL     1     -13.545  14.882  72.412  1.00  0.00    -0.377 OA 
ENDBRANCH  12  22
ENDBRANCH   2   3
TORSDOF 3
ENDMDL
MODEL      128
REMARK 921   NORMALIZED FREE ENERGY PREDICTED BY IDOCK:   -2.63 KCAL/MOL
REMARK 922        TOTAL FREE ENERGY PREDICTED BY IDOCK:   -4.02 KCAL/MOL
REMARK 923 INTER-LIGAND FREE ENERGY PREDICTED BY IDOCK:   -3.62 KCAL/MOL
REMARK 924 INTRA-LIGAND FREE ENERGY PREDICTED BY IDOCK:   -0.40 KCAL/MOL
REMARK 927      BINDING AFFINITY PREDICTED BY RF-SCORE:    0.00 PKD
ROOT
HETATM    1  C   UNL     1     -11.428  11.562  69.585  1.00  0.00    -0.301 C  
HETATM    2  O   UNL     1     -10.144  11.890  69.061  1.00  0.00    -0.098 OA 
ENDROOT
BRANCH   2   3
HETATM    3  C   UNL     1      -9.435  10.868  68.492  1.00  0.00    -0.185 A  
HETATM    4  C   UNL     1      -9.039  10.806  67.156  1.00  0.00    -0.153 A  
HETATM    5  C   UNL     1      -8.332   9.680  66.674  1.00  0.00    -0.123 A  
HETATM    6  C   UNL     1      -8.069   8.612  67.533  1.00  0.00    -0.106 A  
HETATM    7  C   UNL     1      -8.376   8.717  68.904  1.00  0.00    -0.127 A  
HETATM    8  N   UNL     1      -7.502   7.574  66.773  1.00  0.00    -0.091 N  
HETATM    9  C   UNL     1      -7.263   6.237  67.214  1.00  0.00    -0.078 C  
HETATM   10  C   UNL     1      -9.084   9.838  69.354  1.00  0.00    -0.209 A  
HETATM   11  C   UNL     1      -7.214   8.100  65.501  1.00  0.00    -0.071 A  
HETATM   12  C   UNL     1      -7.730   9.390  65.418  1.00  0.00    -0.103 A  
HETATM   13  O   UNL     1      -6.367   5.607  66.659  1.00  0.00    -0.036 OA 
HETATM   14  C   UNL     1      -6.555   7.332  64.396  1.00  0.00    -0.040 C  
BRANCH   9  15
HETATM   15  C   UNL     1      -7.987   5.537  68.317  1.00  0.00    -0.096 A  
HETATM   16  C   UNL     1      -7.227   4.906  69.313  1.00  0.00    -0.056 A  
HETATM   17  C   UNL     1      -9.385   5.481  68.383  1.00  0.00    -0.130 A  
HETATM   18  C   UNL     1     -10.010   4.938  69.511  1.00  0.00    -0.295 A  
HETATM   19 CL   UNL     1     -10.005   3.807  71.963  1.00  0.00    -0.245 Cl 
HETATM   20  C   UNL     1      -9.240   4.394  70.539  1.00  0.00    -0.125 A  
HETATM   21  C   UNL     1      -7.853   4.340  70.427  1.00  0.00    -0.052 A  
ENDBRANCH   9  15
BRANCH  12  22
HETATM   22  C   UNL     1      -7.732  10.292  64.209  1.00  0.00    -0.102 C  
HETATM   23  O   UNL     1     -10.188  10.239  64.196  1.00  0.00    -0.233 OA 
HETATM   24  C   UNL     1      -9.064  10.611  63.553  1.00  0.00    -0.238 C  
HETATM   25  O   UNL     1      -9.122  11.202  62.480  1.00  0.00    -0.330 OA 
ENDBRANCH  12  22
ENDBRANCH   2   3
TORSDOF 3
ENDMDL
MODEL      129
REMARK 921   NORMALIZED FREE ENERGY PREDICTED BY IDOCK:   -2.42 KCAL/MOL
REMARK 922        TOTAL FREE ENERGY PREDICTED BY IDOCK:   -3.77 KCAL/MOL
REMARK 923 INTER-LIGAND FREE ENERGY PREDICTED BY IDOCK:   -3.02 KCAL/MOL
REMARK 924 INTRA-LIGAND FREE ENERGY PREDICTED BY IDOCK:   -0.75 KCAL/MOL
REMARK 927      BINDING AFFINITY PREDICTED BY RF-SCORE:    0.00 PKD
ROOT
HETATM    1  C   UNL     1      -5.611  18.142  66.116  1.00  0.00    -0.177 C  
HETATM    2  O   UNL     1      -5.584  16.899  66.811  1.00  0.00    -0.201 OA 
ENDROOT
BRANCH   2   3
HETATM    3  C   UNL     1      -6.792  16.385  67.197  1.00  0.00    -0.203 A  
HETATM    4  C   UNL     1      -7.725  17.034  68.004  1.00  0.00    -0.181 A  
HETATM    5  C   UNL     1      -8.931  16.388  68.362  1.00  0.00    -0.214 A  
HETATM    6  C   UNL     1      -9.164  15.080  67.936  1.00  0.00    -0.182 A  
HETATM    7  C   UNL     1      -8.271  14.460  67.038  1.00  0.00    -0.138 A  
HETATM    8  N   UNL     1     -10.344  14.626  68.551  1.00  0.00    -0.232 N  
HETATM    9  C   UNL     1     -10.839  13.287  68.547  1.00  0.00    -0.265 C  
HETATM   10  C   UNL     1      -7.080  15.118  66.708  1.00  0.00     0.673 A  
HETATM   11  C   UNL     1     -10.944  15.739  69.167  1.00  0.00    -0.265 A  
HETATM   12  C   UNL     1     -10.082  16.828  69.073  1.00  0.00    -0.283 A  
HETATM   13  O   UNL     1     -12.049  13.128  68.682  1.00  0.00    -0.315 OA 
HETATM   14  C   UNL     1     -12.252  15.701  69.898  1.00  0.00    -0.317 C  
BRANCH   9  15
HETATM   15  C   UNL     1     -10.020  12.052  68.363  1.00  0.00    -0.209 A  
HETATM   16  C   UNL     1     -10.231  11.282  67.209  1.00  0.00    -0.226 A  
HETATM   17  C   UNL     1      -9.064  11.636  69.299  1.00  0.00     0.498 A  
HETATM   18  C   UNL     1      -8.227  10.554  69.008  1.00  0.00    -0.145 A  
HETATM   19 CL   UNL     1      -7.301   8.578  67.417  1.00  0.00    -0.088 Cl 
HETATM   20  C   UNL     1      -8.387   9.851  67.814  1.00  0.00    -0.114 A  
HETATM   21  C   UNL     1      -9.411  10.185  66.932  1.00  0.00    -0.203 A  
ENDBRANCH   9  15
BRANCH  12  22
HETATM   22  C   UNL     1     -10.279  18.198  69.673  1.00  0.00     0.435 C  
HETATM   23  O   UNL     1     -10.434  19.146  67.412  1.00  0.00    -0.401 OA 
HETATM   24  C   UNL     1     -10.350  19.390  68.734  1.00  0.00    -0.198 C  
HETATM   25  O   UNL     1     -10.348  20.539  69.161  1.00  0.00    -0.066 OA 
ENDBRANCH  12  22
ENDBRANCH   2   3
TORSDOF 3
ENDMDL
MODEL      130
REMARK 921   NORMALIZED FREE ENERGY PREDICTED BY IDOCK:   -2.37 KCAL/MOL
REMARK 922        TOTAL FREE ENERGY PREDICTED BY IDOCK:   -3.71 KCAL/MOL
REMARK 923 INTER-LIGAND FREE ENERGY PREDICTED BY IDOCK:   -2.83 KCAL/MOL
REMARK 924 INTRA-LIGAND FREE ENERGY PREDICTED BY IDOCK:   -0.89 KCAL/MOL
REMARK 927      BINDING AFFINITY PREDICTED BY RF-SCORE:    0.00 PKD
ROOT
HETATM    1  C   UNL     1     -11.515  10.412  69.024  1.00  0.00    -0.193 C  
HETATM    2  O   UNL     1     -11.154   9.845  67.768  1.00  0.00    -0.269 OA 
ENDROOT
BRANCH   2   3
HETATM    3  C   UNL     1     -10.095   8.979  67.768  1.00  0.00    -0.208 A  
HETATM    4  C   UNL     1      -9.297   8.679  66.665  1.00  0.00    -0.246 A  
HETATM    5  C   UNL     1      -8.245   7.741  66.780  1.00  0.00    -0.120 A  
HETATM    6  C   UNL     1      -8.036   7.086  67.993  1.00  0.00    -0.115 A  
HETATM    7  C   UNL     1      -8.773   7.462  69.135  1.00  0.00    -0.136 A  
HETATM    8  N   UNL     1      -7.046   6.108  67.794  1.00  0.00    -0.078 N  
HETATM    9  C   UNL     1      -6.669   5.085  68.717  1.00  0.00    -0.050 C  
HETATM   10  C   UNL     1      -9.815   8.386  68.991  1.00  0.00    -0.184 A  
HETATM   11  C   UNL     1      -6.497   6.328  66.518  1.00  0.00    -0.047 A  
HETATM   12  C   UNL     1      -7.231   7.320  65.874  1.00  0.00    -0.074 A  
HETATM   13  O   UNL     1      -5.529   4.638  68.635  1.00  0.00    -0.011 OA 
HETATM   14  C   UNL     1      -5.372   5.530  65.930  1.00  0.00    -0.013 C  
BRANCH   9  15
HETATM   15  C   UNL     1      -7.529   4.526  69.801  1.00  0.00    -0.051 A  
HETATM   16  C   UNL     1      -8.696   3.839  69.434  1.00  0.00    -0.127 A  
HETATM   17  C   UNL     1      -7.218   4.670  71.160  1.00  0.00    -0.044 A  
HETATM   18  C   UNL     1      -7.980   4.003  72.125  1.00  0.00    -0.084 A  
HETATM   19 CL   UNL     1      -9.970   2.359  72.917  1.00  0.00    -0.181 Cl 
HETATM   20  C   UNL     1      -9.087   3.248  71.740  1.00  0.00    -0.108 A  
HETATM   21  C   UNL     1      -9.472   3.195  70.402  1.00  0.00    -0.227 A  
ENDBRANCH   9  15
BRANCH  12  22
HETATM   22  C   UNL     1      -7.052   7.809  64.459  1.00  0.00    -0.065 C  
HETATM   23  O   UNL     1      -5.276   9.323  65.228  1.00  0.00    -0.036 OA 
HETATM   24  C   UNL     1      -6.075   8.946  64.211  1.00  0.00    -0.071 C  
HETATM   25  O   UNL     1      -6.001   9.496  63.117  1.00  0.00    -0.088 OA 
ENDBRANCH  12  22
ENDBRANCH   2   3
TORSDOF 3
ENDMDL
MODEL      131
REMARK 921   NORMALIZED FREE ENERGY PREDICTED BY IDOCK:   -2.36 KCAL/MOL
REMARK 922        TOTAL FREE ENERGY PREDICTED BY IDOCK:   -3.70 KCAL/MOL
REMARK 923 INTER-LIGAND FREE ENERGY PREDICTED BY IDOCK:   -4.65 KCAL/MOL
REMARK 924 INTRA-LIGAND FREE ENERGY PREDICTED BY IDOCK:    0.94 KCAL/MOL
REMARK 927      BINDING AFFINITY PREDICTED BY RF-SCORE:    0.00 PKD
ROOT
HETATM    1  C   UNL     1      -5.278   8.526  66.660  1.00  0.00    -0.031 C  
HETATM    2  O   UNL     1      -6.702   8.561  66.620  1.00  0.00    -0.066 OA 
ENDROOT
BRANCH   2   3
HETATM    3  C   UNL     1      -7.361   7.967  67.661  1.00  0.00    -0.093 A  
HETATM    4  C   UNL     1      -7.512   6.593  67.843  1.00  0.00    -0.098 A  
HETATM    5  C   UNL     1      -8.241   6.096  68.947  1.00  0.00    -0.112 A  
HETATM    6  C   UNL     1      -8.845   6.989  69.833  1.00  0.00    -0.142 A  
HETATM    7  C   UNL     1      -8.608   8.373  69.710  1.00  0.00    -0.132 A  
HETATM    8  N   UNL     1      -9.627   6.246  70.735  1.00  0.00    -0.175 N  
HETATM    9  C   UNL     1     -10.561   6.772  71.678  1.00  0.00    -0.214 C  
HETATM   10  C   UNL     1      -7.890   8.840  68.602  1.00  0.00    -0.103 A  
HETATM   11  C   UNL     1      -9.312   4.890  70.535  1.00  0.00    -0.154 A  
HETATM   12  C   UNL     1      -8.473   4.778  69.431  1.00  0.00    -0.091 A  
HETATM   13  O   UNL     1     -10.792   6.104  72.681  1.00  0.00    -0.221 OA 
HETATM   14  C   UNL     1      -9.892   3.759  71.331  1.00  0.00    -0.226 C  
BRANCH   9  15
HETATM   15  C   UNL     1     -11.266   8.084  71.571  1.00  0.00    -0.296 A  
HETATM   16  C   UNL     1     -12.346   8.328  72.433  1.00  0.00    -0.385 A  
HETATM   17  C   UNL     1     -10.895   9.065  70.643  1.00  0.00    -0.295 A  
HETATM   18  C   UNL     1     -11.496  10.328  70.683  1.00  0.00    -0.435 A  
HETATM   19 CL   UNL     1     -13.185  12.165  71.715  1.00  0.00    -0.509 Cl 
HETATM   20  C   UNL     1     -12.509  10.588  71.606  1.00  0.00    -0.340 A  
HETATM   21  C   UNL     1     -12.964   9.582  72.455  1.00  0.00    -0.396 A  
ENDBRANCH   9  15
BRANCH  12  22
HETATM   22  C   UNL     1      -7.961   3.505  68.803  1.00  0.00    -0.066 C  
HETATM   23  O   UNL     1      -5.785   3.868  69.885  1.00  0.00    -0.016 OA 
HETATM   24  C   UNL     1      -6.499   3.144  69.000  1.00  0.00    -0.030 C  
HETATM   25  O   UNL     1      -5.983   2.215  68.389  1.00  0.00    -0.023 OA 
ENDBRANCH  12  22
ENDBRANCH   2   3
TORSDOF 3
ENDMDL
MODEL      132
REMARK 921   NORMALIZED FREE ENERGY PREDICTED BY IDOCK:   -2.19 KCAL/MOL
REMARK 922        TOTAL FREE ENERGY PREDICTED BY IDOCK:   -3.51 KCAL/MOL
REMARK 923 INTER-LIGAND FREE ENERGY PREDICTED BY IDOCK:   -3.20 KCAL/MOL
REMARK 924 INTRA-LIGAND FREE ENERGY PREDICTED BY IDOCK:   -0.31 KCAL/MOL
REMARK 927      BINDING AFFINITY PREDICTED BY RF-SCORE:    0.00 PKD
ROOT
HETATM    1  C   UNL     1     -12.580  14.730  70.443  1.00  0.00    -0.346 C  
HETATM    2  O   UNL     1     -13.066  13.455  70.035  1.00  0.00     0.277 OA 
ENDROOT
BRANCH   2   3
HETATM    3  C   UNL     1     -12.126  12.512  69.719  1.00  0.00    -0.224 A  
HETATM    4  C   UNL     1     -12.081  11.214  70.225  1.00  0.00    -0.462 A  
HETATM    5  C   UNL     1     -11.040  10.336  69.846  1.00  0.00    -0.362 A  
HETATM    6  C   UNL     1     -10.032  10.790  68.994  1.00  0.00    -0.199 A  
HETATM    7  C   UNL     1     -10.130  12.064  68.400  1.00  0.00    -0.211 A  
HETATM    8  N   UNL     1      -9.053   9.784  68.904  1.00  0.00    -0.142 N  
HETATM    9  C   UNL     1      -7.766   9.909  68.298  1.00  0.00    -0.085 C  
HETATM   10  C   UNL     1     -11.166  12.917  68.801  1.00  0.00    -0.323 A  
HETATM   11  C   UNL     1      -9.581   8.636  69.521  1.00  0.00    -0.170 A  
HETATM   12  C   UNL     1     -10.796   8.961  70.118  1.00  0.00    -0.251 A  
HETATM   13  O   UNL     1      -7.239   8.886  67.871  1.00  0.00    -0.081 OA 
HETATM   14  C   UNL     1      -8.875   7.317  69.602  1.00  0.00    -0.141 C  
BRANCH   9  15
HETATM   15  C   UNL     1      -7.009  11.181  68.107  1.00  0.00    -0.069 A  
HETATM   16  C   UNL     1      -7.436  12.063  67.103  1.00  0.00    -0.138 A  
HETATM   17  C   UNL     1      -5.891  11.515  68.882  1.00  0.00    -0.047 A  
HETATM   18  C   UNL     1      -5.308  12.781  68.757  1.00  0.00    -0.063 A  
HETATM   19 CL   UNL     1      -5.141  15.271  67.725  1.00  0.00    -0.107 Cl 
HETATM   20  C   UNL     1      -5.800  13.685  67.816  1.00  0.00    -0.106 A  
HETATM   21  C   UNL     1      -6.836  13.317  66.961  1.00  0.00     0.492 A  
ENDBRANCH   9  15
BRANCH  12  22
HETATM   22  C   UNL     1     -11.663   8.061  70.963  1.00  0.00    -0.295 C  
HETATM   23  O   UNL     1     -10.390   8.737  72.953  1.00  0.00     0.057 OA 
HETATM   24  C   UNL     1     -11.320   7.911  72.435  1.00  0.00    -0.369 C  
HETATM   25  O   UNL     1     -11.880   7.077  73.139  1.00  0.00     0.164 OA 
ENDBRANCH  12  22
ENDBRANCH   2   3
TORSDOF 3
ENDMDL
MODEL      133
REMARK 921   NORMALIZED FREE ENERGY PREDICTED BY IDOCK:   -2.11 KCAL/MOL
REMARK 922        TOTAL FREE ENERGY PREDICTED BY IDOCK:   -3.41 KCAL/MOL
REMARK 923 INTER-LIGAND FREE ENERGY PREDICTED BY IDOCK:   -2.51 KCAL/MOL
REMARK 924 INTRA-LIGAND FREE ENERGY PREDICTED BY IDOCK:   -0.90 KCAL/MOL
REMARK 927      BINDING AFFINITY PREDICTED BY RF-SCORE:    0.00 PKD
ROOT
HETATM    1  C   UNL     1      -5.659  12.056  71.188  1.00  0.00     0.044 C  
HETATM    2  O   UNL     1      -5.315  10.675  71.236  1.00  0.00    -0.129 OA 
ENDROOT
BRANCH   2   3
HETATM    3  C   UNL     1      -6.062   9.829  70.462  1.00  0.00    -0.078 A  
HETATM    4  C   UNL     1      -7.110  10.213  69.626  1.00  0.00    -0.115 A  
HETATM    5  C   UNL     1      -7.830   9.241  68.894  1.00  0.00    -0.087 A  
HETATM    6  C   UNL     1      -7.512   7.891  69.043  1.00  0.00    -0.097 A  
HETATM    7  C   UNL     1      -6.389   7.510  69.805  1.00  0.00    -0.031 A  
HETATM    8  N   UNL     1      -8.467   7.139  68.336  1.00  0.00    -0.124 N  
HETATM    9  C   UNL     1      -8.632   5.721  68.383  1.00  0.00    -0.112 C  
HETATM   10  C   UNL     1      -5.700   8.491  70.528  1.00  0.00    -0.027 A  
HETATM   11  C   UNL     1      -9.226   8.045  67.573  1.00  0.00    -0.137 A  
HETATM   12  C   UNL     1      -8.857   9.343  67.914  1.00  0.00    -0.124 A  
HETATM   13  O   UNL     1      -9.136   5.175  67.406  1.00  0.00    -0.112 OA 
HETATM   14  C   UNL     1     -10.325   7.650  66.634  1.00  0.00    -0.258 C  
BRANCH   9  15
HETATM   15  C   UNL     1      -8.217   4.830  69.507  1.00  0.00    -0.076 A  
HETATM   16  C   UNL     1      -7.131   3.965  69.302  1.00  0.00    -0.046 A  
HETATM   17  C   UNL     1      -8.876   4.821  70.743  1.00  0.00    -0.153 A  
HETATM   18  C   UNL     1      -8.358   4.072  71.805  1.00  0.00    -0.098 A  
HETATM   19 CL   UNL     1      -6.535   2.436  72.942  1.00  0.00    -0.013 Cl 
HETATM   20  C   UNL     1      -7.223   3.286  71.615  1.00  0.00    -0.039 A  
HETATM   21  C   UNL     1      -6.630   3.198  70.357  1.00  0.00    -0.032 A  
ENDBRANCH   9  15
BRANCH  12  22
HETATM   22  C   UNL     1      -9.473  10.625  67.411  1.00  0.00    -0.172 C  
HETATM   23  O   UNL     1      -8.196  10.397  65.324  1.00  0.00    -0.157 OA 
HETATM   24  C   UNL     1      -8.995  11.177  66.079  1.00  0.00    -0.200 C  
HETATM   25  O   UNL     1      -9.334  12.289  65.691  1.00  0.00    -0.137 OA 
ENDBRANCH  12  22
ENDBRANCH   2   3
TORSDOF 3
ENDMDL
MODEL      134
REMARK 921   NORMALIZED FREE ENERGY PREDICTED BY IDOCK:   -2.06 KCAL/MOL
REMARK 922        TOTAL FREE ENERGY PREDICTED BY IDOCK:   -3.36 KCAL/MOL
REMARK 923 INTER-LIGAND FREE ENERGY PREDICTED BY IDOCK:   -2.64 KCAL/MOL
REMARK 924 INTRA-LIGAND FREE ENERGY PREDICTED BY IDOCK:   -0.72 KCAL/MOL
REMARK 927      BINDING AFFINITY PREDICTED BY RF-SCORE:    0.00 PKD
ROOT
HETATM    1  C   UNL     1      -9.986  11.706  63.659  1.00  0.00    -0.379 C  
HETATM    2  O   UNL     1      -9.673  10.327  63.831  1.00  0.00    -0.307 OA 
ENDROOT
BRANCH   2   3
HETATM    3  C   UNL     1      -9.209   9.952  65.062  1.00  0.00    -0.240 A  
HETATM    4  C   UNL     1      -8.750  10.820  66.052  1.00  0.00    -0.190 A  
HETATM    5  C   UNL     1      -8.265  10.312  67.278  1.00  0.00    -0.121 A  
HETATM    6  C   UNL     1      -8.209   8.932  67.478  1.00  0.00    -0.109 A  
HETATM    7  C   UNL     1      -8.767   8.057  66.523  1.00  0.00    -0.161 A  
HETATM    8  N   UNL     1      -7.552   8.695  68.698  1.00  0.00    -0.096 N  
HETATM    9  C   UNL     1      -7.110   7.429  69.189  1.00  0.00    -0.079 C  
HETATM   10  C   UNL     1      -9.232   8.587  65.313  1.00  0.00     0.036 A  
HETATM   11  C   UNL     1      -7.415   9.938  69.342  1.00  0.00    -0.108 A  
HETATM   12  C   UNL     1      -7.836  10.945  68.478  1.00  0.00    -0.126 A  
HETATM   13  O   UNL     1      -7.006   7.297  70.405  1.00  0.00    -0.055 OA 
HETATM   14  C   UNL     1      -6.806  10.127  70.699  1.00  0.00    -0.015 C  
BRANCH   9  15
HETATM   15  C   UNL     1      -6.786   6.233  68.357  1.00  0.00    -0.071 A  
HETATM   16  C   UNL     1      -7.621   5.110  68.458  1.00  0.00    -0.079 A  
HETATM   17  C   UNL     1      -5.684   6.191  67.494  1.00  0.00    -0.016 A  
HETATM   18  C   UNL     1      -5.511   5.102  66.634  1.00  0.00    -0.013 A  
HETATM   19 CL   UNL     1      -6.241   2.733  65.562  1.00  0.00    -0.023 Cl 
HETATM   20  C   UNL     1      -6.401   4.029  66.680  1.00  0.00    -0.036 A  
HETATM   21  C   UNL     1      -7.432   4.010  67.616  1.00  0.00    -0.068 A  
ENDBRANCH   9  15
BRANCH  12  22
HETATM   22  C   UNL     1      -7.778  12.433  68.720  1.00  0.00    -0.007 C  
HETATM   23  O   UNL     1     -10.232  12.523  68.627  1.00  0.00    -0.220 OA 
HETATM   24  C   UNL     1      -9.078  13.217  68.678  1.00  0.00     0.026 C  
HETATM   25  O   UNL     1      -9.085  14.443  68.706  1.00  0.00    -0.188 OA 
ENDBRANCH  12  22
ENDBRANCH   2   3
TORSDOF 3
ENDMDL
MODEL      135
REMARK 921   NORMALIZED FREE ENERGY PREDICTED BY IDOCK:   -2.00 KCAL/MOL
REMARK 922        TOTAL FREE ENERGY PREDICTED BY IDOCK:   -3.28 KCAL/MOL
REMARK 923 INTER-LIGAND FREE ENERGY PREDICTED BY IDOCK:   -2.59 KCAL/MOL
REMARK 924 INTRA-LIGAND FREE ENERGY PREDICTED BY IDOCK:   -0.69 KCAL/MOL
REMARK 927      BINDING AFFINITY PREDICTED BY RF-SCORE:    0.00 PKD
ROOT
HETATM    1  C   UNL     1     -10.792   5.359  66.336  1.00  0.00    -0.131 C  
HETATM    2  O   UNL     1     -11.357   6.323  67.221  1.00  0.00    -0.254 OA 
ENDROOT
BRANCH   2   3
HETATM    3  C   UNL     1     -10.544   7.355  67.603  1.00  0.00    -0.239 A  
HETATM    4  C   UNL     1     -10.219   8.461  66.818  1.00  0.00    -0.376 A  
HETATM    5  C   UNL     1      -9.341   9.453  67.313  1.00  0.00    -0.159 A  
HETATM    6  C   UNL     1      -8.768   9.299  68.576  1.00  0.00    -0.128 A  
HETATM    7  C   UNL     1      -9.174   8.237  69.410  1.00  0.00    -0.155 A  
HETATM    8  N   UNL     1      -7.829  10.329  68.756  1.00  0.00    -0.099 N  
HETATM    9  C   UNL     1      -6.882  10.434  69.820  1.00  0.00    -0.130 C  
HETATM   10  C   UNL     1     -10.037   7.264  68.892  1.00  0.00    -0.180 A  
HETATM   11  C   UNL     1      -8.000  11.236  67.695  1.00  0.00    -0.118 A  
HETATM   12  C   UNL     1      -8.916  10.706  66.790  1.00  0.00    -0.149 A  
HETATM   13  O   UNL     1      -6.486  11.556  70.119  1.00  0.00    -0.132 OA 
HETATM   14  C   UNL     1      -7.225  12.508  67.534  1.00  0.00    -0.147 C  
BRANCH   9  15
HETATM   15  C   UNL     1      -6.346   9.299  70.628  1.00  0.00    -0.068 A  
HETATM   16  C   UNL     1      -6.311   9.437  72.024  1.00  0.00     0.197 A  
HETATM   17  C   UNL     1      -5.872   8.117  70.045  1.00  0.00    -0.022 A  
HETATM   18  C   UNL     1      -5.516   7.033  70.854  1.00  0.00    -0.027 A  
HETATM   19 CL   UNL     1      -5.219   5.792  73.235  1.00  0.00    -0.022 Cl 
HETATM   20  C   UNL     1      -5.572   7.152  72.242  1.00  0.00    -0.037 A  
HETATM   21  C   UNL     1      -5.930   8.362  72.832  1.00  0.00    -0.073 A  
ENDBRANCH   9  15
BRANCH  12  22
HETATM   22  C   UNL     1      -9.330  11.297  65.465  1.00  0.00    -0.243 C  
HETATM   23  O   UNL     1      -7.535  10.032  64.363  1.00  0.00    -0.137 OA 
HETATM   24  C   UNL     1      -8.487  10.978  64.243  1.00  0.00     0.220 C  
HETATM   25  O   UNL     1      -8.671  11.550  63.174  1.00  0.00     0.020 OA 
ENDBRANCH  12  22
ENDBRANCH   2   3
TORSDOF 3
ENDMDL
MODEL      136
REMARK 921   NORMALIZED FREE ENERGY PREDICTED BY IDOCK:   -1.46 KCAL/MOL
REMARK 922        TOTAL FREE ENERGY PREDICTED BY IDOCK:   -2.64 KCAL/MOL
REMARK 923 INTER-LIGAND FREE ENERGY PREDICTED BY IDOCK:   -1.86 KCAL/MOL
REMARK 924 INTRA-LIGAND FREE ENERGY PREDICTED BY IDOCK:   -0.79 KCAL/MOL
REMARK 927      BINDING AFFINITY PREDICTED BY RF-SCORE:    0.00 PKD
ROOT
HETATM    1  C   UNL     1      -5.352  18.927  63.651  1.00  0.00    -0.198 C  
HETATM    2  O   UNL     1      -5.128  18.519  64.997  1.00  0.00    -0.142 OA 
ENDROOT
BRANCH   2   3
HETATM    3  C   UNL     1      -6.237  18.354  65.781  1.00  0.00    -0.246 A  
HETATM    4  C   UNL     1      -6.461  18.981  67.005  1.00  0.00    -0.198 A  
HETATM    5  C   UNL     1      -7.637  18.707  67.742  1.00  0.00    -0.247 A  
HETATM    6  C   UNL     1      -8.553  17.774  67.256  1.00  0.00    -0.233 A  
HETATM    7  C   UNL     1      -8.379  17.217  65.973  1.00  0.00    -0.169 A  
HETATM    8  N   UNL     1      -9.537  17.577  68.241  1.00  0.00    -0.287 N  
HETATM    9  C   UNL     1     -10.547  16.568  68.237  1.00  0.00    -0.326 C  
HETATM   10  C   UNL     1      -7.201  17.497  65.269  1.00  0.00     1.352 A  
HETATM   11  C   UNL     1      -9.340  18.561  69.226  1.00  0.00     0.115 A  
HETATM   12  C   UNL     1      -8.168  19.257  68.943  1.00  0.00    -0.344 A  
HETATM   13  O   UNL     1     -11.582  16.798  68.856  1.00  0.00    -0.064 OA 
HETATM   14  C   UNL     1     -10.208  18.736  70.435  1.00  0.00     1.581 C  
BRANCH   9  15
HETATM   15  C   UNL     1     -10.475  15.260  67.520  1.00  0.00    -0.265 A  
HETATM   16  C   UNL     1      -9.580  14.291  67.997  1.00  0.00    -0.223 A  
HETATM   17  C   UNL     1     -11.256  14.976  66.393  1.00  0.00    -0.310 A  
HETATM   18  C   UNL     1     -11.253  13.687  65.848  1.00  0.00    -0.311 A  
HETATM   19 CL   UNL     1     -10.486  11.098  65.777  1.00  0.00    -0.309 Cl 
HETATM   20  C   UNL     1     -10.425  12.704  66.389  1.00  0.00    -0.249 A  
HETATM   21  C   UNL     1      -9.558  13.011  67.436  1.00  0.00    -0.211 A  
ENDBRANCH   9  15
BRANCH  12  22
HETATM   22  C   UNL     1      -7.525  20.334  69.780  1.00  0.00     0.457 C  
HETATM   23  O   UNL     1      -5.729  18.769  70.382  1.00  0.00    -0.236 OA 
HETATM   24  C   UNL     1      -6.298  19.971  70.598  1.00  0.00    -0.219 C  
HETATM   25  O   UNL     1      -5.825  20.750  71.419  1.00  0.00    -0.577 OA 
ENDBRANCH  12  22
ENDBRANCH   2   3
TORSDOF 3
ENDMDL
MODEL      137
REMARK 921   NORMALIZED FREE ENERGY PREDICTED BY IDOCK:   -0.81 KCAL/MOL
REMARK 922        TOTAL FREE ENERGY PREDICTED BY IDOCK:   -1.89 KCAL/MOL
REMARK 923 INTER-LIGAND FREE ENERGY PREDICTED BY IDOCK:   -1.72 KCAL/MOL
REMARK 924 INTRA-LIGAND FREE ENERGY PREDICTED BY IDOCK:   -0.16 KCAL/MOL
REMARK 927      BINDING AFFINITY PREDICTED BY RF-SCORE:    0.00 PKD
ROOT
HETATM    1  C   UNL     1      -5.352  18.609  64.364  1.00  0.00    -0.163 C  
HETATM    2  O   UNL     1      -5.638  18.725  65.755  1.00  0.00    -0.149 OA 
ENDROOT
BRANCH   2   3
HETATM    3  C   UNL     1      -6.677  17.974  66.232  1.00  0.00    -0.247 A  
HETATM    4  C   UNL     1      -7.873  18.480  66.740  1.00  0.00    -0.257 A  
HETATM    5  C   UNL     1      -8.866  17.603  67.234  1.00  0.00    -0.240 A  
HETATM    6  C   UNL     1      -8.625  16.228  67.250  1.00  0.00    -0.179 A  
HETATM    7  C   UNL     1      -7.463  15.709  66.644  1.00  0.00     0.095 A  
HETATM    8  N   UNL     1      -9.690  15.608  67.925  1.00  0.00    -0.211 N  
HETATM    9  C   UNL     1      -9.750  14.242  68.336  1.00  0.00    -0.225 C  
HETATM   10  C   UNL     1      -6.492  16.600  66.171  1.00  0.00     0.651 A  
HETATM   11  C   UNL     1     -10.684  16.584  68.116  1.00  0.00    -0.343 A  
HETATM   12  C   UNL     1     -10.189  17.820  67.710  1.00  0.00    -0.362 A  
HETATM   13  O   UNL     1     -10.861  13.734  68.461  1.00  0.00    -0.248 OA 
HETATM   14  C   UNL     1     -12.013  16.326  68.759  1.00  0.00     0.136 C  
BRANCH   9  15
HETATM   15  C   UNL     1      -8.578  13.356  68.602  1.00  0.00     0.010 A  
HETATM   16  C   UNL     1      -7.532  13.860  69.391  1.00  0.00     0.190 A  
HETATM   17  C   UNL     1      -8.484  12.057  68.089  1.00  0.00    -0.171 A  
HETATM   18  C   UNL     1      -7.434  11.222  68.487  1.00  0.00    -0.115 A  
HETATM   19 CL   UNL     1      -5.206  10.655  69.904  1.00  0.00    -0.038 Cl 
HETATM   20  C   UNL     1      -6.447  11.706  69.345  1.00  0.00    -0.113 A  
HETATM   21  C   UNL     1      -6.470  13.033  69.767  1.00  0.00    -0.005 A  
ENDBRANCH   9  15
BRANCH  12  22
HETATM   22  C   UNL     1     -10.879  19.157  67.820  1.00  0.00    -0.398 C  
HETATM   23  O   UNL     1      -9.083  19.940  69.303  1.00  0.00    -0.086 OA 
HETATM   24  C   UNL     1     -10.292  20.191  68.765  1.00  0.00    -0.121 C  
HETATM   25  O   UNL     1     -10.889  21.231  69.023  1.00  0.00     0.865 OA 
ENDBRANCH  12  22
ENDBRANCH   2   3
TORSDOF 3
ENDMDL
MODEL      138
REMARK 921   NORMALIZED FREE ENERGY PREDICTED BY IDOCK:   -0.70 KCAL/MOL
REMARK 922        TOTAL FREE ENERGY PREDICTED BY IDOCK:   -1.76 KCAL/MOL
REMARK 923 INTER-LIGAND FREE ENERGY PREDICTED BY IDOCK:   -2.46 KCAL/MOL
REMARK 924 INTRA-LIGAND FREE ENERGY PREDICTED BY IDOCK:    0.70 KCAL/MOL
REMARK 927      BINDING AFFINITY PREDICTED BY RF-SCORE:    0.00 PKD
ROOT
HETATM    1  C   UNL     1      -9.597  11.388  64.781  1.00  0.00    -0.210 C  
HETATM    2  O   UNL     1      -9.024  12.233  65.775  1.00  0.00     0.022 OA 
ENDROOT
BRANCH   2   3
HETATM    3  C   UNL     1      -8.543  11.619  66.899  1.00  0.00    -0.174 A  
HETATM    4  C   UNL     1      -7.508  12.098  67.700  1.00  0.00    -0.129 A  
HETATM    5  C   UNL     1      -7.075  11.357  68.825  1.00  0.00    -0.102 A  
HETATM    6  C   UNL     1      -7.663  10.123  69.104  1.00  0.00    -0.112 A  
HETATM    7  C   UNL     1      -8.776   9.686  68.358  1.00  0.00    -0.120 A  
HETATM    8  N   UNL     1      -6.953   9.534  70.165  1.00  0.00    -0.077 N  
HETATM    9  C   UNL     1      -7.095   8.193  70.636  1.00  0.00    -0.045 C  
HETATM   10  C   UNL     1      -9.178  10.434  67.244  1.00  0.00    -0.157 A  
HETATM   11  C   UNL     1      -6.081  10.513  70.675  1.00  0.00    -0.089 A  
HETATM   12  C   UNL     1      -6.133  11.636  69.854  1.00  0.00    -0.147 A  
HETATM   13  O   UNL     1      -6.801   7.969  71.807  1.00  0.00    -0.058 OA 
HETATM   14  C   UNL     1      -5.173  10.310  71.849  1.00  0.00    -0.001 C  
BRANCH   9  15
HETATM   15  C   UNL     1      -7.599   7.035  69.840  1.00  0.00    -0.102 A  
HETATM   16  C   UNL     1      -8.001   5.881  70.530  1.00  0.00    -0.106 A  
HETATM   17  C   UNL     1      -7.674   7.059  68.442  1.00  0.00    -0.120 A  
HETATM   18  C   UNL     1      -8.287   6.003  67.758  1.00  0.00    -0.112 A  
HETATM   19 CL   UNL     1      -9.598   3.645  67.632  1.00  0.00    -0.230 Cl 
HETATM   20  C   UNL     1      -8.766   4.900  68.463  1.00  0.00    -0.097 A  
HETATM   21  C   UNL     1      -8.590   4.816  69.843  1.00  0.00    -0.094 A  
ENDBRANCH   9  15
BRANCH  12  22
HETATM   22  C   UNL     1      -5.298  12.887  69.972  1.00  0.00    -0.104 C  
HETATM   23  O   UNL     1      -7.354  14.231  70.024  1.00  0.00     0.137 OA 
HETATM   24  C   UNL     1      -6.009  14.229  69.948  1.00  0.00    -0.132 C  
HETATM   25  O   UNL     1      -5.383  15.281  69.877  1.00  0.00    -0.101 OA 
ENDBRANCH  12  22
ENDBRANCH   2   3
TORSDOF 3
ENDMDL
MODEL      139
REMARK 921   NORMALIZED FREE ENERGY PREDICTED BY IDOCK:    0.45 KCAL/MOL
REMARK 922        TOTAL FREE ENERGY PREDICTED BY IDOCK:   -0.40 KCAL/MOL
REMARK 923 INTER-LIGAND FREE ENERGY PREDICTED BY IDOCK:    0.14 KCAL/MOL
REMARK 924 INTRA-LIGAND FREE ENERGY PREDICTED BY IDOCK:   -0.54 KCAL/MOL
REMARK 927      BINDING AFFINITY PREDICTED BY RF-SCORE:    0.00 PKD
ROOT
HETATM    1  C   UNL     1      -9.519  10.902  67.647  1.00  0.00    -0.159 C  
HETATM    2  O   UNL     1      -9.734  12.180  67.055  1.00  0.00    -0.197 OA 
ENDROOT
BRANCH   2   3
HETATM    3  C   UNL     1      -8.975  13.213  67.533  1.00  0.00    -0.197 A  
HETATM    4  C   UNL     1      -8.139  13.153  68.647  1.00  0.00    -0.014 A  
HETATM    5  C   UNL     1      -7.423  14.299  69.064  1.00  0.00    -0.102 A  
HETATM    6  C   UNL     1      -7.590  15.503  68.379  1.00  0.00    -0.116 A  
HETATM    7  C   UNL     1      -8.352  15.540  67.194  1.00  0.00    -0.243 A  
HETATM    8  N   UNL     1      -6.898  16.504  69.083  1.00  0.00    -0.207 N  
HETATM    9  C   UNL     1      -6.966  17.909  68.841  1.00  0.00    -0.260 C  
HETATM   10  C   UNL     1      -9.058  14.394  66.808  1.00  0.00    -0.278 A  
HETATM   11  C   UNL     1      -6.126  15.859  70.067  1.00  0.00    -0.138 A  
HETATM   12  C   UNL     1      -6.447  14.505  70.079  1.00  0.00    -0.160 A  
HETATM   13  O   UNL     1      -5.999  18.590  69.171  1.00  0.00    -0.220 OA 
HETATM   14  C   UNL     1      -5.198  16.562  71.011  1.00  0.00    -0.114 C  
BRANCH   9  15
HETATM   15  C   UNL     1      -8.100  18.631  68.191  1.00  0.00    -0.318 A  
HETATM   16  C   UNL     1      -7.821  19.439  67.079  1.00  0.00    -0.275 A  
HETATM   17  C   UNL     1      -9.418  18.537  68.657  1.00  0.00    -0.373 A  
HETATM   18  C   UNL     1     -10.460  19.117  67.926  1.00  0.00    -0.492 A  
HETATM   19 CL   UNL     1     -11.466  20.482  65.824  1.00  0.00     1.288 Cl 
HETATM   20  C   UNL     1     -10.179  19.844  66.769  1.00  0.00    -0.477 A  
HETATM   21  C   UNL     1      -8.861  20.041  66.364  1.00  0.00    -0.388 A  
ENDBRANCH   9  15
BRANCH  12  22
HETATM   22  C   UNL     1      -5.929  13.457  71.032  1.00  0.00     0.023 C  
HETATM   23  O   UNL     1      -7.139  14.555  72.867  1.00  0.00     1.909 OA 
HETATM   24  C   UNL     1      -6.249  13.609  72.509  1.00  0.00     1.495 C  
HETATM   25  O   UNL     1      -5.728  12.887  73.353  1.00  0.00     0.157 OA 
ENDBRANCH  12  22
ENDBRANCH   2   3
TORSDOF 3
ENDMDL
MODEL      140
REMARK 921   NORMALIZED FREE ENERGY PREDICTED BY IDOCK:    0.76 KCAL/MOL
REMARK 922        TOTAL FREE ENERGY PREDICTED BY IDOCK:   -0.04 KCAL/MOL
REMARK 923 INTER-LIGAND FREE ENERGY PREDICTED BY IDOCK:    0.78 KCAL/MOL
REMARK 924 INTRA-LIGAND FREE ENERGY PREDICTED BY IDOCK:   -0.82 KCAL/MOL
REMARK 927      BINDING AFFINITY PREDICTED BY RF-SCORE:    0.00 PKD
ROOT
HETATM    1  C   UNL     1     -12.017   9.928  66.093  1.00  0.00     4.977 C  
HETATM    2  O   UNL     1     -11.857  10.682  67.292  1.00  0.00    -0.182 OA 
ENDROOT
BRANCH   2   3
HETATM    3  C   UNL     1     -10.744  11.474  67.375  1.00  0.00    -0.232 A  
HETATM    4  C   UNL     1      -9.555  11.132  68.016  1.00  0.00    -0.181 A  
HETATM    5  C   UNL     1      -8.480  12.049  68.061  1.00  0.00    -0.168 A  
HETATM    6  C   UNL     1      -8.630  13.315  67.494  1.00  0.00    -0.200 A  
HETATM    7  C   UNL     1      -9.791  13.625  66.757  1.00  0.00    -0.271 A  
HETATM    8  N   UNL     1      -7.488  14.071  67.811  1.00  0.00    -0.144 N  
HETATM    9  C   UNL     1      -7.315  15.473  67.597  1.00  0.00    -0.174 C  
HETATM   10  C   UNL     1     -10.844  12.703  66.737  1.00  0.00    -0.279 A  
HETATM   11  C   UNL     1      -6.549  13.188  68.373  1.00  0.00    -0.092 A  
HETATM   12  C   UNL     1      -7.146  11.943  68.547  1.00  0.00    -0.089 A  
HETATM   13  O   UNL     1      -6.168  15.890  67.462  1.00  0.00    -0.146 OA 
HETATM   14  C   UNL     1      -5.169  13.581  68.807  1.00  0.00    -0.073 C  
BRANCH   9  15
HETATM   15  C   UNL     1      -8.409  16.483  67.492  1.00  0.00    -0.179 A  
HETATM   16  C   UNL     1      -8.996  16.950  68.677  1.00  0.00    -0.266 A  
HETATM   17  C   UNL     1      -8.871  16.967  66.261  1.00  0.00    -0.314 A  
HETATM   18  C   UNL     1      -9.797  18.016  66.226  1.00  0.00    -0.310 A  
HETATM   19 CL   UNL     1     -11.376  19.881  67.375  1.00  0.00     0.079 Cl 
HETATM   20  C   UNL     1     -10.307  18.535  67.416  1.00  0.00    -0.400 A  
HETATM   21  C   UNL     1      -9.941  17.980  68.640  1.00  0.00    -0.396 A  
ENDBRANCH   9  15
BRANCH  12  22
HETATM   22  C   UNL     1      -6.538  10.726  69.199  1.00  0.00    -0.065 C  
HETATM   23  O   UNL     1      -5.446  10.157  67.073  1.00  0.00    -0.041 OA 
HETATM   24  C   UNL     1      -5.739   9.771  68.330  1.00  0.00    -0.043 C  
HETATM   25  O   UNL     1      -5.356   8.687  68.759  1.00  0.00    -0.032 OA 
ENDBRANCH  12  22
ENDBRANCH   2   3
TORSDOF 3
ENDMDL
MODEL      141
REMARK 921   NORMALIZED FREE ENERGY PREDICTED BY IDOCK:    1.79 KCAL/MOL
REMARK 922        TOTAL FREE ENERGY PREDICTED BY IDOCK:    1.17 KCAL/MOL
REMARK 923 INTER-LIGAND FREE ENERGY PREDICTED BY IDOCK:    0.95 KCAL/MOL
REMARK 924 INTRA-LIGAND FREE ENERGY PREDICTED BY IDOCK:    0.22 KCAL/MOL
REMARK 927      BINDING AFFINITY PREDICTED BY RF-SCORE:    0.00 PKD
ROOT
HETATM    1  C   UNL     1      -8.090   5.749  71.387  1.00  0.00    -0.114 C  
HETATM    2  O   UNL     1      -7.441   6.993  71.135  1.00  0.00    -0.079 OA 
ENDROOT
BRANCH   2   3
HETATM    3  C   UNL     1      -8.152   7.925  70.431  1.00  0.00    -0.114 A  
HETATM    4  C   UNL     1      -9.005   7.651  69.362  1.00  0.00    -0.139 A  
HETATM    5  C   UNL     1      -9.666   8.705  68.690  1.00  0.00    -0.171 A  
HETATM    6  C   UNL     1      -9.428  10.025  69.076  1.00  0.00    -0.187 A  
HETATM    7  C   UNL     1      -8.650  10.297  70.219  1.00  0.00     0.421 A  
HETATM    8  N   UNL     1     -10.077  10.870  68.158  1.00  0.00    -0.168 N  
HETATM    9  C   UNL     1      -9.934  12.287  68.066  1.00  0.00    -0.202 C  
HETATM   10  C   UNL     1      -7.998   9.236  70.860  1.00  0.00    -0.161 A  
HETATM   11  C   UNL     1     -10.895  10.056  67.353  1.00  0.00    -0.249 A  
HETATM   12  C   UNL     1     -10.644   8.721  67.656  1.00  0.00    -0.281 A  
HETATM   13  O   UNL     1     -10.869  12.923  67.587  1.00  0.00    -0.225 OA 
HETATM   14  C   UNL     1     -11.798  10.568  66.272  1.00  0.00     2.160 C  
BRANCH   9  15
HETATM   15  C   UNL     1      -8.756  13.079  68.527  1.00  0.00    -0.042 A  
HETATM   16  C   UNL     1      -7.483  12.698  68.077  1.00  0.00    -0.120 A  
HETATM   17  C   UNL     1      -8.876  14.173  69.394  1.00  0.00     0.503 A  
HETATM   18  C   UNL     1      -7.759  14.965  69.679  1.00  0.00    -0.072 A  
HETATM   19 CL   UNL     1      -5.158  15.650  69.429  1.00  0.00    -0.097 Cl 
HETATM   20  C   UNL     1      -6.513  14.627  69.151  1.00  0.00    -0.110 A  
HETATM   21  C   UNL     1      -6.362  13.474  68.384  1.00  0.00    -0.093 A  
ENDBRANCH   9  15
BRANCH  12  22
HETATM   22  C   UNL     1     -11.228   7.509  66.975  1.00  0.00     0.400 C  
HETATM   23  O   UNL     1      -8.961   6.616  66.662  1.00  0.00    -0.132 OA 
HETATM   24  C   UNL     1     -10.272   6.490  66.379  1.00  0.00     0.031 C  
HETATM   25  O   UNL     1     -10.676   5.570  65.676  1.00  0.00     0.196 OA 
ENDBRANCH  12  22
ENDBRANCH   2   3
TORSDOF 3
ENDMDL
MODEL      142
REMARK 921   NORMALIZED FREE ENERGY PREDICTED BY IDOCK:    3.04 KCAL/MOL
REMARK 922        TOTAL FREE ENERGY PREDICTED BY IDOCK:    2.64 KCAL/MOL
REMARK 923 INTER-LIGAND FREE ENERGY PREDICTED BY IDOCK:    2.20 KCAL/MOL
REMARK 924 INTRA-LIGAND FREE ENERGY PREDICTED BY IDOCK:    0.44 KCAL/MOL
REMARK 927      BINDING AFFINITY PREDICTED BY RF-SCORE:    0.00 PKD
ROOT
HETATM    1  C   UNL     1     -11.915   7.279  69.606  1.00  0.00     0.529 C  
HETATM    2  O   UNL     1     -10.915   7.980  70.340  1.00  0.00    -0.246 OA 
ENDROOT
BRANCH   2   3
HETATM    3  C   UNL     1     -10.607   9.240  69.907  1.00  0.00    -0.226 A  
HETATM    4  C   UNL     1     -11.190  10.419  70.370  1.00  0.00    -0.399 A  
HETATM    5  C   UNL     1     -10.809  11.666  69.823  1.00  0.00     0.111 A  
HETATM    6  C   UNL     1      -9.874  11.707  68.788  1.00  0.00    -0.116 A  
HETATM    7  C   UNL     1      -9.208  10.531  68.391  1.00  0.00    -0.154 A  
HETATM    8  N   UNL     1      -9.793  13.034  68.329  1.00  0.00    -0.227 N  
HETATM    9  C   UNL     1      -9.108  13.484  67.159  1.00  0.00    -0.232 C  
HETATM   10  C   UNL     1      -9.612   9.308  68.941  1.00  0.00    -0.155 A  
HETATM   11  C   UNL     1     -10.510  13.832  69.238  1.00  0.00     0.067 A  
HETATM   12  C   UNL     1     -11.153  13.006  70.156  1.00  0.00     0.557 A  
HETATM   13  O   UNL     1      -8.718  14.647  67.142  1.00  0.00    -0.198 OA 
HETATM   14  C   UNL     1     -10.634  15.322  69.143  1.00  0.00    -0.250 C  
BRANCH   9  15
HETATM   15  C   UNL     1      -8.795  12.656  65.957  1.00  0.00     0.304 A  
HETATM   16  C   UNL     1      -7.562  11.987  65.916  1.00  0.00     1.081 A  
HETATM   17  C   UNL     1      -9.677  12.534  64.875  1.00  0.00     0.005 A  
HETATM   18  C   UNL     1      -9.395  11.634  63.843  1.00  0.00     0.010 A  
HETATM   19 CL   UNL     1      -7.901   9.735  62.636  1.00  0.00    -0.118 Cl 
HETATM   20  C   UNL     1      -8.206  10.905  63.858  1.00  0.00     0.224 A  
HETATM   21  C   UNL     1      -7.270  11.107  64.870  1.00  0.00     0.790 A  
ENDBRANCH   9  15
BRANCH  12  22
HETATM   22  C   UNL     1     -12.101  13.428  71.250  1.00  0.00     0.007 C  
HETATM   23  O   UNL     1     -13.657  11.657  70.560  1.00  0.00     0.934 OA 
HETATM   24  C   UNL     1     -13.452  12.740  71.335  1.00  0.00     0.115 C  
HETATM   25  O   UNL     1     -14.328  13.142  72.093  1.00  0.00    -0.214 OA 
ENDBRANCH  12  22
ENDBRANCH   2   3
TORSDOF 3
ENDMDL
MODEL      143
REMARK 921   NORMALIZED FREE ENERGY PREDICTED BY IDOCK:    4.13 KCAL/MOL
REMARK 922        TOTAL FREE ENERGY PREDICTED BY IDOCK:    3.93 KCAL/MOL
REMARK 923 INTER-LIGAND FREE ENERGY PREDICTED BY IDOCK:    1.70 KCAL/MOL
REMARK 924 INTRA-LIGAND FREE ENERGY PREDICTED BY IDOCK:    2.23 KCAL/MOL
REMARK 927      BINDING AFFINITY PREDICTED BY RF-SCORE:    0.00 PKD
ROOT
HETATM    1  C   UNL     1     -11.373  11.431  67.983  1.00  0.00    -0.303 C  
HETATM    2  O   UNL     1     -11.433  10.408  68.974  1.00  0.00    -0.244 OA 
ENDROOT
BRANCH   2   3
HETATM    3  C   UNL     1     -10.697   9.280  68.736  1.00  0.00    -0.154 A  
HETATM    4  C   UNL     1     -10.406   8.755  67.478  1.00  0.00    -0.334 A  
HETATM    5  C   UNL     1      -9.658   7.562  67.358  1.00  0.00    -0.187 A  
HETATM    6  C   UNL     1      -9.247   6.888  68.509  1.00  0.00    -0.129 A  
HETATM    7  C   UNL     1      -9.450   7.469  69.777  1.00  0.00    -0.156 A  
HETATM    8  N   UNL     1      -8.667   5.669  68.116  1.00  0.00    -0.103 N  
HETATM    9  C   UNL     1      -8.293   4.593  68.977  1.00  0.00    -0.080 C  
HETATM   10  C   UNL     1     -10.202   8.646  69.868  1.00  0.00    -0.206 A  
HETATM   11  C   UNL     1      -8.522   5.712  66.717  1.00  0.00    -0.111 A  
HETATM   12  C   UNL     1      -9.138   6.862  66.233  1.00  0.00    -0.170 A  
HETATM   13  O   UNL     1      -7.400   3.843  68.594  1.00  0.00    -0.054 OA 
HETATM   14  C   UNL     1      -7.898   4.624  65.896  1.00  0.00    -0.095 C  
BRANCH   9  15
HETATM   15  C   UNL     1      -8.871   4.310  70.324  1.00  0.00    -0.133 A  
HETATM   16  C   UNL     1      -9.223   2.986  70.629  1.00  0.00    -0.208 A  
HETATM   17  C   UNL     1      -9.081   5.312  71.279  1.00  0.00    -0.169 A  
HETATM   18  C   UNL     1      -9.490   4.970  72.573  1.00  0.00    -0.164 A  
HETATM   19 CL   UNL     1     -10.168   3.207  74.503  1.00  0.00    -0.201 Cl 
HETATM   20  C   UNL     1      -9.751   3.638  72.891  1.00  0.00    -0.135 A  
HETATM   21  C   UNL     1      -9.658   2.649  71.914  1.00  0.00    -0.212 A  
ENDBRANCH   9  15
BRANCH  12  22
HETATM   22  C   UNL     1      -9.305   7.265  64.789  1.00  0.00     1.455 C  
HETATM   23  O   UNL     1      -9.865   4.940  64.225  1.00  0.00     0.199 OA 
HETATM   24  C   UNL     1      -9.584   6.176  63.768  1.00  0.00     2.336 C  
HETATM   25  O   UNL     1      -9.570   6.411  62.564  1.00  0.00     1.257 OA 
ENDBRANCH  12  22
ENDBRANCH   2   3
TORSDOF 3
ENDMDL
MODEL      144
REMARK 921   NORMALIZED FREE ENERGY PREDICTED BY IDOCK:    6.85 KCAL/MOL
REMARK 922        TOTAL FREE ENERGY PREDICTED BY IDOCK:    7.12 KCAL/MOL
REMARK 923 INTER-LIGAND FREE ENERGY PREDICTED BY IDOCK:    7.96 KCAL/MOL
REMARK 924 INTRA-LIGAND FREE ENERGY PREDICTED BY IDOCK:   -0.84 KCAL/MOL
REMARK 927      BINDING AFFINITY PREDICTED BY RF-SCORE:    0.00 PKD
ROOT
HETATM    1  C   UNL     1     -12.526  16.428  70.799  1.00  0.00     0.969 C  
HETATM    2  O   UNL     1     -11.813  15.282  71.257  1.00  0.00    -0.299 OA 
ENDROOT
BRANCH   2   3
HETATM    3  C   UNL     1     -10.701  14.926  70.544  1.00  0.00     0.026 A  
HETATM    4  C   UNL     1     -10.035  15.738  69.628  1.00  0.00    -0.284 A  
HETATM    5  C   UNL     1      -8.909  15.247  68.927  1.00  0.00    -0.209 A  
HETATM    6  C   UNL     1      -8.494  13.930  69.127  1.00  0.00     0.329 A  
HETATM    7  C   UNL     1      -9.101  13.142  70.126  1.00  0.00     3.878 A  
HETATM    8  N   UNL     1      -7.467  13.653  68.206  1.00  0.00    -0.112 N  
HETATM    9  C   UNL     1      -6.897  12.373  67.935  1.00  0.00    -0.099 C  
HETATM   10  C   UNL     1     -10.219  13.649  70.798  1.00  0.00     3.734 A  
HETATM   11  C   UNL     1      -7.109  14.874  67.607  1.00  0.00    -0.186 A  
HETATM   12  C   UNL     1      -7.994  15.862  68.028  1.00  0.00    -0.141 A  
HETATM   13  O   UNL     1      -5.747  12.343  67.507  1.00  0.00    -0.110 OA 
HETATM   14  C   UNL     1      -6.014  15.032  66.595  1.00  0.00     2.207 C  
BRANCH   9  15
HETATM   15  C   UNL     1      -7.562  11.055  68.154  1.00  0.00    -0.095 A  
HETATM   16  C   UNL     1      -8.740  10.781  67.442  1.00  0.00    -0.126 A  
HETATM   17  C   UNL     1      -7.061  10.096  69.043  1.00  0.00    -0.072 A  
HETATM   18  C   UNL     1      -7.643   8.825  69.101  1.00  0.00    -0.088 A  
HETATM   19 CL   UNL     1      -9.422   6.947  68.326  1.00  0.00    -0.127 Cl 
HETATM   20  C   UNL     1      -8.761   8.534  68.320  1.00  0.00    -0.143 A  
HETATM   21  C   UNL     1      -9.337   9.519  67.521  1.00  0.00    -0.146 A  
ENDBRANCH   9  15
BRANCH  12  22
HETATM   22  C   UNL     1      -8.039  17.298  67.567  1.00  0.00    -0.197 C  
HETATM   23  O   UNL     1      -6.271  17.851  69.181  1.00  0.00    -0.211 OA 
HETATM   24  C   UNL     1      -7.177  18.314  68.297  1.00  0.00    -0.259 C  
HETATM   25  O   UNL     1      -7.286  19.516  68.081  1.00  0.00    -0.275 OA 
ENDBRANCH  12  22
ENDBRANCH   2   3
TORSDOF 3
ENDMDL
MODEL      145
REMARK 921   NORMALIZED FREE ENERGY PREDICTED BY IDOCK:    8.89 KCAL/MOL
REMARK 922        TOTAL FREE ENERGY PREDICTED BY IDOCK:    9.52 KCAL/MOL
REMARK 923 INTER-LIGAND FREE ENERGY PREDICTED BY IDOCK:   10.02 KCAL/MOL
REMARK 924 INTRA-LIGAND FREE ENERGY PREDICTED BY IDOCK:   -0.50 KCAL/MOL
REMARK 927      BINDING AFFINITY PREDICTED BY RF-SCORE:    0.00 PKD
ROOT
HETATM    1  C   UNL     1      -8.667  17.439  65.394  1.00  0.00     1.405 C  
HETATM    2  O   UNL     1      -9.521  17.097  66.482  1.00  0.00    -0.252 OA 
ENDROOT
BRANCH   2   3
HETATM    3  C   UNL     1      -9.032  16.193  67.385  1.00  0.00    -0.191 A  
HETATM    4  C   UNL     1      -7.878  16.358  68.149  1.00  0.00    -0.158 A  
HETATM    5  C   UNL     1      -7.454  15.337  69.031  1.00  0.00    -0.163 A  
HETATM    6  C   UNL     1      -8.175  14.144  69.101  1.00  0.00     0.161 A  
HETATM    7  C   UNL     1      -9.396  14.016  68.408  1.00  0.00    -0.210 A  
HETATM    8  N   UNL     1      -7.462  13.253  69.922  1.00  0.00     0.887 N  
HETATM    9  C   UNL     1      -7.741  11.864  70.105  1.00  0.00     2.258 C  
HETATM   10  C   UNL     1      -9.787  15.038  67.535  1.00  0.00    -0.217 A  
HETATM   11  C   UNL     1      -6.428  13.987  70.530  1.00  0.00     0.039 A  
HETATM   12  C   UNL     1      -6.399  15.266  69.983  1.00  0.00    -0.147 A  
HETATM   13  O   UNL     1      -7.381  11.347  71.158  1.00  0.00     2.643 OA 
HETATM   14  C   UNL     1      -5.458  13.421  71.523  1.00  0.00    -0.164 C  
BRANCH   9  15
HETATM   15  C   UNL     1      -8.460  10.982  69.139  1.00  0.00    -0.022 A  
HETATM   16  C   UNL     1      -7.697  10.169  68.287  1.00  0.00    -0.088 A  
HETATM   17  C   UNL     1      -9.858  10.946  69.049  1.00  0.00    -0.196 A  
HETATM   18  C   UNL     1     -10.481   9.999  68.229  1.00  0.00    -0.246 A  
HETATM   19 CL   UNL     1     -10.473   7.912  66.515  1.00  0.00    -0.195 Cl 
HETATM   20  C   UNL     1      -9.710   9.134  67.454  1.00  0.00    -0.162 A  
HETATM   21  C   UNL     1      -8.321   9.241  67.449  1.00  0.00    -0.122 A  
ENDBRANCH   9  15
BRANCH  12  22
HETATM   22  C   UNL     1      -5.398  16.357  70.274  1.00  0.00    -0.189 C  
HETATM   23  O   UNL     1      -7.021  17.417  71.784  1.00  0.00     4.950 OA 
HETATM   24  C   UNL     1      -5.835  17.517  71.151  1.00  0.00     0.757 C  
HETATM   25  O   UNL     1      -5.130  18.510  71.294  1.00  0.00    -0.360 OA 
ENDBRANCH  12  22
ENDBRANCH   2   3
TORSDOF 3
ENDMDL
MODEL      146
REMARK 921   NORMALIZED FREE ENERGY PREDICTED BY IDOCK:   20.36 KCAL/MOL
REMARK 922        TOTAL FREE ENERGY PREDICTED BY IDOCK:   22.99 KCAL/MOL
REMARK 923 INTER-LIGAND FREE ENERGY PREDICTED BY IDOCK:   20.59 KCAL/MOL
REMARK 924 INTRA-LIGAND FREE ENERGY PREDICTED BY IDOCK:    2.40 KCAL/MOL
REMARK 927      BINDING AFFINITY PREDICTED BY RF-SCORE:    0.00 PKD
ROOT
HETATM    1  C   UNL     1     -12.852  11.173  63.384  1.00  0.00     1.462 C  
HETATM    2  O   UNL     1     -11.958  10.637  64.355  1.00  0.00     1.709 OA 
ENDROOT
BRANCH   2   3
HETATM    3  C   UNL     1     -11.816  11.346  65.516  1.00  0.00     0.596 A  
HETATM    4  C   UNL     1     -10.810  12.275  65.778  1.00  0.00    -0.313 A  
HETATM    5  C   UNL     1     -10.749  12.926  67.031  1.00  0.00    -0.273 A  
HETATM    6  C   UNL     1     -11.679  12.605  68.021  1.00  0.00    -0.350 A  
HETATM    7  C   UNL     1     -12.756  11.746  67.724  1.00  0.00     2.447 A  
HETATM    8  N   UNL     1     -11.304  13.269  69.202  1.00  0.00    -0.278 N  
HETATM    9  C   UNL     1     -11.863  13.067  70.500  1.00  0.00    -0.084 C  
HETATM   10  C   UNL     1     -12.787  11.106  66.479  1.00  0.00     5.846 A  
HETATM   11  C   UNL     1     -10.279  14.171  68.863  1.00  0.00    -0.175 A  
HETATM   12  C   UNL     1      -9.916  13.964  67.535  1.00  0.00    -0.240 A  
HETATM   13  O   UNL     1     -11.802  13.999  71.297  1.00  0.00    -0.233 OA 
HETATM   14  C   UNL     1      -9.627  15.114  69.827  1.00  0.00    -0.066 C  
BRANCH   9  15
HETATM   15  C   UNL     1     -12.547  11.827  70.974  1.00  0.00    -0.409 A  
HETATM   16  C   UNL     1     -12.414  10.661  70.205  1.00  0.00    -0.381 A  
HETATM   17  C   UNL     1     -13.316  11.792  72.145  1.00  0.00    -0.334 A  
HETATM   18  C   UNL     1     -13.814  10.572  72.617  1.00  0.00     0.779 A  
HETATM   19 CL   UNL     1     -14.132   7.893  72.513  1.00  0.00    -0.037 Cl 
HETATM   20  C   UNL     1     -13.598   9.403  71.889  1.00  0.00    -0.410 A  
HETATM   21  C   UNL     1     -12.934   9.448  70.665  1.00  0.00     0.120 A  
ENDBRANCH   9  15
BRANCH  12  22
HETATM   22  C   UNL     1      -8.799  14.644  66.782  1.00  0.00    -0.269 C  
HETATM   23  O   UNL     1      -8.341  12.540  65.600  1.00  0.00     0.907 OA 
HETATM   24  C   UNL     1      -7.941  13.801  65.855  1.00  0.00     2.884 C  
HETATM   25  O   UNL     1      -6.924  14.252  65.340  1.00  0.00     7.694 OA 
ENDBRANCH  12  22
ENDBRANCH   2   3
TORSDOF 3
ENDMDL
MODEL      147
REMARK 921   NORMALIZED FREE ENERGY PREDICTED BY IDOCK:   33.96 KCAL/MOL
REMARK 922        TOTAL FREE ENERGY PREDICTED BY IDOCK:   38.98 KCAL/MOL
REMARK 923 INTER-LIGAND FREE ENERGY PREDICTED BY IDOCK:   36.86 KCAL/MOL
REMARK 924 INTRA-LIGAND FREE ENERGY PREDICTED BY IDOCK:    2.12 KCAL/MOL
REMARK 927      BINDING AFFINITY PREDICTED BY RF-SCORE:    0.00 PKD
ROOT
HETATM    1  C   UNL     1     -12.886  11.137  63.341  1.00  0.00     1.462 C  
HETATM    2  O   UNL     1     -11.729  10.815  64.109  1.00  0.00     0.891 OA 
ENDROOT
BRANCH   2   3
HETATM    3  C   UNL     1     -11.273  11.780  64.964  1.00  0.00    -0.257 A  
HETATM    4  C   UNL     1     -10.034  12.414  64.880  1.00  0.00    -0.207 A  
HETATM    5  C   UNL     1      -9.659  13.378  65.845  1.00  0.00    -0.127 A  
HETATM    6  C   UNL     1     -10.521  13.663  66.905  1.00  0.00    -0.272 A  
HETATM    7  C   UNL     1     -11.813  13.101  66.935  1.00  0.00    -0.444 A  
HETATM    8  N   UNL     1      -9.850  14.526  67.790  1.00  0.00    -0.218 N  
HETATM    9  C   UNL     1     -10.289  14.908  69.094  1.00  0.00    -0.245 C  
HETATM   10  C   UNL     1     -12.155  12.142  65.974  1.00  0.00    -0.101 A  
HETATM   11  C   UNL     1      -8.671  14.943  67.147  1.00  0.00    -0.219 A  
HETATM   12  C   UNL     1      -8.530  14.237  65.956  1.00  0.00     1.116 A  
HETATM   13  O   UNL     1      -9.894  15.984  69.534  1.00  0.00    -0.254 OA 
HETATM   14  C   UNL     1      -7.686  15.912  67.729  1.00  0.00    -0.156 C  
BRANCH   9  15
HETATM   15  C   UNL     1     -11.216  14.129  69.968  1.00  0.00    -0.118 A  
HETATM   16  C   UNL     1     -11.952  14.824  70.939  1.00  0.00    -0.384 A  
HETATM   17  C   UNL     1     -11.366  12.741  69.858  1.00  0.00    -0.032 A  
HETATM   18  C   UNL     1     -12.351  12.084  70.602  1.00  0.00    -0.394 A  
HETATM   19 CL   UNL     1     -14.408  12.010  72.350  1.00  0.00     0.627 Cl 
HETATM   20  C   UNL     1     -13.140  12.801  71.501  1.00  0.00    -0.286 A  
HETATM   21  C   UNL     1     -12.918  14.161  71.702  1.00  0.00    -0.423 A  
ENDBRANCH   9  15
BRANCH  12  22
HETATM   22  C   UNL     1      -7.369  14.297  64.995  1.00  0.00    12.198 C  
HETATM   23  O   UNL     1      -7.752  11.941  64.413  1.00  0.00     2.212 OA 
HETATM   24  C   UNL     1      -6.949  13.017  64.295  1.00  0.00    13.763 C  
HETATM   25  O   UNL     1      -5.920  12.961  63.630  1.00  0.00     8.727 OA 
ENDBRANCH  12  22
ENDBRANCH   2   3
TORSDOF 3
ENDMDL
MODEL      148
REMARK 921   NORMALIZED FREE ENERGY PREDICTED BY IDOCK:   36.33 KCAL/MOL
REMARK 922        TOTAL FREE ENERGY PREDICTED BY IDOCK:   41.76 KCAL/MOL
REMARK 923 INTER-LIGAND FREE ENERGY PREDICTED BY IDOCK:   42.63 KCAL/MOL
REMARK 924 INTRA-LIGAND FREE ENERGY PREDICTED BY IDOCK:   -0.86 KCAL/MOL
REMARK 927      BINDING AFFINITY PREDICTED BY RF-SCORE:    0.00 PKD
ROOT
HETATM    1  C   UNL     1     -12.526  16.428  70.799  1.00  0.00     0.969 C  
HETATM    2  O   UNL     1     -11.813  15.282  71.257  1.00  0.00    -0.299 OA 
ENDROOT
BRANCH   2   3
HETATM    3  C   UNL     1     -10.701  14.926  70.544  1.00  0.00     0.026 A  
HETATM    4  C   UNL     1      -9.620  14.202  71.043  1.00  0.00     4.323 A  
HETATM    5  C   UNL     1      -8.509  13.917  70.215  1.00  0.00     2.648 A  
HETATM    6  C   UNL     1      -8.483  14.402  68.907  1.00  0.00    -0.069 A  
HETATM    7  C   UNL     1      -9.617  15.044  68.370  1.00  0.00    -0.212 A  
HETATM    8  N   UNL     1      -7.219  14.116  68.363  1.00  0.00    -0.099 N  
HETATM    9  C   UNL     1      -6.700  14.604  67.125  1.00  0.00     0.423 C  
HETATM   10  C   UNL     1     -10.699  15.321  69.213  1.00  0.00    -0.252 A  
HETATM   11  C   UNL     1      -6.564  13.258  69.265  1.00  0.00    -0.093 A  
HETATM   12  C   UNL     1      -7.337  13.136  70.416  1.00  0.00     2.196 A  
HETATM   13  O   UNL     1      -5.844  13.929  66.562  1.00  0.00     1.734 OA 
HETATM   14  C   UNL     1      -5.202  12.673  69.041  1.00  0.00    -0.067 C  
BRANCH   9  15
HETATM   15  C   UNL     1      -7.128  15.855  66.431  1.00  0.00     0.728 A  
HETATM   16  C   UNL     1      -6.944  17.078  67.094  1.00  0.00    -0.213 A  
HETATM   17  C   UNL     1      -7.709  15.847  65.156  1.00  0.00     5.674 A  
HETATM   18  C   UNL     1      -7.957  17.055  64.495  1.00  0.00     7.585 A  
HETATM   19 CL   UNL     1      -7.908  19.747  64.285  1.00  0.00     2.599 Cl 
HETATM   20  C   UNL     1      -7.686  18.266  65.130  1.00  0.00     1.625 A  
HETATM   21  C   UNL     1      -7.218  18.283  66.442  1.00  0.00    -0.279 A  
ENDBRANCH   9  15
BRANCH  12  22
HETATM   22  C   UNL     1      -6.979  12.389  71.676  1.00  0.00     5.817 C  
HETATM   23  O   UNL     1      -7.758  10.303  70.638  1.00  0.00    -0.098 OA 
HETATM   24  C   UNL     1      -7.329  10.913  71.760  1.00  0.00     5.324 C  
HETATM   25  O   UNL     1      -7.213  10.288  72.809  1.00  0.00     2.637 OA 
ENDBRANCH  12  22
ENDBRANCH   2   3
TORSDOF 3
ENDMDL
MODEL      149
REMARK 921   NORMALIZED FREE ENERGY PREDICTED BY IDOCK:   64.11 KCAL/MOL
REMARK 922        TOTAL FREE ENERGY PREDICTED BY IDOCK:   74.42 KCAL/MOL
REMARK 923 INTER-LIGAND FREE ENERGY PREDICTED BY IDOCK:   74.36 KCAL/MOL
REMARK 924 INTRA-LIGAND FREE ENERGY PREDICTED BY IDOCK:    0.06 KCAL/MOL
REMARK 927      BINDING AFFINITY PREDICTED BY RF-SCORE:    0.00 PKD
ROOT
HETATM    1  C   UNL     1      -8.639   5.276  70.324  1.00  0.00    -0.121 C  
HETATM    2  O   UNL     1      -8.280   6.641  70.524  1.00  0.00    -0.115 OA 
ENDROOT
BRANCH   2   3
HETATM    3  C   UNL     1      -9.233   7.576  70.227  1.00  0.00    -0.157 A  
HETATM    4  C   UNL     1      -9.994   7.610  69.059  1.00  0.00    -0.181 A  
HETATM    5  C   UNL     1     -10.932   8.648  68.850  1.00  0.00     0.083 A  
HETATM    6  C   UNL     1     -11.062   9.661  69.801  1.00  0.00    -0.217 A  
HETATM    7  C   UNL     1     -10.371   9.572  71.026  1.00  0.00    -0.353 A  
HETATM    8  N   UNL     1     -11.935  10.634  69.282  1.00  0.00    -0.246 N  
HETATM    9  C   UNL     1     -12.191  11.923  69.840  1.00  0.00    -0.199 C  
HETATM   10  C   UNL     1      -9.441   8.540  71.203  1.00  0.00    -0.249 A  
HETATM   11  C   UNL     1     -12.508  10.096  68.116  1.00  0.00     3.316 A  
HETATM   12  C   UNL     1     -11.893   8.882  67.827  1.00  0.00     3.012 A  
HETATM   13  O   UNL     1     -13.273  12.446  69.588  1.00  0.00     1.261 OA 
HETATM   14  C   UNL     1     -13.535  10.795  67.277  1.00  0.00    12.360 C  
BRANCH   9  15
HETATM   15  C   UNL     1     -11.271  12.689  70.731  1.00  0.00     1.735 A  
HETATM   16  C   UNL     1     -10.174  13.342  70.148  1.00  0.00     2.182 A  
HETATM   17  C   UNL     1     -11.458  12.770  72.117  1.00  0.00     4.562 A  
HETATM   18  C   UNL     1     -10.651  13.617  72.883  1.00  0.00     7.980 A  
HETATM   19 CL   UNL     1      -8.683  15.439  73.201  1.00  0.00     9.579 Cl 
HETATM   20  C   UNL     1      -9.618  14.332  72.276  1.00  0.00     7.552 A  
HETATM   21  C   UNL     1      -9.351  14.167  70.919  1.00  0.00     4.215 A  
ENDBRANCH   9  15
BRANCH  12  22
HETATM   22  C   UNL     1     -12.129   8.007  66.621  1.00  0.00     6.561 C  
HETATM   23  O   UNL     1      -9.709   7.963  66.202  1.00  0.00    -0.139 OA 
HETATM   24  C   UNL     1     -10.938   7.650  65.749  1.00  0.00     3.781 C  
HETATM   25  O   UNL     1     -11.084   7.081  64.672  1.00  0.00     8.164 OA 
ENDBRANCH  12  22
ENDBRANCH   2   3
TORSDOF 3
ENDMDL
