MODEL        1
REMARK 921   NORMALIZED FREE ENERGY PREDICTED BY IDOCK:   -7.30 KCAL/MOL
REMARK 922        TOTAL FREE ENERGY PREDICTED BY IDOCK:  -10.14 KCAL/MOL
REMARK 923 INTER-LIGAND FREE ENERGY PREDICTED BY IDOCK:   -9.01 KCAL/MOL
REMARK 924 INTRA-LIGAND FREE ENERGY PREDICTED BY IDOCK:   -1.13 KCAL/MOL
REMARK 927      BINDING AFFINITY PREDICTED BY RF-SCORE:    0.00 PKD
ROOT
HETATM    1  C   UNL     1      -8.808  11.277  67.305  1.00  0.00    -0.150 C  
HETATM    2  C   UNL     1      -9.933  10.643  68.435  1.00  0.00    -0.176 C  
HETATM    3  C   UNL     1     -11.601  11.298  68.673  1.00  0.00    -0.384 C  
HETATM    4  C   UNL     1     -12.053  11.000  70.117  1.00  0.00    -0.438 C  
HETATM    5  C   UNL     1     -11.907  12.971  68.189  1.00  0.00    -0.381 C  
HETATM    6  C   UNL     1     -12.407  13.854  69.281  1.00  0.00    -0.201 C  
HETATM    7  C   UNL     1     -11.526  14.818  69.566  1.00  0.00    -0.331 C  
HETATM    8  C   UNL     1     -11.521  15.624  70.815  1.00  0.00    -0.409 C  
HETATM    9  C   UNL     1     -10.370  14.739  68.587  1.00  0.00    -0.245 C  
HETATM   10  C   UNL     1      -9.927  13.785  65.878  1.00  0.00    -0.308 C  
HETATM   11  C   UNL     1     -10.491  13.053  67.940  1.00  0.00    -0.229 C  
HETATM   12  C   UNL     1     -11.213  11.896  66.408  1.00  0.00    -0.331 C  
HETATM   13  C   UNL     1      -8.799  12.440  66.186  1.00  0.00     0.108 C  
HETATM   14  O   UNL     1      -9.819  12.627  69.202  1.00  0.00    -0.385 OA 
HETATM   15  H   UNL     1      -8.885  12.681  69.037  1.00  0.00     0.000 HD 
HETATM   16  C   UNL     1     -11.282  12.343  64.861  1.00  0.00    -0.353 C  
HETATM   17  O   UNL     1     -10.866  10.507  66.223  1.00  0.00    -0.125 OA 
HETATM   18  C   UNL     1      -7.385  13.842  67.657  1.00  0.00    -0.186 C  
HETATM   19  C   UNL     1     -11.597  13.980  66.725  1.00  0.00    -0.386 C  
HETATM   20  C   UNL     1      -6.299  11.764  66.997  1.00  0.00    -0.150 C  
HETATM   21  H   UNL     1     -11.200   9.971  65.513  1.00  0.00     0.000 HD 
HETATM   22  C   UNL     1      -7.661  12.418  67.233  1.00  0.00    -0.141 C  
HETATM   23  O   UNL     1     -12.499  14.681  66.240  1.00  0.00    -0.213 OA 
HETATM   24  C   UNL     1     -10.503  13.383  64.576  1.00  0.00    -0.431 C  
ENDROOT
BRANCH   9  25
HETATM   25  O   UNL     1     -10.305  15.901  67.739  1.00  0.00    -0.265 OA 
BRANCH  25  26
HETATM   26  C   UNL     1      -9.299  16.774  68.049  1.00  0.00    -0.229 C  
HETATM   27  O   UNL     1      -8.701  16.787  69.117  1.00  0.00    -0.210 OA 
BRANCH  26  28
HETATM   28  C   UNL     1      -8.895  17.678  66.930  1.00  0.00    -0.260 C  
HETATM   29  C   UNL     1     -10.678  19.530  67.055  1.00  0.00    -0.592 C  
HETATM   30  C   UNL     1      -9.489  18.817  66.522  1.00  0.00    -0.353 C  
HETATM   31  C   UNL     1      -7.611  17.271  66.240  1.00  0.00    -0.360 C  
ENDBRANCH  26  28
ENDBRANCH  25  26
ENDBRANCH   9  25
BRANCH  16  32
HETATM   32  C   UNL     1     -12.262  11.755  63.895  1.00  0.00    -0.297 C  
HETATM   33  H   UNL     1     -13.407  12.445  62.483  1.00  0.00     0.000 HD 
HETATM   34  O   UNL     1     -12.786  12.818  63.097  1.00  0.00    -0.604 OA 
ENDBRANCH  16  32
TORSDOF 4
ENDMDL
MODEL        2
REMARK 921   NORMALIZED FREE ENERGY PREDICTED BY IDOCK:   -7.22 KCAL/MOL
REMARK 922        TOTAL FREE ENERGY PREDICTED BY IDOCK:  -10.04 KCAL/MOL
REMARK 923 INTER-LIGAND FREE ENERGY PREDICTED BY IDOCK:   -9.32 KCAL/MOL
REMARK 924 INTRA-LIGAND FREE ENERGY PREDICTED BY IDOCK:   -0.72 KCAL/MOL
REMARK 927      BINDING AFFINITY PREDICTED BY RF-SCORE:    0.00 PKD
ROOT
HETATM    1  C   UNL     1     -11.006  15.619  68.935  1.00  0.00    -0.266 C  
HETATM    2  C   UNL     1      -9.337  15.969  68.746  1.00  0.00    -0.222 C  
HETATM    3  C   UNL     1      -8.272  15.171  67.523  1.00  0.00    -0.196 C  
HETATM    4  C   UNL     1      -6.820  15.182  68.042  1.00  0.00    -0.152 C  
HETATM    5  C   UNL     1      -8.767  13.590  66.904  1.00  0.00    -0.158 C  
HETATM    6  C   UNL     1      -7.774  12.500  67.114  1.00  0.00    -0.109 C  
HETATM    7  C   UNL     1      -8.250  11.563  67.940  1.00  0.00    -0.134 C  
HETATM    8  C   UNL     1      -7.422  10.554  68.651  1.00  0.00    -0.095 C  
HETATM    9  C   UNL     1      -9.692  11.889  68.281  1.00  0.00    -0.200 C  
HETATM   10  C   UNL     1     -11.903  13.327  67.059  1.00  0.00    -0.442 C  
HETATM   11  C   UNL     1      -9.823  13.649  67.881  1.00  0.00    -0.237 C  
HETATM   12  C   UNL     1     -10.381  15.003  66.445  1.00  0.00    -0.287 C  
HETATM   13  C   UNL     1     -12.095  14.671  68.213  1.00  0.00    -0.214 C  
HETATM   14  O   UNL     1      -9.163  13.894  69.196  1.00  0.00    -0.386 OA 
HETATM   15  H   UNL     1      -9.859  13.933  69.841  1.00  0.00     0.000 HD 
HETATM   16  C   UNL     1     -11.629  14.827  65.440  1.00  0.00    -0.316 C  
HETATM   17  O   UNL     1     -10.484  16.423  66.682  1.00  0.00    -0.295 OA 
HETATM   18  C   UNL     1     -12.043  13.134  70.153  1.00  0.00    -0.392 C  
HETATM   19  C   UNL     1     -10.278  12.874  66.223  1.00  0.00    -0.278 C  
HETATM   20  C   UNL     1     -12.835  15.364  70.730  1.00  0.00    -0.524 C  
HETATM   21  H   UNL     1     -10.743  17.050  66.016  1.00  0.00     0.000 HD 
HETATM   22  C   UNL     1     -11.953  14.588  69.751  1.00  0.00    -0.383 C  
HETATM   23  O   UNL     1     -10.244  12.209  65.176  1.00  0.00    -0.268 OA 
HETATM   24  C   UNL     1     -12.504  13.908  65.839  1.00  0.00    -0.519 C  
ENDROOT
BRANCH   9  25
HETATM   25  O   UNL     1     -10.603  10.898  67.765  1.00  0.00    -0.190 OA 
BRANCH  25  26
HETATM   26  C   UNL     1     -10.537   9.686  68.394  1.00  0.00    -0.225 C  
HETATM   27  O   UNL     1     -10.731   9.517  69.591  1.00  0.00    -0.223 OA 
BRANCH  26  28
HETATM   28  C   UNL     1     -10.299   8.527  67.482  1.00  0.00    -0.334 C  
HETATM   29  C   UNL     1     -11.065   6.535  68.920  1.00  0.00    -0.371 C  
HETATM   30  C   UNL     1     -10.514   7.218  67.722  1.00  0.00    -0.292 C  
HETATM   31  C   UNL     1      -9.830   8.917  66.096  1.00  0.00    -0.326 C  
ENDBRANCH  26  28
ENDBRANCH  25  26
ENDBRANCH   9  25
BRANCH  16  32
HETATM   32  C   UNL     1     -11.693  15.506  64.108  1.00  0.00    -0.086 C  
HETATM   33  H   UNL     1     -11.439  17.321  63.459  1.00  0.00     0.000 HD 
HETATM   34  O   UNL     1     -11.399  16.890  64.304  1.00  0.00    -1.202 OA 
ENDBRANCH  16  32
TORSDOF 4
ENDMDL
MODEL        3
REMARK 921   NORMALIZED FREE ENERGY PREDICTED BY IDOCK:   -7.21 KCAL/MOL
REMARK 922        TOTAL FREE ENERGY PREDICTED BY IDOCK:  -10.03 KCAL/MOL
REMARK 923 INTER-LIGAND FREE ENERGY PREDICTED BY IDOCK:   -8.90 KCAL/MOL
REMARK 924 INTRA-LIGAND FREE ENERGY PREDICTED BY IDOCK:   -1.13 KCAL/MOL
REMARK 927      BINDING AFFINITY PREDICTED BY RF-SCORE:    0.00 PKD
ROOT
HETATM    1  C   UNL     1     -10.947  12.525  66.005  1.00  0.00    -0.318 C  
HETATM    2  C   UNL     1      -9.405  11.869  66.374  1.00  0.00    -0.233 C  
HETATM    3  C   UNL     1      -8.380  12.421  67.756  1.00  0.00    -0.164 C  
HETATM    4  C   UNL     1      -6.899  12.160  67.415  1.00  0.00    -0.147 C  
HETATM    5  C   UNL     1      -8.661  14.046  68.395  1.00  0.00    -0.174 C  
HETATM    6  C   UNL     1      -7.470  14.942  68.363  1.00  0.00    -0.115 C  
HETATM    7  C   UNL     1      -7.663  15.975  67.538  1.00  0.00    -0.176 C  
HETATM    8  C   UNL     1      -6.585  16.836  66.985  1.00  0.00    -0.239 C  
HETATM    9  C   UNL     1      -9.084  15.929  67.010  1.00  0.00    -0.217 C  
HETATM   10  C   UNL     1     -11.653  14.884  67.879  1.00  0.00    -0.364 C  
HETATM   11  C   UNL     1      -9.577  14.211  67.297  1.00  0.00    -0.234 C  
HETATM   12  C   UNL     1     -10.545  12.940  68.582  1.00  0.00    -0.234 C  
HETATM   13  C   UNL     1     -11.933  13.634  66.641  1.00  0.00    -0.458 C  
HETATM   14  O   UNL     1      -8.808  13.890  66.059  1.00  0.00    -0.373 OA 
HETATM   15  H   UNL     1      -9.412  13.999  65.334  1.00  0.00     0.000 HD 
HETATM   16  C   UNL     1     -11.859  13.310  69.438  1.00  0.00    -0.386 C  
HETATM   17  O   UNL     1     -10.868  11.570  68.259  1.00  0.00    -0.193 OA 
HETATM   18  C   UNL     1     -11.361  15.193  64.805  1.00  0.00    -0.399 C  
HETATM   19  C   UNL     1     -10.094  15.005  68.927  1.00  0.00    -0.234 C  
HETATM   20  C   UNL     1     -12.457  13.165  64.020  1.00  0.00    -0.346 C  
HETATM   21  H   UNL     1     -11.317  10.981  68.855  1.00  0.00     0.000 HD 
HETATM   22  C   UNL     1     -11.584  13.736  65.137  1.00  0.00    -0.341 C  
HETATM   23  O   UNL     1     -10.075  15.621  70.005  1.00  0.00    -0.293 OA 
HETATM   24  C   UNL     1     -12.499  14.386  68.986  1.00  0.00     0.029 C  
ENDROOT
BRANCH   9  25
HETATM   25  O   UNL     1      -9.862  17.054  67.464  1.00  0.00    -0.248 OA 
BRANCH  25  26
HETATM   26  C   UNL     1      -9.811  18.147  66.644  1.00  0.00    -0.350 C  
HETATM   27  O   UNL     1     -10.177  18.153  65.476  1.00  0.00    -0.534 OA 
BRANCH  26  28
HETATM   28  C   UNL     1      -9.354  19.402  67.314  1.00  0.00    -0.386 C  
HETATM   29  C   UNL     1      -7.335  20.086  65.871  1.00  0.00    -0.327 C  
HETATM   30  C   UNL     1      -8.313  20.192  66.985  1.00  0.00    -0.382 C  
HETATM   31  C   UNL     1     -10.243  19.853  68.453  1.00  0.00    -0.557 C  
ENDBRANCH  26  28
ENDBRANCH  25  26
ENDBRANCH   9  25
BRANCH  16  32
HETATM   32  C   UNL     1     -12.212  12.614  70.715  1.00  0.00    -0.240 C  
HETATM   33  H   UNL     1     -12.843  10.842  71.203  1.00  0.00     0.000 HD 
HETATM   34  O   UNL     1     -12.619  11.284  70.393  1.00  0.00    -0.270 OA 
ENDBRANCH  16  32
TORSDOF 4
ENDMDL
MODEL        4
REMARK 921   NORMALIZED FREE ENERGY PREDICTED BY IDOCK:   -7.06 KCAL/MOL
REMARK 922        TOTAL FREE ENERGY PREDICTED BY IDOCK:   -9.84 KCAL/MOL
REMARK 923 INTER-LIGAND FREE ENERGY PREDICTED BY IDOCK:   -9.15 KCAL/MOL
REMARK 924 INTRA-LIGAND FREE ENERGY PREDICTED BY IDOCK:   -0.70 KCAL/MOL
REMARK 927      BINDING AFFINITY PREDICTED BY RF-SCORE:    0.00 PKD
ROOT
HETATM    1  C   UNL     1     -10.941  15.748  68.911  1.00  0.00    -0.283 C  
HETATM    2  C   UNL     1      -9.277  16.113  68.706  1.00  0.00    -0.224 C  
HETATM    3  C   UNL     1      -8.210  15.302  67.494  1.00  0.00    -0.191 C  
HETATM    4  C   UNL     1      -6.755  15.339  68.005  1.00  0.00    -0.156 C  
HETATM    5  C   UNL     1      -8.691  13.705  66.908  1.00  0.00    -0.162 C  
HETATM    6  C   UNL     1      -7.684  12.629  67.134  1.00  0.00    -0.094 C  
HETATM    7  C   UNL     1      -8.147  11.703  67.980  1.00  0.00    -0.139 C  
HETATM    8  C   UNL     1      -7.304  10.717  68.707  1.00  0.00    -0.104 C  
HETATM    9  C   UNL     1      -9.590  12.021  68.322  1.00  0.00    -0.204 C  
HETATM   10  C   UNL     1     -11.823  13.411  67.085  1.00  0.00    -0.429 C  
HETATM   11  C   UNL     1      -9.742  13.771  67.889  1.00  0.00    -0.229 C  
HETATM   12  C   UNL     1     -10.322  15.091  66.430  1.00  0.00    -0.287 C  
HETATM   13  C   UNL     1     -12.024  14.775  68.213  1.00  0.00    -0.258 C  
HETATM   14  O   UNL     1      -9.078  14.049  69.196  1.00  0.00    -0.387 OA 
HETATM   15  H   UNL     1      -9.771  14.093  69.843  1.00  0.00     0.000 HD 
HETATM   16  C   UNL     1     -11.573  14.882  65.435  1.00  0.00    -0.280 C  
HETATM   17  O   UNL     1     -10.439  16.514  66.640  1.00  0.00    -0.297 OA 
HETATM   18  C   UNL     1     -11.945  13.277  70.183  1.00  0.00    -0.388 C  
HETATM   19  C   UNL     1     -10.197  12.960  66.249  1.00  0.00    -0.278 C  
HETATM   20  C   UNL     1     -12.757  15.509  70.721  1.00  0.00    -0.511 C  
HETATM   21  H   UNL     1     -10.708  17.125  65.964  1.00  0.00     0.000 HD 
HETATM   22  C   UNL     1     -11.873  14.723  69.752  1.00  0.00    -0.362 C  
HETATM   23  O   UNL     1     -10.161  12.274  65.215  1.00  0.00    -0.270 OA 
HETATM   24  C   UNL     1     -12.436  13.962  65.856  1.00  0.00    -0.519 C  
ENDROOT
BRANCH   9  25
HETATM   25  O   UNL     1     -10.493  11.011  67.831  1.00  0.00    -0.178 OA 
BRANCH  25  26
HETATM   26  C   UNL     1     -11.196  10.357  68.804  1.00  0.00    -0.241 C  
HETATM   27  O   UNL     1     -12.359  10.603  69.100  1.00  0.00    -0.341 OA 
BRANCH  26  28
HETATM   28  C   UNL     1     -10.464   9.222  69.442  1.00  0.00    -0.229 C  
HETATM   29  C   UNL     1     -10.119   7.614  67.461  1.00  0.00    -0.264 C  
HETATM   30  C   UNL     1     -10.032   8.080  68.869  1.00  0.00    -0.199 C  
HETATM   31  C   UNL     1     -10.113   9.451  70.897  1.00  0.00    -0.366 C  
ENDBRANCH  26  28
ENDBRANCH  25  26
ENDBRANCH   9  25
BRANCH  16  32
HETATM   32  C   UNL     1     -11.651  15.534  64.091  1.00  0.00    -0.078 C  
HETATM   33  H   UNL     1     -11.426  17.340  63.406  1.00  0.00     0.000 HD 
HETATM   34  O   UNL     1     -11.377  16.926  64.260  1.00  0.00    -1.202 OA 
ENDBRANCH  16  32
TORSDOF 4
ENDMDL
MODEL        5
REMARK 921   NORMALIZED FREE ENERGY PREDICTED BY IDOCK:   -6.32 KCAL/MOL
REMARK 922        TOTAL FREE ENERGY PREDICTED BY IDOCK:   -8.93 KCAL/MOL
REMARK 923 INTER-LIGAND FREE ENERGY PREDICTED BY IDOCK:   -7.81 KCAL/MOL
REMARK 924 INTRA-LIGAND FREE ENERGY PREDICTED BY IDOCK:   -1.12 KCAL/MOL
REMARK 927      BINDING AFFINITY PREDICTED BY RF-SCORE:    0.00 PKD
ROOT
HETATM    1  C   UNL     1      -7.108  11.305  66.766  1.00  0.00    -0.143 C  
HETATM    2  C   UNL     1      -7.388  10.014  65.671  1.00  0.00    -0.127 C  
HETATM    3  C   UNL     1      -8.992   9.213  65.445  1.00  0.00    -0.255 C  
HETATM    4  C   UNL     1      -8.764   7.764  64.969  1.00  0.00     0.105 C  
HETATM    5  C   UNL     1     -10.164   9.325  66.765  1.00  0.00    -0.325 C  
HETATM    6  C   UNL     1     -10.626   8.014  67.301  1.00  0.00    -0.360 C  
HETATM    7  C   UNL     1     -10.242   7.846  68.570  1.00  0.00    -0.229 C  
HETATM    8  C   UNL     1     -10.200   6.541  69.281  1.00  0.00    -0.216 C  
HETATM    9  C   UNL     1      -9.564   9.113  69.054  1.00  0.00    -0.156 C  
HETATM   10  C   UNL     1      -9.639  11.950  68.427  1.00  0.00    -0.196 C  
HETATM   11  C   UNL     1      -9.107   9.951  67.516  1.00  0.00    -0.134 C  
HETATM   12  C   UNL     1      -9.676  11.374  66.153  1.00  0.00    -0.219 C  
HETATM   13  C   UNL     1      -7.992  12.187  67.790  1.00  0.00    -0.151 C  
HETATM   14  O   UNL     1      -7.947   9.014  67.468  1.00  0.00    -0.100 OA 
HETATM   15  H   UNL     1      -7.250   9.428  67.963  1.00  0.00     0.000 HD 
HETATM   16  C   UNL     1     -10.437  12.749  66.510  1.00  0.00    -0.276 C  
HETATM   17  O   UNL     1      -8.816  11.862  65.101  1.00  0.00    -0.347 OA 
HETATM   18  C   UNL     1      -6.980  10.981  69.700  1.00  0.00    -0.110 C  
HETATM   19  C   UNL     1     -10.839  10.643  67.797  1.00  0.00    -0.286 C  
HETATM   20  C   UNL     1      -5.348  12.235  68.398  1.00  0.00    -0.052 C  
HETATM   21  H   UNL     1      -9.080  12.522  64.470  1.00  0.00     0.000 HD 
HETATM   22  C   UNL     1      -6.698  11.523  68.318  1.00  0.00    -0.064 C  
HETATM   23  O   UNL     1     -12.063  10.737  67.978  1.00  0.00    -0.474 OA 
HETATM   24  C   UNL     1     -10.356  13.080  67.796  1.00  0.00    -0.227 C  
ENDROOT
BRANCH   9  25
HETATM   25  O   UNL     1     -10.313   9.755  70.104  1.00  0.00    -0.247 OA 
BRANCH  25  26
HETATM   26  C   UNL     1     -10.164   9.183  71.337  1.00  0.00    -0.332 C  
HETATM   27  O   UNL     1      -9.091   9.046  71.911  1.00  0.00    -0.365 OA 
BRANCH  26  28
HETATM   28  C   UNL     1     -11.448   8.810  72.006  1.00  0.00    -0.441 C  
HETATM   29  C   UNL     1     -12.950  10.829  71.468  1.00  0.00    -0.562 C  
HETATM   30  C   UNL     1     -12.596   9.514  72.060  1.00  0.00    -0.456 C  
HETATM   31  C   UNL     1     -11.443   7.428  72.624  1.00  0.00    -0.337 C  
ENDBRANCH  26  28
ENDBRANCH  25  26
ENDBRANCH   9  25
BRANCH  16  32
HETATM   32  C   UNL     1     -11.295  13.475  65.523  1.00  0.00    -0.296 C  
HETATM   33  H   UNL     1     -10.990  14.757  64.093  1.00  0.00     0.000 HD 
HETATM   34  O   UNL     1     -10.446  14.296  64.721  1.00  0.00    -0.431 OA 
ENDBRANCH  16  32
TORSDOF 4
ENDMDL
MODEL        6
REMARK 921   NORMALIZED FREE ENERGY PREDICTED BY IDOCK:   -6.28 KCAL/MOL
REMARK 922        TOTAL FREE ENERGY PREDICTED BY IDOCK:   -8.88 KCAL/MOL
REMARK 923 INTER-LIGAND FREE ENERGY PREDICTED BY IDOCK:   -8.05 KCAL/MOL
REMARK 924 INTRA-LIGAND FREE ENERGY PREDICTED BY IDOCK:   -0.84 KCAL/MOL
REMARK 927      BINDING AFFINITY PREDICTED BY RF-SCORE:    0.00 PKD
ROOT
HETATM    1  C   UNL     1     -10.753  14.825  68.486  1.00  0.00    -0.247 C  
HETATM    2  C   UNL     1      -9.065  15.004  68.233  1.00  0.00    -0.182 C  
HETATM    3  C   UNL     1      -8.066  13.859  67.255  1.00  0.00    -0.162 C  
HETATM    4  C   UNL     1      -6.613  13.899  67.770  1.00  0.00    -0.186 C  
HETATM    5  C   UNL     1      -8.673  12.212  67.038  1.00  0.00    -0.190 C  
HETATM    6  C   UNL     1      -7.754  11.142  67.520  1.00  0.00    -0.116 C  
HETATM    7  C   UNL     1      -8.288  10.471  68.546  1.00  0.00    -0.129 C  
HETATM    8  C   UNL     1      -7.526   9.615  69.492  1.00  0.00    -0.096 C  
HETATM    9  C   UNL     1      -9.702  10.968  68.782  1.00  0.00    -0.191 C  
HETATM   10  C   UNL     1     -11.818  12.209  67.222  1.00  0.00    -0.293 C  
HETATM   11  C   UNL     1      -9.715  12.581  67.960  1.00  0.00    -0.215 C  
HETATM   12  C   UNL     1     -10.189  13.575  66.230  1.00  0.00    -0.299 C  
HETATM   13  C   UNL     1     -11.909  13.805  68.008  1.00  0.00    -0.408 C  
HETATM   14  O   UNL     1      -9.030  13.096  69.182  1.00  0.00    -0.200 OA 
HETATM   15  H   UNL     1      -9.717  13.340  69.790  1.00  0.00     0.000 HD 
HETATM   16  C   UNL     1     -11.453  13.243  65.286  1.00  0.00    -0.319 C  
HETATM   17  O   UNL     1     -10.193  15.013  66.109  1.00  0.00    -0.269 OA 
HETATM   18  C   UNL     1     -11.949  12.793  70.267  1.00  0.00    -0.358 C  
HETATM   19  C   UNL     1     -10.233  11.455  66.539  1.00  0.00    -0.221 C  
HETATM   20  C   UNL     1     -12.582  15.145  70.270  1.00  0.00    -0.370 C  
HETATM   21  H   UNL     1     -10.413  15.473  65.307  1.00  0.00     0.000 HD 
HETATM   22  C   UNL     1     -11.762  14.094  69.521  1.00  0.00    -0.364 C  
HETATM   23  O   UNL     1     -10.252  10.552  65.688  1.00  0.00    -0.262 OA 
HETATM   24  C   UNL     1     -12.386  12.512  65.890  1.00  0.00    -0.155 C  
ENDROOT
BRANCH   9  25
HETATM   25  O   UNL     1     -10.681   9.946  68.517  1.00  0.00    -0.214 OA 
BRANCH  25  26
HETATM   26  C   UNL     1     -10.875   9.066  69.545  1.00  0.00    -0.166 C  
HETATM   27  O   UNL     1     -11.202   9.389  70.680  1.00  0.00    -0.249 OA 
BRANCH  26  28
HETATM   28  C   UNL     1     -10.751   7.627  69.161  1.00  0.00    -0.153 C  
HETATM   29  C   UNL     1     -11.318   6.423  71.364  1.00  0.00    -0.354 C  
HETATM   30  C   UNL     1     -10.928   6.538  69.935  1.00  0.00    -0.393 C  
HETATM   31  C   UNL     1     -10.464   7.403  67.691  1.00  0.00    -0.310 C  
ENDBRANCH  26  28
ENDBRANCH  25  26
ENDBRANCH   9  25
BRANCH  16  32
HETATM   32  C   UNL     1     -11.480  13.576  63.828  1.00  0.00    -0.158 C  
HETATM   33  H   UNL     1     -12.589  14.679  62.674  1.00  0.00     0.000 HD 
HETATM   34  O   UNL     1     -12.572  14.467  63.600  1.00  0.00    -0.817 OA 
ENDBRANCH  16  32
TORSDOF 4
ENDMDL
MODEL        7
REMARK 921   NORMALIZED FREE ENERGY PREDICTED BY IDOCK:   -6.24 KCAL/MOL
REMARK 922        TOTAL FREE ENERGY PREDICTED BY IDOCK:   -8.83 KCAL/MOL
REMARK 923 INTER-LIGAND FREE ENERGY PREDICTED BY IDOCK:   -8.18 KCAL/MOL
REMARK 924 INTRA-LIGAND FREE ENERGY PREDICTED BY IDOCK:   -0.65 KCAL/MOL
REMARK 927      BINDING AFFINITY PREDICTED BY RF-SCORE:    0.00 PKD
ROOT
HETATM    1  C   UNL     1     -11.312  13.003  66.058  1.00  0.00    -0.343 C  
HETATM    2  C   UNL     1     -10.029  11.931  66.443  1.00  0.00    -0.237 C  
HETATM    3  C   UNL     1      -8.931  12.143  67.863  1.00  0.00    -0.184 C  
HETATM    4  C   UNL     1      -7.573  11.482  67.547  1.00  0.00    -0.121 C  
HETATM    5  C   UNL     1      -8.762  13.767  68.541  1.00  0.00    -0.118 C  
HETATM    6  C   UNL     1      -7.367  14.292  68.562  1.00  0.00    -0.117 C  
HETATM    7  C   UNL     1      -7.238  15.355  67.762  1.00  0.00    -0.182 C  
HETATM    8  C   UNL     1      -5.945  15.889  67.258  1.00  0.00    -0.056 C  
HETATM    9  C   UNL     1      -8.599  15.722  67.201  1.00  0.00    -0.201 C  
HETATM   10  C   UNL     1     -11.382  15.425  67.983  1.00  0.00    -0.345 C  
HETATM   11  C   UNL     1      -9.562  14.207  67.428  1.00  0.00    -0.229 C  
HETATM   12  C   UNL     1     -10.886  13.232  68.654  1.00  0.00    -0.259 C  
HETATM   13  C   UNL     1     -11.966  14.330  66.704  1.00  0.00    -0.454 C  
HETATM   14  O   UNL     1      -8.879  13.708  66.199  1.00  0.00    -0.435 OA 
HETATM   15  H   UNL     1      -9.407  13.998  65.465  1.00  0.00     0.000 HD 
HETATM   16  C   UNL     1     -12.068  13.940  69.491  1.00  0.00    -0.393 C  
HETATM   17  O   UNL     1     -11.571  12.016  68.285  1.00  0.00    -0.289 OA 
HETATM   18  C   UNL     1     -10.925  15.704  64.927  1.00  0.00    -0.447 C  
HETATM   19  C   UNL     1      -9.883  15.079  69.069  1.00  0.00    -0.236 C  
HETATM   20  C   UNL     1     -12.523  14.083  64.059  1.00  0.00    -0.237 C  
HETATM   21  H   UNL     1     -12.185  11.565  68.853  1.00  0.00     0.000 HD 
HETATM   22  C   UNL     1     -11.557  14.362  65.212  1.00  0.00    -0.353 C  
HETATM   23  O   UNL     1      -9.724  15.642  70.163  1.00  0.00    -0.166 OA 
HETATM   24  C   UNL     1     -12.366  15.161  69.056  1.00  0.00    -0.050 C  
ENDROOT
BRANCH   9  25
HETATM   25  O   UNL     1      -9.043  17.010  67.670  1.00  0.00    -0.225 OA 
BRANCH  25  26
HETATM   26  C   UNL     1      -8.686  18.059  66.869  1.00  0.00    -0.251 C  
HETATM   27  O   UNL     1      -9.344  18.455  65.915  1.00  0.00    -0.494 OA 
BRANCH  26  28
HETATM   28  C   UNL     1      -7.450  18.777  67.302  1.00  0.00    -0.230 C  
HETATM   29  C   UNL     1      -6.092  18.893  65.118  1.00  0.00    -0.317 C  
HETATM   30  C   UNL     1      -6.373  19.107  66.561  1.00  0.00    -0.200 C  
HETATM   31  C   UNL     1      -7.479  19.246  68.741  1.00  0.00    -0.387 C  
ENDBRANCH  26  28
ENDBRANCH  25  26
ENDBRANCH   9  25
BRANCH  16  32
HETATM   32  C   UNL     1     -12.640  13.344  70.739  1.00  0.00    -0.294 C  
HETATM   33  H   UNL     1     -12.919  13.948  72.566  1.00  0.00     0.000 HD 
HETATM   34  O   UNL     1     -12.556  14.325  71.773  1.00  0.00    -0.332 OA 
ENDBRANCH  16  32
TORSDOF 4
ENDMDL
MODEL        8
REMARK 921   NORMALIZED FREE ENERGY PREDICTED BY IDOCK:   -6.24 KCAL/MOL
REMARK 922        TOTAL FREE ENERGY PREDICTED BY IDOCK:   -8.83 KCAL/MOL
REMARK 923 INTER-LIGAND FREE ENERGY PREDICTED BY IDOCK:   -8.01 KCAL/MOL
REMARK 924 INTRA-LIGAND FREE ENERGY PREDICTED BY IDOCK:   -0.82 KCAL/MOL
REMARK 927      BINDING AFFINITY PREDICTED BY RF-SCORE:    0.00 PKD
ROOT
HETATM    1  C   UNL     1     -11.674  13.535  68.534  1.00  0.00    -0.392 C  
HETATM    2  C   UNL     1     -12.263  13.629  66.925  1.00  0.00    -0.398 C  
HETATM    3  C   UNL     1     -11.297  14.260  65.534  1.00  0.00    -0.325 C  
HETATM    4  C   UNL     1     -12.262  14.826  64.473  1.00  0.00    -0.443 C  
HETATM    5  C   UNL     1      -9.952  15.350  65.890  1.00  0.00    -0.374 C  
HETATM    6  C   UNL     1     -10.040  16.684  65.232  1.00  0.00     0.108 C  
HETATM    7  C   UNL     1     -10.175  17.662  66.134  1.00  0.00    -0.345 C  
HETATM    8  C   UNL     1     -10.657  19.035  65.835  1.00  0.00    -0.466 C  
HETATM    9  C   UNL     1     -10.073  17.068  67.527  1.00  0.00    -0.294 C  
HETATM   10  C   UNL     1      -8.840  14.752  68.777  1.00  0.00    -0.179 C  
HETATM   11  C   UNL     1     -10.412  15.312  67.254  1.00  0.00    -0.275 C  
HETATM   12  C   UNL     1      -9.563  13.470  66.951  1.00  0.00    -0.258 C  
HETATM   13  C   UNL     1     -10.287  13.853  69.296  1.00  0.00     0.062 C  
HETATM   14  O   UNL     1     -11.853  15.699  67.220  1.00  0.00     0.044 OA 
HETATM   15  H   UNL     1     -12.157  15.673  68.119  1.00  0.00     0.000 HD 
HETATM   16  C   UNL     1      -8.198  12.954  67.635  1.00  0.00    -0.177 C  
HETATM   17  O   UNL     1     -10.306  12.233  66.976  1.00  0.00    -0.217 OA 
HETATM   18  C   UNL     1     -11.301  15.879  70.294  1.00  0.00    -0.381 C  
HETATM   19  C   UNL     1      -8.542  15.352  67.017  1.00  0.00    -0.234 C  
HETATM   20  C   UNL     1     -12.412  13.824  70.984  1.00  0.00    -0.458 C  
HETATM   21  H   UNL     1      -9.912  11.379  66.835  1.00  0.00     0.000 HD 
HETATM   22  C   UNL     1     -11.593  14.461  69.861  1.00  0.00    -0.341 C  
HETATM   23  O   UNL     1      -7.404  15.628  66.603  1.00  0.00    -0.132 OA 
HETATM   24  C   UNL     1      -7.839  13.665  68.700  1.00  0.00    -0.096 C  
ENDROOT
BRANCH   9  25
HETATM   25  O   UNL     1      -8.906  17.542  68.227  1.00  0.00    -0.258 OA 
BRANCH  25  26
HETATM   26  C   UNL     1      -8.924  18.876  68.522  1.00  0.00    -0.351 C  
HETATM   27  O   UNL     1      -9.902  19.476  68.950  1.00  0.00    -0.424 OA 
BRANCH  26  28
HETATM   28  C   UNL     1      -7.605  19.562  68.375  1.00  0.00    -0.365 C  
HETATM   29  C   UNL     1      -7.376  19.764  65.820  1.00  0.00    -0.331 C  
HETATM   30  C   UNL     1      -6.969  19.914  67.240  1.00  0.00    -0.257 C  
HETATM   31  C   UNL     1      -6.968  19.964  69.689  1.00  0.00    -0.226 C  
ENDBRANCH  26  28
ENDBRANCH  25  26
ENDBRANCH   9  25
BRANCH  16  32
HETATM   32  C   UNL     1      -7.338  11.895  67.020  1.00  0.00    -0.118 C  
HETATM   33  H   UNL     1      -7.312   9.952  67.020  1.00  0.00     0.000 HD 
HETATM   34  O   UNL     1      -7.857  10.624  67.411  1.00  0.00    -0.108 OA 
ENDBRANCH  16  32
TORSDOF 4
ENDMDL
MODEL        9
REMARK 921   NORMALIZED FREE ENERGY PREDICTED BY IDOCK:   -6.16 KCAL/MOL
REMARK 922        TOTAL FREE ENERGY PREDICTED BY IDOCK:   -8.73 KCAL/MOL
REMARK 923 INTER-LIGAND FREE ENERGY PREDICTED BY IDOCK:   -8.52 KCAL/MOL
REMARK 924 INTRA-LIGAND FREE ENERGY PREDICTED BY IDOCK:   -0.21 KCAL/MOL
REMARK 927      BINDING AFFINITY PREDICTED BY RF-SCORE:    0.00 PKD
ROOT
HETATM    1  C   UNL     1      -7.813  12.875  67.301  1.00  0.00    -0.134 C  
HETATM    2  C   UNL     1      -8.081  11.218  67.654  1.00  0.00    -0.119 C  
HETATM    3  C   UNL     1      -9.703  10.423  67.589  1.00  0.00    -0.191 C  
HETATM    4  C   UNL     1      -9.713   9.227  68.562  1.00  0.00    -0.162 C  
HETATM    5  C   UNL     1     -11.133  11.451  67.750  1.00  0.00    -0.323 C  
HETATM    6  C   UNL     1     -12.034  11.092  68.882  1.00  0.00    -0.332 C  
HETATM    7  C   UNL     1     -12.074  12.066  69.797  1.00  0.00    -0.317 C  
HETATM    8  C   UNL     1     -12.554  11.902  71.194  1.00  0.00    -0.390 C  
HETATM    9  C   UNL     1     -11.270  13.250  69.295  1.00  0.00    -0.208 C  
HETATM   10  C   UNL     1     -10.470  14.356  66.729  1.00  0.00    -0.273 C  
HETATM   11  C   UNL     1     -10.210  12.521  68.022  1.00  0.00    -0.225 C  
HETATM   12  C   UNL     1     -10.007  12.171  66.011  1.00  0.00    -0.236 C  
HETATM   13  C   UNL     1      -8.704  14.130  66.812  1.00  0.00    -0.148 C  
HETATM   14  O   UNL     1      -9.349  12.055  69.148  1.00  0.00    -0.365 OA 
HETATM   15  H   UNL     1      -8.740  12.762  69.327  1.00  0.00     0.000 HD 
HETATM   16  C   UNL     1     -10.478  13.177  64.843  1.00  0.00    -0.369 C  
HETATM   17  O   UNL     1      -8.795  11.676  65.404  1.00  0.00    -0.400 OA 
HETATM   18  C   UNL     1      -8.596  15.092  69.091  1.00  0.00    -0.188 C  
HETATM   19  C   UNL     1     -11.727  12.981  67.000  1.00  0.00    -0.383 C  
HETATM   20  C   UNL     1      -6.409  14.904  68.035  1.00  0.00    -0.163 C  
HETATM   21  H   UNL     1      -8.701  11.514  64.473  1.00  0.00     0.000 HD 
HETATM   22  C   UNL     1      -7.814  14.303  68.066  1.00  0.00    -0.143 C  
HETATM   23  O   UNL     1     -12.891  13.066  66.578  1.00  0.00     0.007 OA 
HETATM   24  C   UNL     1     -10.681  14.422  65.266  1.00  0.00    -0.387 C  
ENDROOT
BRANCH   9  25
HETATM   25  O   UNL     1     -12.102  14.402  69.057  1.00  0.00    -0.312 OA 
BRANCH  25  26
HETATM   26  C   UNL     1     -12.681  14.925  70.180  1.00  0.00    -0.219 C  
HETATM   27  O   UNL     1     -13.797  14.628  70.585  1.00  0.00    -0.048 OA 
BRANCH  26  28
HETATM   28  C   UNL     1     -11.798  15.843  70.961  1.00  0.00    -0.468 C  
HETATM   29  C   UNL     1     -12.311  15.158  73.389  1.00  0.00    -0.597 C  
HETATM   30  C   UNL     1     -11.664  15.934  72.300  1.00  0.00    -0.586 C  
HETATM   31  C   UNL     1     -10.898  16.711  70.107  1.00  0.00    -0.118 C  
ENDBRANCH  26  28
ENDBRANCH  25  26
ENDBRANCH   9  25
BRANCH  16  32
HETATM   32  C   UNL     1     -10.820  12.707  63.464  1.00  0.00    -0.329 C  
HETATM   33  H   UNL     1     -11.460  11.048  62.680  1.00  0.00     0.000 HD 
HETATM   34  O   UNL     1     -11.243  11.346  63.555  1.00  0.00    -0.391 OA 
ENDBRANCH  16  32
TORSDOF 4
ENDMDL
MODEL       10
REMARK 921   NORMALIZED FREE ENERGY PREDICTED BY IDOCK:   -5.96 KCAL/MOL
REMARK 922        TOTAL FREE ENERGY PREDICTED BY IDOCK:   -8.48 KCAL/MOL
REMARK 923 INTER-LIGAND FREE ENERGY PREDICTED BY IDOCK:   -7.40 KCAL/MOL
REMARK 924 INTRA-LIGAND FREE ENERGY PREDICTED BY IDOCK:   -1.08 KCAL/MOL
REMARK 927      BINDING AFFINITY PREDICTED BY RF-SCORE:    0.00 PKD
ROOT
HETATM    1  C   UNL     1      -8.179   9.372  70.481  1.00  0.00    -0.221 C  
HETATM    2  C   UNL     1      -8.564   9.605  68.825  1.00  0.00    -0.125 C  
HETATM    3  C   UNL     1     -10.042   8.933  68.031  1.00  0.00    -0.239 C  
HETATM    4  C   UNL     1      -9.754   8.733  66.529  1.00  0.00    -0.328 C  
HETATM    5  C   UNL     1     -10.812   7.526  68.775  1.00  0.00    -0.047 C  
HETATM    6  C   UNL     1     -10.924   6.335  67.887  1.00  0.00    -0.421 C  
HETATM    7  C   UNL     1     -10.188   5.317  68.346  1.00  0.00    -0.206 C  
HETATM    8  C   UNL     1      -9.773   4.137  67.544  1.00  0.00    -0.185 C  
HETATM    9  C   UNL     1      -9.586   5.705  69.684  1.00  0.00    -0.151 C  
HETATM   10  C   UNL     1     -10.223   7.511  71.870  1.00  0.00    -0.221 C  
HETATM   11  C   UNL     1      -9.688   7.512  69.675  1.00  0.00    -0.167 C  
HETATM   12  C   UNL     1     -10.800   9.129  70.273  1.00  0.00    -0.246 C  
HETATM   13  C   UNL     1      -8.863   8.655  71.755  1.00  0.00    -0.281 C  
HETATM   14  O   UNL     1      -8.467   7.477  68.818  1.00  0.00    -0.128 OA 
HETATM   15  H   UNL     1      -7.726   7.467  69.412  1.00  0.00     0.000 HD 
HETATM   16  C   UNL     1     -11.618   9.231  71.657  1.00  0.00    -0.463 C  
HETATM   17  O   UNL     1     -10.336  10.493  70.187  1.00  0.00    -0.438 OA 
HETATM   18  C   UNL     1      -7.210   6.818  71.607  1.00  0.00    -0.080 C  
HETATM   19  C   UNL     1     -11.356   7.066  70.434  1.00  0.00    -0.310 C  
HETATM   20  C   UNL     1      -6.186   8.981  72.064  1.00  0.00    -0.029 C  
HETATM   21  H   UNL     1     -10.851  11.242  70.464  1.00  0.00     0.000 HD 
HETATM   22  C   UNL     1      -7.395   8.305  71.414  1.00  0.00    -0.085 C  
HETATM   23  O   UNL     1     -12.485   6.584  70.616  1.00  0.00    -0.211 OA 
HETATM   24  C   UNL     1     -11.235   8.337  72.565  1.00  0.00    -0.446 C  
ENDROOT
BRANCH   9  25
HETATM   25  O   UNL     1     -10.101   4.896  70.759  1.00  0.00    -0.223 OA 
BRANCH  25  26
HETATM   26  C   UNL     1      -9.301   3.845  71.111  1.00  0.00    -0.146 C  
HETATM   27  O   UNL     1      -8.146   3.697  70.732  1.00  0.00    -0.056 OA 
BRANCH  26  28
HETATM   28  C   UNL     1      -9.913   2.904  72.097  1.00  0.00    -0.235 C  
HETATM   29  C   UNL     1     -10.580   4.483  74.017  1.00  0.00    -0.338 C  
HETATM   30  C   UNL     1     -10.431   3.186  73.309  1.00  0.00    -0.255 C  
HETATM   31  C   UNL     1     -10.016   1.475  71.606  1.00  0.00    -0.211 C  
ENDBRANCH  26  28
ENDBRANCH  25  26
ENDBRANCH   9  25
BRANCH  16  32
HETATM   32  C   UNL     1     -12.805  10.125  71.828  1.00  0.00    -0.452 C  
HETATM   33  H   UNL     1     -14.599   9.931  72.553  1.00  0.00     0.000 HD 
HETATM   34  O   UNL     1     -13.845   9.364  72.444  1.00  0.00    -0.451 OA 
ENDBRANCH  16  32
TORSDOF 4
ENDMDL
MODEL       11
REMARK 921   NORMALIZED FREE ENERGY PREDICTED BY IDOCK:   -5.95 KCAL/MOL
REMARK 922        TOTAL FREE ENERGY PREDICTED BY IDOCK:   -8.48 KCAL/MOL
REMARK 923 INTER-LIGAND FREE ENERGY PREDICTED BY IDOCK:   -7.26 KCAL/MOL
REMARK 924 INTRA-LIGAND FREE ENERGY PREDICTED BY IDOCK:   -1.22 KCAL/MOL
REMARK 927      BINDING AFFINITY PREDICTED BY RF-SCORE:    0.00 PKD
ROOT
HETATM    1  C   UNL     1      -9.419   9.089  67.598  1.00  0.00    -0.166 C  
HETATM    2  C   UNL     1      -9.743   9.246  65.921  1.00  0.00    -0.355 C  
HETATM    3  C   UNL     1      -9.433  10.752  64.971  1.00  0.00    -0.286 C  
HETATM    4  C   UNL     1     -10.405  10.797  63.774  1.00  0.00    -0.294 C  
HETATM    5  C   UNL     1      -9.357  12.283  65.852  1.00  0.00    -0.098 C  
HETATM    6  C   UNL     1     -10.337  13.310  65.400  1.00  0.00    -0.316 C  
HETATM    7  C   UNL     1     -11.224  13.589  66.360  1.00  0.00    -0.322 C  
HETATM    8  C   UNL     1     -12.531  14.264  66.143  1.00  0.00    -0.362 C  
HETATM    9  C   UNL     1     -10.843  12.836  67.621  1.00  0.00    -0.228 C  
HETATM   10  C   UNL     1      -8.423  11.755  68.814  1.00  0.00     0.005 C  
HETATM   11  C   UNL     1      -9.759  11.523  67.007  1.00  0.00    -0.184 C  
HETATM   12  C   UNL     1      -7.809  10.974  66.689  1.00  0.00    -0.153 C  
HETATM   13  C   UNL     1      -8.784  10.011  68.762  1.00  0.00    -0.136 C  
HETATM   14  O   UNL     1     -11.011  10.808  66.622  1.00  0.00    -0.209 OA 
HETATM   15  H   UNL     1     -11.276  10.307  67.384  1.00  0.00     0.000 HD 
HETATM   16  C   UNL     1      -6.571  11.351  67.649  1.00  0.00    -0.074 C  
HETATM   17  O   UNL     1      -7.405   9.639  66.319  1.00  0.00    -0.092 OA 
HETATM   18  C   UNL     1     -11.041  10.357  69.718  1.00  0.00    -0.352 C  
HETATM   19  C   UNL     1      -8.507  12.899  67.320  1.00  0.00    -0.197 C  
HETATM   20  C   UNL     1     -10.344   8.023  69.752  1.00  0.00    -0.219 C  
HETATM   21  H   UNL     1      -6.501   9.384  66.171  1.00  0.00     0.000 HD 
HETATM   22  C   UNL     1     -10.160   9.351  69.015  1.00  0.00    -0.202 C  
HETATM   23  O   UNL     1      -7.907  13.984  67.293  1.00  0.00    -0.179 OA 
HETATM   24  C   UNL     1      -6.944  11.740  68.866  1.00  0.00    -0.109 C  
ENDROOT
BRANCH   9  25
HETATM   25  O   UNL     1     -10.465  13.730  68.686  1.00  0.00    -0.239 OA 
BRANCH  25  26
HETATM   26  C   UNL     1     -11.505  14.156  69.464  1.00  0.00    -0.281 C  
HETATM   27  O   UNL     1     -12.421  13.440  69.847  1.00  0.00    -0.222 OA 
BRANCH  26  28
HETATM   28  C   UNL     1     -11.402  15.578  69.913  1.00  0.00    -0.323 C  
HETATM   29  C   UNL     1     -11.576  15.357  72.471  1.00  0.00    -0.525 C  
HETATM   30  C   UNL     1     -11.444  16.061  71.170  1.00  0.00    -0.470 C  
HETATM   31  C   UNL     1     -11.139  16.562  68.792  1.00  0.00    -0.309 C  
ENDBRANCH  26  28
ENDBRANCH  25  26
ENDBRANCH   9  25
BRANCH  16  32
HETATM   32  C   UNL     1      -5.160  11.425  67.155  1.00  0.00    -0.070 C  
HETATM   33  H   UNL     1      -4.301  11.533  65.415  1.00  0.00     0.000 HD 
HETATM   34  O   UNL     1      -5.196  11.486  65.729  1.00  0.00    -0.292 OA 
ENDBRANCH  16  32
TORSDOF 4
ENDMDL
MODEL       12
REMARK 921   NORMALIZED FREE ENERGY PREDICTED BY IDOCK:   -5.93 KCAL/MOL
REMARK 922        TOTAL FREE ENERGY PREDICTED BY IDOCK:   -8.45 KCAL/MOL
REMARK 923 INTER-LIGAND FREE ENERGY PREDICTED BY IDOCK:   -7.36 KCAL/MOL
REMARK 924 INTRA-LIGAND FREE ENERGY PREDICTED BY IDOCK:   -1.09 KCAL/MOL
REMARK 927      BINDING AFFINITY PREDICTED BY RF-SCORE:    0.00 PKD
ROOT
HETATM    1  C   UNL     1      -9.428  15.632  67.371  1.00  0.00    -0.217 C  
HETATM    2  C   UNL     1     -10.506  15.976  66.081  1.00  0.00    -0.334 C  
HETATM    3  C   UNL     1     -11.872  14.897  65.595  1.00  0.00    -0.131 C  
HETATM    4  C   UNL     1     -12.172  15.116  64.098  1.00  0.00    -0.182 C  
HETATM    5  C   UNL     1     -11.769  13.187  66.032  1.00  0.00    -0.424 C  
HETATM    6  C   UNL     1     -11.838  12.245  64.879  1.00  0.00    -0.417 C  
HETATM    7  C   UNL     1     -10.692  11.571  64.735  1.00  0.00    -0.366 C  
HETATM    8  C   UNL     1     -10.280  10.847  63.504  1.00  0.00    -0.379 C  
HETATM    9  C   UNL     1      -9.761  11.927  65.878  1.00  0.00    -0.238 C  
HETATM   10  C   UNL     1     -10.003  12.860  68.620  1.00  0.00    -0.099 C  
HETATM   11  C   UNL     1     -10.439  13.488  66.494  1.00  0.00    -0.284 C  
HETATM   12  C   UNL     1     -11.671  14.341  67.894  1.00  0.00    -0.359 C  
HETATM   13  C   UNL     1      -9.261  14.474  68.483  1.00  0.00    -0.195 C  
HETATM   14  O   UNL     1      -9.733  14.131  65.347  1.00  0.00    -0.538 OA 
HETATM   15  H   UNL     1      -8.856  14.330  65.652  1.00  0.00     0.000 HD 
HETATM   16  C   UNL     1     -11.840  13.832  69.414  1.00  0.00    -0.392 C  
HETATM   17  O   UNL     1     -11.754  15.764  68.125  1.00  0.00    -0.316 OA 
HETATM   18  C   UNL     1      -7.312  13.574  67.249  1.00  0.00    -0.030 C  
HETATM   19  C   UNL     1     -11.410  12.246  67.529  1.00  0.00    -0.325 C  
HETATM   20  C   UNL     1      -6.956  15.843  68.059  1.00  0.00    -0.141 C  
HETATM   21  H   UNL     1     -12.325  16.159  68.774  1.00  0.00     0.000 HD 
HETATM   22  C   UNL     1      -8.032  14.849  67.620  1.00  0.00    -0.184 C  
HETATM   23  O   UNL     1     -12.143  11.306  67.874  1.00  0.00    -0.634 OA 
HETATM   24  C   UNL     1     -10.853  13.037  69.818  1.00  0.00     0.409 C  
ENDROOT
BRANCH   9  25
HETATM   25  O   UNL     1      -9.500  10.795  66.730  1.00  0.00    -0.169 OA 
BRANCH  25  26
HETATM   26  C   UNL     1      -8.456  10.010  66.327  1.00  0.00    -0.130 C  
HETATM   27  O   UNL     1      -7.286  10.371  66.309  1.00  0.00    -0.114 OA 
BRANCH  26  28
HETATM   28  C   UNL     1      -8.833   8.604  65.988  1.00  0.00    -0.213 C  
HETATM   29  C   UNL     1     -10.638   8.084  67.748  1.00  0.00    -0.239 C  
HETATM   30  C   UNL     1      -9.737   7.813  66.598  1.00  0.00    -0.292 C  
HETATM   31  C   UNL     1      -8.149   8.062  64.751  1.00  0.00    -0.143 C  
ENDBRANCH  26  28
ENDBRANCH  25  26
ENDBRANCH   9  25
BRANCH  16  32
HETATM   32  C   UNL     1     -13.075  14.090  70.218  1.00  0.00     0.168 C  
HETATM   33  H   UNL     1     -13.786  15.587  71.234  1.00  0.00     0.000 HD 
HETATM   34  O   UNL     1     -13.001  15.423  70.724  1.00  0.00    -0.448 OA 
ENDBRANCH  16  32
TORSDOF 4
ENDMDL
MODEL       13
REMARK 921   NORMALIZED FREE ENERGY PREDICTED BY IDOCK:   -5.87 KCAL/MOL
REMARK 922        TOTAL FREE ENERGY PREDICTED BY IDOCK:   -8.38 KCAL/MOL
REMARK 923 INTER-LIGAND FREE ENERGY PREDICTED BY IDOCK:   -7.23 KCAL/MOL
REMARK 924 INTRA-LIGAND FREE ENERGY PREDICTED BY IDOCK:   -1.15 KCAL/MOL
REMARK 927      BINDING AFFINITY PREDICTED BY RF-SCORE:    0.00 PKD
ROOT
HETATM    1  C   UNL     1     -11.788  13.340  69.468  1.00  0.00    -0.388 C  
HETATM    2  C   UNL     1     -10.973  14.841  69.634  1.00  0.00    -0.285 C  
HETATM    3  C   UNL     1      -9.905  15.554  68.362  1.00  0.00    -0.210 C  
HETATM    4  C   UNL     1      -8.861  16.464  69.040  1.00  0.00    -0.240 C  
HETATM    5  C   UNL     1      -9.191  14.457  67.174  1.00  0.00    -0.230 C  
HETATM    6  C   UNL     1      -7.702  14.478  67.122  1.00  0.00    -0.093 C  
HETATM    7  C   UNL     1      -7.187  13.304  67.501  1.00  0.00    -0.157 C  
HETATM    8  C   UNL     1      -5.778  13.089  67.921  1.00  0.00    -0.126 C  
HETATM    9  C   UNL     1      -8.317  12.321  67.740  1.00  0.00    -0.162 C  
HETATM   10  C   UNL     1     -11.045  11.935  66.812  1.00  0.00    -0.359 C  
HETATM   11  C   UNL     1      -9.758  13.394  67.962  1.00  0.00    -0.222 C  
HETATM   12  C   UNL     1     -11.369  14.249  67.024  1.00  0.00    -0.341 C  
HETATM   13  C   UNL     1     -11.946  12.211  68.324  1.00  0.00    -0.248 C  
HETATM   14  O   UNL     1      -9.265  13.598  69.356  1.00  0.00    -0.057 OA 
HETATM   15  H   UNL     1      -9.640  12.897  69.876  1.00  0.00     0.000 HD 
HETATM   16  C   UNL     1     -12.245  13.551  65.865  1.00  0.00    -0.507 C  
HETATM   17  O   UNL     1     -12.430  14.934  67.723  1.00  0.00    -0.470 OA 
HETATM   18  C   UNL     1     -10.446  10.711  69.600  1.00  0.00    -0.219 C  
HETATM   19  C   UNL     1      -9.789  13.140  66.093  1.00  0.00    -0.280 C  
HETATM   20  C   UNL     1     -12.492  11.255  70.805  1.00  0.00    -0.471 C  
HETATM   21  H   UNL     1     -13.176  15.330  67.288  1.00  0.00     0.000 HD 
HETATM   22  C   UNL     1     -11.517  11.767  69.743  1.00  0.00    -0.320 C  
HETATM   23  O   UNL     1      -9.468  13.113  64.895  1.00  0.00     0.202 OA 
HETATM   24  C   UNL     1     -12.083  12.232  65.801  1.00  0.00    -0.287 C  
ENDROOT
BRANCH   9  25
HETATM   25  O   UNL     1      -8.289  11.231  66.798  1.00  0.00    -0.145 OA 
BRANCH  25  26
HETATM   26  C   UNL     1      -8.014  10.011  67.350  1.00  0.00    -0.106 C  
HETATM   27  O   UNL     1      -7.249   9.835  68.290  1.00  0.00    -0.077 OA 
BRANCH  26  28
HETATM   28  C   UNL     1      -8.805   8.880  66.779  1.00  0.00    -0.142 C  
HETATM   29  C   UNL     1      -9.122   7.348  68.823  1.00  0.00    -0.131 C  
HETATM   30  C   UNL     1      -9.249   7.772  67.405  1.00  0.00    -0.156 C  
HETATM   31  C   UNL     1      -9.204   9.074  65.331  1.00  0.00    -0.241 C  
ENDBRANCH  26  28
ENDBRANCH  25  26
ENDBRANCH   9  25
BRANCH  16  32
HETATM   32  C   UNL     1     -13.019  14.338  64.855  1.00  0.00     0.065 C  
HETATM   33  H   UNL     1     -12.984  14.534  62.922  1.00  0.00     0.000 HD 
HETATM   34  O   UNL     1     -12.493  14.035  63.563  1.00  0.00    -0.826 OA 
ENDBRANCH  16  32
TORSDOF 4
ENDMDL
MODEL       14
REMARK 921   NORMALIZED FREE ENERGY PREDICTED BY IDOCK:   -5.78 KCAL/MOL
REMARK 922        TOTAL FREE ENERGY PREDICTED BY IDOCK:   -8.27 KCAL/MOL
REMARK 923 INTER-LIGAND FREE ENERGY PREDICTED BY IDOCK:   -7.13 KCAL/MOL
REMARK 924 INTRA-LIGAND FREE ENERGY PREDICTED BY IDOCK:   -1.13 KCAL/MOL
REMARK 927      BINDING AFFINITY PREDICTED BY RF-SCORE:    0.00 PKD
ROOT
HETATM    1  C   UNL     1     -10.042   5.268  73.509  1.00  0.00    -0.205 C  
HETATM    2  C   UNL     1      -8.984   6.338  74.334  1.00  0.00    -0.159 C  
HETATM    3  C   UNL     1      -8.538   7.981  73.728  1.00  0.00    -0.328 C  
HETATM    4  C   UNL     1      -7.149   8.357  74.282  1.00  0.00    -0.203 C  
HETATM    5  C   UNL     1      -8.693   8.291  71.994  1.00  0.00    -0.243 C  
HETATM    6  C   UNL     1      -7.432   8.718  71.323  1.00  0.00    -0.127 C  
HETATM    7  C   UNL     1      -7.028   7.810  70.429  1.00  0.00    -0.046 C  
HETATM    8  C   UNL     1      -5.656   7.726  69.863  1.00  0.00    -0.023 C  
HETATM    9  C   UNL     1      -8.068   6.711  70.333  1.00  0.00    -0.117 C  
HETATM   10  C   UNL     1     -10.927   6.430  70.781  1.00  0.00    -0.346 C  
HETATM   11  C   UNL     1      -9.003   6.890  71.873  1.00  0.00    -0.137 C  
HETATM   12  C   UNL     1     -10.676   7.710  72.730  1.00  0.00    -0.345 C  
HETATM   13  C   UNL     1     -10.931   5.305  72.162  1.00  0.00    -0.226 C  
HETATM   14  O   UNL     1      -7.879   6.155  72.523  1.00  0.00    -0.102 OA 
HETATM   15  H   UNL     1      -8.083   5.231  72.443  1.00  0.00     0.000 HD 
HETATM   16  C   UNL     1     -12.109   7.858  72.009  1.00  0.00    -0.363 C  
HETATM   17  O   UNL     1     -11.128   7.392  74.063  1.00  0.00    -0.426 OA 
HETATM   18  C   UNL     1      -9.313   3.793  71.055  1.00  0.00    -0.218 C  
HETATM   19  C   UNL     1      -9.965   8.048  70.737  1.00  0.00    -0.188 C  
HETATM   20  C   UNL     1     -10.398   2.773  72.983  1.00  0.00    -0.239 C  
HETATM   21  H   UNL     1     -11.903   7.772  74.460  1.00  0.00     0.000 HD 
HETATM   22  C   UNL     1      -9.971   4.111  72.378  1.00  0.00    -0.229 C  
HETATM   23  O   UNL     1     -10.264   8.966  69.957  1.00  0.00    -0.187 OA 
HETATM   24  C   UNL     1     -12.245   7.082  70.938  1.00  0.00    -0.388 C  
ENDROOT
BRANCH   9  25
HETATM   25  O   UNL     1      -8.695   6.677  69.036  1.00  0.00    -0.129 OA 
BRANCH  25  26
HETATM   26  C   UNL     1      -8.364   5.590  68.275  1.00  0.00    -0.098 C  
HETATM   27  O   UNL     1      -7.239   5.110  68.208  1.00  0.00    -0.064 OA 
BRANCH  26  28
HETATM   28  C   UNL     1      -9.519   4.944  67.581  1.00  0.00    -0.166 C  
HETATM   29  C   UNL     1     -11.007   6.963  67.005  1.00  0.00    -0.404 C  
HETATM   30  C   UNL     1     -10.618   5.531  67.067  1.00  0.00    -0.332 C  
HETATM   31  C   UNL     1      -9.363   3.452  67.380  1.00  0.00    -0.243 C  
ENDBRANCH  26  28
ENDBRANCH  25  26
ENDBRANCH   9  25
BRANCH  16  32
HETATM   32  C   UNL     1     -13.109   8.897  72.409  1.00  0.00    -0.418 C  
HETATM   33  H   UNL     1     -15.008   9.187  72.110  1.00  0.00     0.000 HD 
HETATM   34  O   UNL     1     -14.373   8.528  71.856  1.00  0.00    -0.433 OA 
ENDBRANCH  16  32
TORSDOF 4
ENDMDL
MODEL       15
REMARK 921   NORMALIZED FREE ENERGY PREDICTED BY IDOCK:   -5.76 KCAL/MOL
REMARK 922        TOTAL FREE ENERGY PREDICTED BY IDOCK:   -8.24 KCAL/MOL
REMARK 923 INTER-LIGAND FREE ENERGY PREDICTED BY IDOCK:   -6.93 KCAL/MOL
REMARK 924 INTRA-LIGAND FREE ENERGY PREDICTED BY IDOCK:   -1.30 KCAL/MOL
REMARK 927      BINDING AFFINITY PREDICTED BY RF-SCORE:    0.00 PKD
ROOT
HETATM    1  C   UNL     1      -9.528   7.741  66.377  1.00  0.00    -0.245 C  
HETATM    2  C   UNL     1     -10.115   9.312  66.013  1.00  0.00    -0.262 C  
HETATM    3  C   UNL     1      -9.970  10.726  67.129  1.00  0.00    -0.230 C  
HETATM    4  C   UNL     1     -11.120  11.712  66.838  1.00  0.00    -0.365 C  
HETATM    5  C   UNL     1      -9.768  10.397  68.855  1.00  0.00    -0.203 C  
HETATM    6  C   UNL     1     -10.815  10.996  69.730  1.00  0.00    -0.205 C  
HETATM    7  C   UNL     1     -11.541  10.050  70.334  1.00  0.00    -0.379 C  
HETATM    8  C   UNL     1     -12.870  10.268  70.962  1.00  0.00    -0.490 C  
HETATM    9  C   UNL     1     -10.959   8.690  69.999  1.00  0.00    -0.203 C  
HETATM   10  C   UNL     1      -8.373   7.600  69.244  1.00  0.00    -0.134 C  
HETATM   11  C   UNL     1      -9.976   9.014  68.514  1.00  0.00    -0.176 C  
HETATM   12  C   UNL     1      -8.097   9.435  67.810  1.00  0.00    -0.107 C  
HETATM   13  C   UNL     1      -8.724   7.041  67.589  1.00  0.00    -0.121 C  
HETATM   14  O   UNL     1     -11.268   8.957  67.769  1.00  0.00    -0.442 OA 
HETATM   15  H   UNL     1     -11.405   8.045  67.544  1.00  0.00     0.000 HD 
HETATM   16  C   UNL     1      -6.725   8.845  68.416  1.00  0.00    -0.060 C  
HETATM   17  O   UNL     1      -7.746   9.420  66.410  1.00  0.00    -0.096 OA 
HETATM   18  C   UNL     1     -10.804   5.911  68.314  1.00  0.00    -0.325 C  
HETATM   19  C   UNL     1      -8.701   9.347  69.864  1.00  0.00    -0.197 C  
HETATM   20  C   UNL     1     -10.092   5.246  66.082  1.00  0.00    -0.204 C  
HETATM   21  H   UNL     1      -6.875   9.616  66.084  1.00  0.00     0.000 HD 
HETATM   22  C   UNL     1     -10.038   6.385  67.101  1.00  0.00    -0.217 C  
HETATM   23  O   UNL     1      -8.121   9.809  70.859  1.00  0.00    -0.252 OA 
HETATM   24  C   UNL     1      -6.904   7.772  69.183  1.00  0.00    -0.049 C  
ENDROOT
BRANCH   9  25
HETATM   25  O   UNL     1     -10.424   8.033  71.165  1.00  0.00    -0.197 OA 
BRANCH  25  26
HETATM   26  C   UNL     1     -11.199   7.015  71.647  1.00  0.00    -0.245 C  
HETATM   27  O   UNL     1     -12.356   6.805  71.306  1.00  0.00    -0.363 OA 
BRANCH  26  28
HETATM   28  C   UNL     1     -10.490   6.084  72.576  1.00  0.00    -0.233 C  
HETATM   29  C   UNL     1      -9.889   4.119  71.027  1.00  0.00    -0.247 C  
HETATM   30  C   UNL     1      -9.960   4.875  72.303  1.00  0.00    -0.232 C  
HETATM   31  C   UNL     1     -10.294   6.635  73.973  1.00  0.00    -0.377 C  
ENDBRANCH  26  28
ENDBRANCH  25  26
ENDBRANCH   9  25
BRANCH  16  32
HETATM   32  C   UNL     1      -5.411   9.546  68.270  1.00  0.00    -0.037 C  
HETATM   33  H   UNL     1      -4.841  11.365  67.894  1.00  0.00     0.000 HD 
HETATM   34  O   UNL     1      -5.675  10.920  67.986  1.00  0.00    -0.043 OA 
ENDBRANCH  16  32
TORSDOF 4
ENDMDL
MODEL       16
REMARK 921   NORMALIZED FREE ENERGY PREDICTED BY IDOCK:   -5.73 KCAL/MOL
REMARK 922        TOTAL FREE ENERGY PREDICTED BY IDOCK:   -8.20 KCAL/MOL
REMARK 923 INTER-LIGAND FREE ENERGY PREDICTED BY IDOCK:   -7.03 KCAL/MOL
REMARK 924 INTRA-LIGAND FREE ENERGY PREDICTED BY IDOCK:   -1.17 KCAL/MOL
REMARK 927      BINDING AFFINITY PREDICTED BY RF-SCORE:    0.00 PKD
ROOT
HETATM    1  C   UNL     1     -11.175   7.369  70.779  1.00  0.00    -0.293 C  
HETATM    2  C   UNL     1     -11.204   6.328  69.416  1.00  0.00    -0.489 C  
HETATM    3  C   UNL     1      -9.955   6.343  68.109  1.00  0.00    -0.143 C  
HETATM    4  C   UNL     1     -10.596   5.837  66.800  1.00  0.00    -0.373 C  
HETATM    5  C   UNL     1      -9.013   7.822  67.885  1.00  0.00    -0.125 C  
HETATM    6  C   UNL     1      -9.106   8.420  66.523  1.00  0.00    -0.217 C  
HETATM    7  C   UNL     1      -9.698   9.618  66.560  1.00  0.00    -0.272 C  
HETATM    8  C   UNL     1     -10.282  10.315  65.384  1.00  0.00    -0.312 C  
HETATM    9  C   UNL     1      -9.962   9.996  68.005  1.00  0.00    -0.150 C  
HETATM   10  C   UNL     1      -8.835   9.387  70.614  1.00  0.00    -0.275 C  
HETATM   11  C   UNL     1      -9.885   8.408  68.869  1.00  0.00    -0.180 C  
HETATM   12  C   UNL     1      -8.680   7.144  69.945  1.00  0.00    -0.142 C  
HETATM   13  C   UNL     1     -10.195   8.512  71.361  1.00  0.00    -0.303 C  
HETATM   14  O   UNL     1     -11.277   8.187  68.379  1.00  0.00    -0.294 OA 
HETATM   15  H   UNL     1     -11.852   8.574  69.028  1.00  0.00     0.000 HD 
HETATM   16  C   UNL     1      -7.552   7.610  70.997  1.00  0.00    -0.083 C  
HETATM   17  O   UNL     1      -9.165   5.976  70.641  1.00  0.00    -0.148 OA 
HETATM   18  C   UNL     1     -11.814  10.252  70.668  1.00  0.00    -0.439 C  
HETATM   19  C   UNL     1      -8.078   8.943  68.948  1.00  0.00    -0.112 C  
HETATM   20  C   UNL     1     -12.720   8.721  72.332  1.00  0.00    -0.433 C  
HETATM   21  H   UNL     1      -8.606   5.391  71.139  1.00  0.00     0.000 HD 
HETATM   22  C   UNL     1     -11.698   8.843  71.202  1.00  0.00    -0.356 C  
HETATM   23  O   UNL     1      -6.934   9.304  68.631  1.00  0.00    -0.061 OA 
HETATM   24  C   UNL     1      -7.694   8.870  71.401  1.00  0.00    -0.126 C  
ENDROOT
BRANCH   9  25
HETATM   25  O   UNL     1      -9.193  11.146  68.408  1.00  0.00    -0.162 OA 
BRANCH  25  26
HETATM   26  C   UNL     1      -9.843  12.341  68.266  1.00  0.00    -0.217 C  
HETATM   27  O   UNL     1     -10.804  12.690  68.939  1.00  0.00    -0.237 OA 
BRANCH  26  28
HETATM   28  C   UNL     1      -9.226  13.266  67.268  1.00  0.00    -0.222 C  
HETATM   29  C   UNL     1     -11.235  13.887  65.784  1.00  0.00    -0.303 C  
HETATM   30  C   UNL     1      -9.819  13.893  66.233  1.00  0.00    -0.318 C  
HETATM   31  C   UNL     1      -7.767  13.574  67.530  1.00  0.00    -0.182 C  
ENDBRANCH  26  28
ENDBRANCH  25  26
ENDBRANCH   9  25
BRANCH  16  32
HETATM   32  C   UNL     1      -6.368   6.762  71.339  1.00  0.00    -0.042 C  
HETATM   33  H   UNL     1      -5.374   5.343  70.457  1.00  0.00     0.000 HD 
HETATM   34  O   UNL     1      -6.125   5.881  70.241  1.00  0.00    -0.024 OA 
ENDBRANCH  16  32
TORSDOF 4
ENDMDL
MODEL       17
REMARK 921   NORMALIZED FREE ENERGY PREDICTED BY IDOCK:   -5.72 KCAL/MOL
REMARK 922        TOTAL FREE ENERGY PREDICTED BY IDOCK:   -8.19 KCAL/MOL
REMARK 923 INTER-LIGAND FREE ENERGY PREDICTED BY IDOCK:   -7.16 KCAL/MOL
REMARK 924 INTRA-LIGAND FREE ENERGY PREDICTED BY IDOCK:   -1.03 KCAL/MOL
REMARK 927      BINDING AFFINITY PREDICTED BY RF-SCORE:    0.00 PKD
ROOT
HETATM    1  C   UNL     1      -9.268   5.358  68.666  1.00  0.00    -0.139 C  
HETATM    2  C   UNL     1      -7.679   5.737  69.191  1.00  0.00    -0.090 C  
HETATM    3  C   UNL     1      -7.304   6.980  70.449  1.00  0.00    -0.083 C  
HETATM    4  C   UNL     1      -5.886   7.533  70.197  1.00  0.00    -0.024 C  
HETATM    5  C   UNL     1      -8.497   8.253  70.733  1.00  0.00    -0.139 C  
HETATM    6  C   UNL     1      -7.986   9.640  70.539  1.00  0.00    -0.148 C  
HETATM    7  C   UNL     1      -8.597  10.243  69.515  1.00  0.00    -0.153 C  
HETATM    8  C   UNL     1      -8.093  11.455  68.817  1.00  0.00    -0.112 C  
HETATM    9  C   UNL     1      -9.686   9.332  68.981  1.00  0.00    -0.162 C  
HETATM   10  C   UNL     1     -11.372   7.194  69.999  1.00  0.00    -0.242 C  
HETATM   11  C   UNL     1      -9.205   7.703  69.607  1.00  0.00    -0.146 C  
HETATM   12  C   UNL     1      -9.492   6.335  71.108  1.00  0.00    -0.170 C  
HETATM   13  C   UNL     1     -10.769   5.818  69.040  1.00  0.00    -0.354 C  
HETATM   14  O   UNL     1      -8.232   7.667  68.477  1.00  0.00    -0.122 OA 
HETATM   15  H   UNL     1      -8.699   7.304  67.734  1.00  0.00     0.000 HD 
HETATM   16  C   UNL     1     -10.896   6.047  71.845  1.00  0.00    -0.304 C  
HETATM   17  O   UNL     1      -8.980   4.986  71.069  1.00  0.00    -0.127 OA 
HETATM   18  C   UNL     1     -10.896   7.112  66.933  1.00  0.00    -0.307 C  
HETATM   19  C   UNL     1     -10.276   8.327  71.028  1.00  0.00    -0.191 C  
HETATM   20  C   UNL     1     -10.611   4.722  66.563  1.00  0.00    -0.158 C  
HETATM   21  H   UNL     1      -9.113   4.353  71.765  1.00  0.00     0.000 HD 
HETATM   22  C   UNL     1     -10.338   5.853  67.555  1.00  0.00    -0.269 C  
HETATM   23  O   UNL     1     -10.733   9.014  71.956  1.00  0.00    -0.349 OA 
HETATM   24  C   UNL     1     -11.950   6.497  71.169  1.00  0.00    -0.365 C  
ENDROOT
BRANCH   9  25
HETATM   25  O   UNL     1     -10.999   9.891  69.178  1.00  0.00    -0.224 OA 
BRANCH  25  26
HETATM   26  C   UNL     1     -11.328  10.887  68.302  1.00  0.00    -0.308 C  
HETATM   27  O   UNL     1     -11.355  10.757  67.085  1.00  0.00    -0.372 OA 
BRANCH  26  28
HETATM   28  C   UNL     1     -11.761  12.163  68.949  1.00  0.00    -0.381 C  
HETATM   29  C   UNL     1     -11.727  13.814  66.974  1.00  0.00    -0.420 C  
HETATM   30  C   UNL     1     -11.911  13.377  68.382  1.00  0.00    -0.401 C  
HETATM   31  C   UNL     1     -12.144  12.019  70.406  1.00  0.00    -0.407 C  
ENDBRANCH  26  28
ENDBRANCH  25  26
ENDBRANCH   9  25
BRANCH  16  32
HETATM   32  C   UNL     1     -10.980   5.489  73.230  1.00  0.00    -0.292 C  
HETATM   33  H   UNL     1     -10.991   3.711  74.015  1.00  0.00     0.000 HD 
HETATM   34  O   UNL     1     -10.938   4.065  73.135  1.00  0.00    -0.194 OA 
ENDBRANCH  16  32
TORSDOF 4
ENDMDL
MODEL       18
REMARK 921   NORMALIZED FREE ENERGY PREDICTED BY IDOCK:   -5.72 KCAL/MOL
REMARK 922        TOTAL FREE ENERGY PREDICTED BY IDOCK:   -8.19 KCAL/MOL
REMARK 923 INTER-LIGAND FREE ENERGY PREDICTED BY IDOCK:   -7.42 KCAL/MOL
REMARK 924 INTRA-LIGAND FREE ENERGY PREDICTED BY IDOCK:   -0.77 KCAL/MOL
REMARK 927      BINDING AFFINITY PREDICTED BY RF-SCORE:    0.00 PKD
ROOT
HETATM    1  C   UNL     1     -11.512  12.599  68.087  1.00  0.00    -0.359 C  
HETATM    2  C   UNL     1     -12.061  12.775  66.471  1.00  0.00    -0.338 C  
HETATM    3  C   UNL     1     -11.114  13.599  65.170  1.00  0.00    -0.324 C  
HETATM    4  C   UNL     1     -12.094  14.167  64.123  1.00  0.00    -0.437 C  
HETATM    5  C   UNL     1      -9.880  14.766  65.660  1.00  0.00    -0.361 C  
HETATM    6  C   UNL     1     -10.066  16.138  65.108  1.00  0.00     0.038 C  
HETATM    7  C   UNL     1     -10.312  17.022  66.080  1.00  0.00    -0.324 C  
HETATM    8  C   UNL     1     -10.903  18.370  65.874  1.00  0.00    -0.047 C  
HETATM    9  C   UNL     1     -10.198  16.327  67.423  1.00  0.00    -0.275 C  
HETATM   10  C   UNL     1      -8.803  14.028  68.527  1.00  0.00    -0.160 C  
HETATM   11  C   UNL     1     -10.374  14.576  66.999  1.00  0.00    -0.263 C  
HETATM   12  C   UNL     1      -9.359  12.844  66.579  1.00  0.00    -0.222 C  
HETATM   13  C   UNL     1     -10.180  12.969  68.921  1.00  0.00    -0.015 C  
HETATM   14  O   UNL     1     -11.842  14.841  66.945  1.00  0.00    -0.354 OA 
HETATM   15  H   UNL     1     -12.168  14.715  67.828  1.00  0.00     0.000 HD 
HETATM   16  C   UNL     1      -7.974  12.391  67.269  1.00  0.00    -0.178 C  
HETATM   17  O   UNL     1      -9.991  11.551  66.479  1.00  0.00    -0.202 OA 
HETATM   18  C   UNL     1     -11.396  14.812  70.041  1.00  0.00    -0.306 C  
HETATM   19  C   UNL     1      -8.508  14.795  66.833  1.00  0.00    -0.198 C  
HETATM   20  C   UNL     1     -12.342  12.620  70.525  1.00  0.00    -0.350 C  
HETATM   21  H   UNL     1      -9.520  10.749  66.285  1.00  0.00     0.000 HD 
HETATM   22  C   UNL     1     -11.550  13.415  69.486  1.00  0.00    -0.352 C  
HETATM   23  O   UNL     1      -7.388  15.199  66.483  1.00  0.00     0.215 OA 
HETATM   24  C   UNL     1      -7.709  13.040  68.400  1.00  0.00    -0.137 C  
ENDROOT
BRANCH   9  25
HETATM   25  O   UNL     1      -9.097  16.837  68.200  1.00  0.00    -0.216 OA 
BRANCH  25  26
HETATM   26  C   UNL     1      -9.227  18.146  68.575  1.00  0.00    -0.314 C  
HETATM   27  O   UNL     1     -10.206  18.606  69.150  1.00  0.00    -0.315 OA 
BRANCH  26  28
HETATM   28  C   UNL     1      -8.020  18.987  68.318  1.00  0.00    -0.350 C  
HETATM   29  C   UNL     1      -6.166  17.661  69.513  1.00  0.00    -0.245 C  
HETATM   30  C   UNL     1      -6.753  18.776  68.726  1.00  0.00    -0.292 C  
HETATM   31  C   UNL     1      -8.277  20.177  67.418  1.00  0.00    -0.385 C  
ENDBRANCH  26  28
ENDBRANCH  25  26
ENDBRANCH   9  25
BRANCH  16  32
HETATM   32  C   UNL     1      -7.007  11.464  66.602  1.00  0.00    -0.102 C  
HETATM   33  H   UNL     1      -5.080  11.404  66.360  1.00  0.00     0.000 HD 
HETATM   34  O   UNL     1      -5.693  11.993  66.783  1.00  0.00    -0.249 OA 
ENDBRANCH  16  32
TORSDOF 4
ENDMDL
MODEL       19
REMARK 921   NORMALIZED FREE ENERGY PREDICTED BY IDOCK:   -5.71 KCAL/MOL
REMARK 922        TOTAL FREE ENERGY PREDICTED BY IDOCK:   -8.18 KCAL/MOL
REMARK 923 INTER-LIGAND FREE ENERGY PREDICTED BY IDOCK:   -7.00 KCAL/MOL
REMARK 924 INTRA-LIGAND FREE ENERGY PREDICTED BY IDOCK:   -1.18 KCAL/MOL
REMARK 927      BINDING AFFINITY PREDICTED BY RF-SCORE:    0.00 PKD
ROOT
HETATM    1  C   UNL     1     -10.506  15.879  66.377  1.00  0.00    -0.311 C  
HETATM    2  C   UNL     1     -11.454  14.925  65.313  1.00  0.00    -0.336 C  
HETATM    3  C   UNL     1     -11.990  13.238  65.679  1.00  0.00    -0.455 C  
HETATM    4  C   UNL     1     -12.192  12.479  64.351  1.00  0.00    -0.528 C  
HETATM    5  C   UNL     1     -11.057  12.314  66.862  1.00  0.00    -0.341 C  
HETATM    6  C   UNL     1     -10.494  11.033  66.348  1.00  0.00    -0.312 C  
HETATM    7  C   UNL     1      -9.158  11.061  66.336  1.00  0.00    -0.191 C  
HETATM    8  C   UNL     1      -8.294  10.134  65.558  1.00  0.00    -0.160 C  
HETATM    9  C   UNL     1      -8.683  12.358  66.963  1.00  0.00    -0.207 C  
HETATM   10  C   UNL     1      -9.679  14.285  68.898  1.00  0.00    -0.118 C  
HETATM   11  C   UNL     1     -10.141  13.425  66.860  1.00  0.00    -0.255 C  
HETATM   12  C   UNL     1     -11.783  14.119  67.874  1.00  0.00    -0.367 C  
HETATM   13  C   UNL     1      -9.881  15.717  67.857  1.00  0.00    -0.217 C  
HETATM   14  O   UNL     1      -9.755  13.646  65.436  1.00  0.00    -0.518 OA 
HETATM   15  H   UNL     1      -9.151  14.379  65.434  1.00  0.00     0.000 HD 
HETATM   16  C   UNL     1     -11.828  14.451  69.451  1.00  0.00    -0.369 C  
HETATM   17  O   UNL     1     -12.624  15.191  67.397  1.00  0.00     0.014 OA 
HETATM   18  C   UNL     1      -7.627  15.434  66.873  1.00  0.00    -0.111 C  
HETATM   19  C   UNL     1     -10.426  12.596  68.530  1.00  0.00    -0.234 C  
HETATM   20  C   UNL     1      -8.603  17.614  66.396  1.00  0.00    -0.269 C  
HETATM   21  H   UNL     1     -13.385  15.512  67.867  1.00  0.00     0.000 HD 
HETATM   22  C   UNL     1      -8.944  16.156  66.707  1.00  0.00    -0.270 C  
HETATM   23  O   UNL     1     -10.591  11.746  69.419  1.00  0.00    -0.085 OA 
HETATM   24  C   UNL     1     -10.622  14.593  69.995  1.00  0.00     0.036 C  
ENDROOT
BRANCH   9  25
HETATM   25  O   UNL     1      -7.965  12.129  68.191  1.00  0.00    -0.133 OA 
BRANCH  25  26
HETATM   26  C   UNL     1      -6.611  12.293  68.095  1.00  0.00    -0.067 C  
HETATM   27  O   UNL     1      -6.016  12.534  67.052  1.00  0.00    -0.283 OA 
BRANCH  26  28
HETATM   28  C   UNL     1      -5.888  12.252  69.401  1.00  0.00    -0.092 C  
HETATM   29  C   UNL     1      -5.890  14.729  70.103  1.00  0.00    -0.138 C  
HETATM   30  C   UNL     1      -5.586  13.279  70.220  1.00  0.00    -0.143 C  
HETATM   31  C   UNL     1      -5.533  10.856  69.868  1.00  0.00    -0.050 C  
ENDBRANCH  26  28
ENDBRANCH  25  26
ENDBRANCH   9  25
BRANCH  16  32
HETATM   32  C   UNL     1     -13.095  14.422  70.245  1.00  0.00     0.049 C  
HETATM   33  H   UNL     1     -14.092  15.699  71.319  1.00  0.00     0.000 HD 
HETATM   34  O   UNL     1     -13.288  15.717  70.814  1.00  0.00    -0.539 OA 
ENDBRANCH  16  32
TORSDOF 4
ENDMDL
MODEL       20
REMARK 921   NORMALIZED FREE ENERGY PREDICTED BY IDOCK:   -5.64 KCAL/MOL
REMARK 922        TOTAL FREE ENERGY PREDICTED BY IDOCK:   -8.08 KCAL/MOL
REMARK 923 INTER-LIGAND FREE ENERGY PREDICTED BY IDOCK:   -6.68 KCAL/MOL
REMARK 924 INTRA-LIGAND FREE ENERGY PREDICTED BY IDOCK:   -1.40 KCAL/MOL
REMARK 927      BINDING AFFINITY PREDICTED BY RF-SCORE:    0.00 PKD
ROOT
HETATM    1  C   UNL     1      -9.525  14.154  67.994  1.00  0.00    -0.213 C  
HETATM    2  C   UNL     1     -10.699  14.597  66.824  1.00  0.00    -0.301 C  
HETATM    3  C   UNL     1     -11.738  13.412  65.940  1.00  0.00    -0.389 C  
HETATM    4  C   UNL     1     -12.137  14.016  64.578  1.00  0.00    -0.484 C  
HETATM    5  C   UNL     1     -11.160  11.745  65.809  1.00  0.00    -0.351 C  
HETATM    6  C   UNL     1     -11.011  11.246  64.412  1.00  0.00    -0.331 C  
HETATM    7  C   UNL     1      -9.731  10.989  64.124  1.00  0.00    -0.332 C  
HETATM    8  C   UNL     1      -9.181  10.842  62.751  1.00  0.00    -0.346 C  
HETATM    9  C   UNL     1      -8.892  11.189  65.372  1.00  0.00    -0.102 C  
HETATM   10  C   UNL     1      -9.283  11.080  68.250  1.00  0.00    -0.165 C  
HETATM   11  C   UNL     1      -9.947  12.224  66.417  1.00  0.00    -0.228 C  
HETATM   12  C   UNL     1     -11.314  12.213  67.946  1.00  0.00    -0.300 C  
HETATM   13  C   UNL     1      -9.011  12.787  68.682  1.00  0.00     0.048 C  
HETATM   14  O   UNL     1      -9.481  13.368  65.581  1.00  0.00    -0.485 OA 
HETATM   15  H   UNL     1      -8.681  13.684  65.983  1.00  0.00     0.000 HD 
HETATM   16  C   UNL     1     -11.287  11.213  69.209  1.00  0.00    -0.349 C  
HETATM   17  O   UNL     1     -11.772  13.407  68.617  1.00  0.00    -0.305 OA 
HETATM   18  C   UNL     1      -6.936  12.891  67.336  1.00  0.00    -0.129 C  
HETATM   19  C   UNL     1     -10.508  10.501  66.942  1.00  0.00    -0.246 C  
HETATM   20  C   UNL     1      -7.180  14.782  68.853  1.00  0.00    -0.126 C  
HETATM   21  H   UNL     1     -12.406  13.402  69.325  1.00  0.00     0.000 HD 
HETATM   22  C   UNL     1      -7.961  13.735  68.057  1.00  0.00    -0.156 C  
HETATM   23  O   UNL     1     -10.946   9.340  66.923  1.00  0.00    -0.067 OA 
HETATM   24  C   UNL     1     -10.108  10.623  69.391  1.00  0.00    -0.199 C  
ENDROOT
BRANCH   9  25
HETATM   25  O   UNL     1      -8.305   9.955  65.828  1.00  0.00    -0.122 OA 
BRANCH  25  26
HETATM   26  C   UNL     1      -6.978   9.814  65.531  1.00  0.00    -0.099 C  
HETATM   27  O   UNL     1      -6.331  10.611  64.864  1.00  0.00    -0.072 OA 
BRANCH  26  28
HETATM   28  C   UNL     1      -6.321   8.636  66.174  1.00  0.00    -0.056 C  
HETATM   29  C   UNL     1      -6.079   9.411  68.616  1.00  0.00    -0.044 C  
HETATM   30  C   UNL     1      -5.943   8.490  67.459  1.00  0.00    -0.047 C  
HETATM   31  C   UNL     1      -6.144   7.448  65.252  1.00  0.00    -0.038 C  
ENDBRANCH  26  28
ENDBRANCH  25  26
ENDBRANCH   9  25
BRANCH  16  32
HETATM   32  C   UNL     1     -12.517  10.855  69.981  1.00  0.00    -0.263 C  
HETATM   33  H   UNL     1     -13.369  11.488  71.610  1.00  0.00     0.000 HD 
HETATM   34  O   UNL     1     -12.587  11.714  71.120  1.00  0.00    -0.385 OA 
ENDBRANCH  16  32
TORSDOF 4
ENDMDL
MODEL       21
REMARK 921   NORMALIZED FREE ENERGY PREDICTED BY IDOCK:   -5.54 KCAL/MOL
REMARK 922        TOTAL FREE ENERGY PREDICTED BY IDOCK:   -7.97 KCAL/MOL
REMARK 923 INTER-LIGAND FREE ENERGY PREDICTED BY IDOCK:   -6.74 KCAL/MOL
REMARK 924 INTRA-LIGAND FREE ENERGY PREDICTED BY IDOCK:   -1.23 KCAL/MOL
REMARK 927      BINDING AFFINITY PREDICTED BY RF-SCORE:    0.00 PKD
ROOT
HETATM    1  C   UNL     1     -11.492   7.383  71.014  1.00  0.00    -0.307 C  
HETATM    2  C   UNL     1     -11.513   6.314  69.672  1.00  0.00    -0.425 C  
HETATM    3  C   UNL     1     -10.157   6.158  68.487  1.00  0.00    -0.193 C  
HETATM    4  C   UNL     1     -10.728   5.691  67.133  1.00  0.00    -0.316 C  
HETATM    5  C   UNL     1      -9.040   7.520  68.328  1.00  0.00    -0.132 C  
HETATM    6  C   UNL     1      -8.943   8.088  66.953  1.00  0.00    -0.160 C  
HETATM    7  C   UNL     1      -9.399   9.343  66.914  1.00  0.00    -0.188 C  
HETATM    8  C   UNL     1      -9.794  10.068  65.678  1.00  0.00    -0.363 C  
HETATM    9  C   UNL     1      -9.750   9.787  68.322  1.00  0.00    -0.145 C  
HETATM   10  C   UNL     1      -8.938   9.130  71.034  1.00  0.00    -0.281 C  
HETATM   11  C   UNL     1      -9.928   8.224  69.216  1.00  0.00    -0.192 C  
HETATM   12  C   UNL     1      -8.972   6.866  70.420  1.00  0.00    -0.152 C  
HETATM   13  C   UNL     1     -10.449   8.428  71.666  1.00  0.00    -0.321 C  
HETATM   14  O   UNL     1     -11.285   8.142  68.602  1.00  0.00    -0.326 OA 
HETATM   15  H   UNL     1     -11.871   8.606  69.188  1.00  0.00     0.000 HD 
HETATM   16  C   UNL     1      -7.900   7.235  71.565  1.00  0.00    -0.092 C  
HETATM   17  O   UNL     1      -9.645   5.777  71.088  1.00  0.00    -0.162 OA 
HETATM   18  C   UNL     1     -11.797  10.313  70.796  1.00  0.00    -0.459 C  
HETATM   19  C   UNL     1      -8.088   8.561  69.453  1.00  0.00    -0.112 C  
HETATM   20  C   UNL     1     -13.014   8.936  72.394  1.00  0.00    -0.467 C  
HETATM   21  H   UNL     1      -9.202   5.148  71.645  1.00  0.00     0.000 HD 
HETATM   22  C   UNL     1     -11.885   8.915  71.362  1.00  0.00    -0.383 C  
HETATM   23  O   UNL     1      -6.886   8.787  69.239  1.00  0.00    -0.049 OA 
HETATM   24  C   UNL     1      -7.938   8.513  71.933  1.00  0.00    -0.170 C  
ENDROOT
BRANCH   9  25
HETATM   25  O   UNL     1      -8.899  10.857  68.775  1.00  0.00    -0.158 OA 
BRANCH  25  26
HETATM   26  C   UNL     1      -9.260  12.097  68.328  1.00  0.00    -0.192 C  
HETATM   27  O   UNL     1     -10.417  12.483  68.218  1.00  0.00    -0.221 OA 
BRANCH  26  28
HETATM   28  C   UNL     1      -8.114  13.019  68.064  1.00  0.00    -0.157 C  
HETATM   29  C   UNL     1      -6.442  11.478  66.858  1.00  0.00    -0.144 C  
HETATM   30  C   UNL     1      -6.942  12.741  67.459  1.00  0.00    -0.149 C  
HETATM   31  C   UNL     1      -8.368  14.455  68.471  1.00  0.00    -0.157 C  
ENDBRANCH  26  28
ENDBRANCH  25  26
ENDBRANCH   9  25
BRANCH  16  32
HETATM   32  C   UNL     1      -6.853   6.272  72.030  1.00  0.00    -0.072 C  
HETATM   33  H   UNL     1      -6.839   4.629  73.068  1.00  0.00     0.000 HD 
HETATM   34  O   UNL     1      -7.503   5.241  72.773  1.00  0.00    -0.092 OA 
ENDBRANCH  16  32
TORSDOF 4
ENDMDL
MODEL       22
REMARK 921   NORMALIZED FREE ENERGY PREDICTED BY IDOCK:   -5.53 KCAL/MOL
REMARK 922        TOTAL FREE ENERGY PREDICTED BY IDOCK:   -7.96 KCAL/MOL
REMARK 923 INTER-LIGAND FREE ENERGY PREDICTED BY IDOCK:   -6.85 KCAL/MOL
REMARK 924 INTRA-LIGAND FREE ENERGY PREDICTED BY IDOCK:   -1.11 KCAL/MOL
REMARK 927      BINDING AFFINITY PREDICTED BY RF-SCORE:    0.00 PKD
ROOT
HETATM    1  C   UNL     1      -9.059   9.729  67.011  1.00  0.00    -0.157 C  
HETATM    2  C   UNL     1     -10.282  10.819  67.521  1.00  0.00    -0.231 C  
HETATM    3  C   UNL     1     -10.678  11.150  69.253  1.00  0.00    -0.241 C  
HETATM    4  C   UNL     1     -12.155  11.582  69.354  1.00  0.00    -0.345 C  
HETATM    5  C   UNL     1     -10.239   9.924  70.449  1.00  0.00    -0.299 C  
HETATM    6  C   UNL     1     -11.380   9.401  71.253  1.00  0.00    -0.436 C  
HETATM    7  C   UNL     1     -11.590   8.104  71.009  1.00  0.00    -0.301 C  
HETATM    8  C   UNL     1     -12.840   7.368  71.336  1.00  0.00    -0.408 C  
HETATM    9  C   UNL     1     -10.509   7.593  70.077  1.00  0.00    -0.229 C  
HETATM   10  C   UNL     1      -7.762   8.274  69.415  1.00  0.00    -0.102 C  
HETATM   11  C   UNL     1      -9.861   9.107  69.326  1.00  0.00    -0.175 C  
HETATM   12  C   UNL     1      -8.392  10.534  69.435  1.00  0.00    -0.106 C  
HETATM   13  C   UNL     1      -7.953   8.791  67.720  1.00  0.00    -0.106 C  
HETATM   14  O   UNL     1     -11.052   9.051  68.429  1.00  0.00    -0.465 OA 
HETATM   15  H   UNL     1     -10.802   8.513  67.688  1.00  0.00     0.000 HD 
HETATM   16  C   UNL     1      -6.862  10.260  69.861  1.00  0.00    -0.134 C  
HETATM   17  O   UNL     1      -8.164  11.527  68.413  1.00  0.00    -0.140 OA 
HETATM   18  C   UNL     1      -9.299   6.788  67.166  1.00  0.00    -0.154 C  
HETATM   19  C   UNL     1      -8.761   8.969  70.852  1.00  0.00    -0.229 C  
HETATM   20  C   UNL     1      -8.525   7.987  65.192  1.00  0.00    -0.117 C  
HETATM   21  H   UNL     1      -7.484  12.188  68.464  1.00  0.00     0.000 HD 
HETATM   22  C   UNL     1      -8.891   8.155  66.667  1.00  0.00    -0.164 C  
HETATM   23  O   UNL     1      -8.367   8.882  72.025  1.00  0.00    -0.367 OA 
HETATM   24  C   UNL     1      -6.515   8.977  69.789  1.00  0.00    -0.038 C  
ENDROOT
BRANCH   9  25
HETATM   25  O   UNL     1      -9.668   6.613  70.717  1.00  0.00    -0.178 OA 
BRANCH  25  26
HETATM   26  C   UNL     1     -10.058   5.317  70.523  1.00  0.00    -0.245 C  
HETATM   27  O   UNL     1     -10.635   4.911  69.522  1.00  0.00    -0.110 OA 
BRANCH  26  28
HETATM   28  C   UNL     1      -9.638   4.376  71.605  1.00  0.00    -0.227 C  
HETATM   29  C   UNL     1     -10.746   5.407  73.687  1.00  0.00    -0.337 C  
HETATM   30  C   UNL     1      -9.925   4.434  72.920  1.00  0.00    -0.201 C  
HETATM   31  C   UNL     1      -8.859   3.176  71.110  1.00  0.00    -0.140 C  
ENDBRANCH  26  28
ENDBRANCH  25  26
ENDBRANCH   9  25
BRANCH  16  32
HETATM   32  C   UNL     1      -5.986  11.321  70.447  1.00  0.00    -0.140 C  
HETATM   33  H   UNL     1      -5.098  11.607  72.153  1.00  0.00     0.000 HD 
HETATM   34  O   UNL     1      -5.655  10.933  71.781  1.00  0.00    -0.329 OA 
ENDBRANCH  16  32
TORSDOF 4
ENDMDL
MODEL       23
REMARK 921   NORMALIZED FREE ENERGY PREDICTED BY IDOCK:   -5.48 KCAL/MOL
REMARK 922        TOTAL FREE ENERGY PREDICTED BY IDOCK:   -7.89 KCAL/MOL
REMARK 923 INTER-LIGAND FREE ENERGY PREDICTED BY IDOCK:   -6.90 KCAL/MOL
REMARK 924 INTRA-LIGAND FREE ENERGY PREDICTED BY IDOCK:   -0.99 KCAL/MOL
REMARK 927      BINDING AFFINITY PREDICTED BY RF-SCORE:    0.00 PKD
ROOT
HETATM    1  C   UNL     1      -7.687   9.470  64.789  1.00  0.00    -0.119 C  
HETATM    2  C   UNL     1      -6.350  10.031  65.706  1.00  0.00    -0.094 C  
HETATM    3  C   UNL     1      -6.432  10.438  67.464  1.00  0.00    -0.058 C  
HETATM    4  C   UNL     1      -5.353  11.492  67.785  1.00  0.00    -0.049 C  
HETATM    5  C   UNL     1      -8.013  10.847  68.143  1.00  0.00    -0.117 C  
HETATM    6  C   UNL     1      -8.088  12.193  68.779  1.00  0.00     0.033 C  
HETATM    7  C   UNL     1      -8.928  12.995  68.117  1.00  0.00    -0.198 C  
HETATM    8  C   UNL     1      -8.963  14.476  68.237  1.00  0.00    -0.184 C  
HETATM    9  C   UNL     1      -9.600  12.204  67.010  1.00  0.00    -0.205 C  
HETATM   10  C   UNL     1     -10.280   9.429  66.478  1.00  0.00    -0.308 C  
HETATM   11  C   UNL     1      -8.499  10.785  66.790  1.00  0.00    -0.134 C  
HETATM   12  C   UNL     1      -8.169   8.827  67.304  1.00  0.00    -0.104 C  
HETATM   13  C   UNL     1      -9.232   9.099  65.075  1.00  0.00    -0.180 C  
HETATM   14  O   UNL     1      -7.637  11.704  65.992  1.00  0.00    -0.358 OA 
HETATM   15  H   UNL     1      -7.958  11.663  65.099  1.00  0.00     0.000 HD 
HETATM   16  C   UNL     1      -9.319   7.720  67.530  1.00  0.00    -0.161 C  
HETATM   17  O   UNL     1      -7.176   7.991  66.673  1.00  0.00    -0.078 OA 
HETATM   18  C   UNL     1      -9.941  11.182  63.940  1.00  0.00    -0.381 C  
HETATM   19  C   UNL     1      -9.667  10.126  68.116  1.00  0.00    -0.139 C  
HETATM   20  C   UNL     1      -8.766   9.647  62.458  1.00  0.00    -0.232 C  
HETATM   21  H   UNL     1      -7.023   7.084  66.912  1.00  0.00     0.000 HD 
HETATM   22  C   UNL     1      -8.912  10.076  63.919  1.00  0.00    -0.271 C  
HETATM   23  O   UNL     1     -10.315   9.994  69.167  1.00  0.00    -0.191 OA 
HETATM   24  C   UNL     1     -10.492   8.063  67.005  1.00  0.00    -0.410 C  
ENDROOT
BRANCH   9  25
HETATM   25  O   UNL     1     -11.017  12.070  67.231  1.00  0.00    -0.237 OA 
BRANCH  25  26
HETATM   26  C   UNL     1     -11.733  13.219  67.034  1.00  0.00    -0.389 C  
HETATM   27  O   UNL     1     -12.119  13.955  67.933  1.00  0.00    -0.366 OA 
BRANCH  26  28
HETATM   28  C   UNL     1     -11.939  13.583  65.600  1.00  0.00    -0.429 C  
HETATM   29  C   UNL     1     -10.479  15.689  65.356  1.00  0.00    -0.435 C  
HETATM   30  C   UNL     1     -11.417  14.623  64.920  1.00  0.00    -0.401 C  
HETATM   31  C   UNL     1     -12.784  12.593  64.826  1.00  0.00    -0.460 C  
ENDBRANCH  26  28
ENDBRANCH  25  26
ENDBRANCH   9  25
BRANCH  16  32
HETATM   32  C   UNL     1      -9.121   6.517  68.396  1.00  0.00    -0.123 C  
HETATM   33  H   UNL     1      -7.960   6.051  69.884  1.00  0.00     0.000 HD 
HETATM   34  O   UNL     1      -8.086   6.815  69.334  1.00  0.00    -0.119 OA 
ENDBRANCH  16  32
TORSDOF 4
ENDMDL
MODEL       24
REMARK 921   NORMALIZED FREE ENERGY PREDICTED BY IDOCK:   -5.47 KCAL/MOL
REMARK 922        TOTAL FREE ENERGY PREDICTED BY IDOCK:   -7.88 KCAL/MOL
REMARK 923 INTER-LIGAND FREE ENERGY PREDICTED BY IDOCK:   -6.65 KCAL/MOL
REMARK 924 INTRA-LIGAND FREE ENERGY PREDICTED BY IDOCK:   -1.23 KCAL/MOL
REMARK 927      BINDING AFFINITY PREDICTED BY RF-SCORE:    0.00 PKD
ROOT
HETATM    1  C   UNL     1     -11.792  12.263  68.278  1.00  0.00    -0.367 C  
HETATM    2  C   UNL     1     -11.297  13.899  68.130  1.00  0.00    -0.324 C  
HETATM    3  C   UNL     1      -9.791  14.423  67.278  1.00  0.00    -0.247 C  
HETATM    4  C   UNL     1      -9.311  15.756  67.887  1.00  0.00    -0.200 C  
HETATM    5  C   UNL     1      -8.489  13.240  67.102  1.00  0.00    -0.182 C  
HETATM    6  C   UNL     1      -7.186  13.655  67.696  1.00  0.00    -0.179 C  
HETATM    7  C   UNL     1      -6.843  12.860  68.715  1.00  0.00    -0.099 C  
HETATM    8  C   UNL     1      -5.831  13.194  69.750  1.00  0.00    -0.124 C  
HETATM    9  C   UNL     1      -7.857  11.738  68.830  1.00  0.00    -0.013 C  
HETATM   10  C   UNL     1      -9.696  10.330  67.074  1.00  0.00    -0.217 C  
HETATM   11  C   UNL     1      -9.291  12.381  67.932  1.00  0.00    -0.195 C  
HETATM   12  C   UNL     1     -10.265  12.400  66.128  1.00  0.00    -0.242 C  
HETATM   13  C   UNL     1     -11.258  10.825  67.773  1.00  0.00    -0.385 C  
HETATM   14  O   UNL     1      -9.592  13.157  69.170  1.00  0.00    -0.317 OA 
HETATM   15  H   UNL     1     -10.121  12.591  69.718  1.00  0.00     0.000 HD 
HETATM   16  C   UNL     1     -10.373  11.148  65.119  1.00  0.00    -0.354 C  
HETATM   17  O   UNL     1     -11.584  12.954  65.937  1.00  0.00    -0.339 OA 
HETATM   18  C   UNL     1     -10.500  10.302  70.071  1.00  0.00    -0.293 C  
HETATM   19  C   UNL     1      -8.350  11.532  66.536  1.00  0.00    -0.147 C  
HETATM   20  C   UNL     1     -12.910  10.622  69.917  1.00  0.00     0.038 C  
HETATM   21  H   UNL     1     -12.035  12.963  65.101  1.00  0.00     0.000 HD 
HETATM   22  C   UNL     1     -11.575  11.006  69.277  1.00  0.00    -0.384 C  
HETATM   23  O   UNL     1      -7.463  11.204  65.731  1.00  0.00    -0.002 OA 
HETATM   24  C   UNL     1     -10.098   9.980  65.693  1.00  0.00    -0.321 C  
ENDROOT
BRANCH   9  25
HETATM   25  O   UNL     1      -7.269  10.453  68.550  1.00  0.00    -0.079 OA 
BRANCH  25  26
HETATM   26  C   UNL     1      -7.164   9.628  69.636  1.00  0.00    -0.084 C  
HETATM   27  O   UNL     1      -6.831   9.997  70.755  1.00  0.00    -0.286 OA 
BRANCH  26  28
HETATM   28  C   UNL     1      -7.590   8.218  69.386  1.00  0.00    -0.096 C  
HETATM   29  C   UNL     1      -8.715   7.585  71.613  1.00  0.00    -0.126 C  
HETATM   30  C   UNL     1      -8.226   7.377  70.226  1.00  0.00    -0.132 C  
HETATM   31  C   UNL     1      -7.325   7.733  67.977  1.00  0.00    -0.102 C  
ENDBRANCH  26  28
ENDBRANCH  25  26
ENDBRANCH   9  25
BRANCH  16  32
HETATM   32  C   UNL     1     -10.588  11.315  63.647  1.00  0.00    -0.388 C  
HETATM   33  H   UNL     1     -12.008  12.014  62.520  1.00  0.00     0.000 HD 
HETATM   34  O   UNL     1     -11.872  11.907  63.454  1.00  0.00    -0.463 OA 
ENDBRANCH  16  32
TORSDOF 4
ENDMDL
MODEL       25
REMARK 921   NORMALIZED FREE ENERGY PREDICTED BY IDOCK:   -5.47 KCAL/MOL
REMARK 922        TOTAL FREE ENERGY PREDICTED BY IDOCK:   -7.88 KCAL/MOL
REMARK 923 INTER-LIGAND FREE ENERGY PREDICTED BY IDOCK:   -6.44 KCAL/MOL
REMARK 924 INTRA-LIGAND FREE ENERGY PREDICTED BY IDOCK:   -1.44 KCAL/MOL
REMARK 927      BINDING AFFINITY PREDICTED BY RF-SCORE:    0.00 PKD
ROOT
HETATM    1  C   UNL     1     -11.498   9.282  70.258  1.00  0.00    -0.198 C  
HETATM    2  C   UNL     1     -10.334  10.338  69.570  1.00  0.00    -0.267 C  
HETATM    3  C   UNL     1      -8.722   9.799  68.959  1.00  0.00    -0.148 C  
HETATM    4  C   UNL     1      -7.731  10.976  69.058  1.00  0.00    -0.132 C  
HETATM    5  C   UNL     1      -8.059   8.289  69.597  1.00  0.00    -0.116 C  
HETATM    6  C   UNL     1      -6.728   8.421  70.255  1.00  0.00    -0.036 C  
HETATM    7  C   UNL     1      -6.803   8.142  71.560  1.00  0.00    -0.060 C  
HETATM    8  C   UNL     1      -5.785   8.525  72.573  1.00  0.00    -0.061 C  
HETATM    9  C   UNL     1      -8.208   7.672  71.887  1.00  0.00    -0.108 C  
HETATM   10  C   UNL     1     -10.412   6.393  70.489  1.00  0.00    -0.270 C  
HETATM   11  C   UNL     1      -9.185   8.290  70.494  1.00  0.00    -0.151 C  
HETATM   12  C   UNL     1      -9.988   7.811  68.669  1.00  0.00    -0.182 C  
HETATM   13  C   UNL     1     -11.627   7.696  70.533  1.00  0.00    -0.195 C  
HETATM   14  O   UNL     1      -9.162   9.609  71.193  1.00  0.00    -0.333 OA 
HETATM   15  H   UNL     1      -9.904   9.610  71.784  1.00  0.00     0.000 HD 
HETATM   16  C   UNL     1     -10.595   6.372  68.271  1.00  0.00    -0.312 C  
HETATM   17  O   UNL     1     -10.926   8.651  67.962  1.00  0.00    -0.475 OA 
HETATM   18  C   UNL     1     -11.255   8.086  72.949  1.00  0.00    -0.389 C  
HETATM   19  C   UNL     1      -8.659   6.603  69.836  1.00  0.00    -0.140 C  
HETATM   20  C   UNL     1     -13.278   9.157  72.115  1.00  0.00    -0.524 C  
HETATM   21  H   UNL     1     -11.298   8.428  67.116  1.00  0.00     0.000 HD 
HETATM   22  C   UNL     1     -11.887   8.669  71.707  1.00  0.00    -0.404 C  
HETATM   23  O   UNL     1      -7.976   5.633  69.471  1.00  0.00    -0.089 OA 
HETATM   24  C   UNL     1     -10.877   5.608  69.324  1.00  0.00    -0.309 C  
ENDROOT
BRANCH   9  25
HETATM   25  O   UNL     1      -8.229   6.295  72.308  1.00  0.00    -0.109 OA 
BRANCH  25  26
HETATM   26  C   UNL     1      -8.356   6.117  73.658  1.00  0.00    -0.117 C  
HETATM   27  O   UNL     1      -8.306   7.021  74.482  1.00  0.00    -0.154 OA 
BRANCH  26  28
HETATM   28  C   UNL     1      -8.665   4.715  74.072  1.00  0.00    -0.104 C  
HETATM   29  C   UNL     1     -11.164   4.513  73.491  1.00  0.00    -0.388 C  
HETATM   30  C   UNL     1      -9.845   4.066  74.006  1.00  0.00    -0.160 C  
HETATM   31  C   UNL     1      -7.461   3.932  74.550  1.00  0.00    -0.073 C  
ENDBRANCH  26  28
ENDBRANCH  25  26
ENDBRANCH   9  25
BRANCH  16  32
HETATM   32  C   UNL     1     -10.662   5.888  66.857  1.00  0.00    -0.321 C  
HETATM   33  H   UNL     1      -9.594   6.133  65.252  1.00  0.00     0.000 HD 
HETATM   34  O   UNL     1      -9.551   6.440  66.149  1.00  0.00    -0.113 OA 
ENDBRANCH  16  32
TORSDOF 4
ENDMDL
MODEL       26
REMARK 921   NORMALIZED FREE ENERGY PREDICTED BY IDOCK:   -5.46 KCAL/MOL
REMARK 922        TOTAL FREE ENERGY PREDICTED BY IDOCK:   -7.87 KCAL/MOL
REMARK 923 INTER-LIGAND FREE ENERGY PREDICTED BY IDOCK:   -6.89 KCAL/MOL
REMARK 924 INTRA-LIGAND FREE ENERGY PREDICTED BY IDOCK:   -0.98 KCAL/MOL
REMARK 927      BINDING AFFINITY PREDICTED BY RF-SCORE:    0.00 PKD
ROOT
HETATM    1  C   UNL     1      -9.460   5.262  68.729  1.00  0.00    -0.171 C  
HETATM    2  C   UNL     1      -7.908   5.103  69.442  1.00  0.00    -0.080 C  
HETATM    3  C   UNL     1      -7.382   5.997  70.922  1.00  0.00    -0.082 C  
HETATM    4  C   UNL     1      -5.849   6.162  70.887  1.00  0.00    -0.019 C  
HETATM    5  C   UNL     1      -8.225   7.498  71.323  1.00  0.00    -0.100 C  
HETATM    6  C   UNL     1      -7.348   8.700  71.415  1.00  0.00    -0.116 C  
HETATM    7  C   UNL     1      -7.645   9.590  70.463  1.00  0.00    -0.165 C  
HETATM    8  C   UNL     1      -6.756  10.700  70.029  1.00  0.00    -0.156 C  
HETATM    9  C   UNL     1      -8.858   9.106  69.692  1.00  0.00    -0.151 C  
HETATM   10  C   UNL     1     -11.160   7.401  70.182  1.00  0.00    -0.265 C  
HETATM   11  C   UNL     1      -8.905   7.335  70.064  1.00  0.00    -0.141 C  
HETATM   12  C   UNL     1      -9.728   5.901  71.277  1.00  0.00    -0.173 C  
HETATM   13  C   UNL     1     -10.823   6.065  69.053  1.00  0.00    -0.412 C  
HETATM   14  O   UNL     1      -7.840   7.192  69.029  1.00  0.00    -0.110 OA 
HETATM   15  H   UNL     1      -8.288   7.084  68.199  1.00  0.00     0.000 HD 
HETATM   16  C   UNL     1     -11.240   5.914  71.834  1.00  0.00    -0.323 C  
HETATM   17  O   UNL     1      -9.587   4.483  71.048  1.00  0.00    -0.152 OA 
HETATM   18  C   UNL     1     -10.338   7.632  67.198  1.00  0.00    -0.385 C  
HETATM   19  C   UNL     1      -9.945   8.023  71.479  1.00  0.00    -0.177 C  
HETATM   20  C   UNL     1     -10.646   5.336  66.445  1.00  0.00    -0.338 C  
HETATM   21  H   UNL     1      -9.968   3.819  71.610  1.00  0.00     0.000 HD 
HETATM   22  C   UNL     1     -10.213   6.191  67.636  1.00  0.00    -0.214 C  
HETATM   23  O   UNL     1     -10.320   8.670  72.470  1.00  0.00    -0.295 OA 
HETATM   24  C   UNL     1     -12.045   6.733  71.161  1.00  0.00    -0.422 C  
ENDROOT
BRANCH   9  25
HETATM   25  O   UNL     1      -9.992   9.976  69.874  1.00  0.00    -0.237 OA 
BRANCH  25  26
HETATM   26  C   UNL     1     -10.188  10.871  68.860  1.00  0.00    -0.198 C  
HETATM   27  O   UNL     1      -9.523  10.910  67.833  1.00  0.00    -0.155 OA 
BRANCH  26  28
HETATM   28  C   UNL     1     -11.367  11.770  69.047  1.00  0.00    -0.338 C  
HETATM   29  C   UNL     1     -11.805  12.601  66.650  1.00  0.00    -0.449 C  
HETATM   30  C   UNL     1     -12.021  12.493  68.116  1.00  0.00    -0.274 C  
HETATM   31  C   UNL     1     -11.914  11.787  70.458  1.00  0.00    -0.383 C  
ENDBRANCH  26  28
ENDBRANCH  25  26
ENDBRANCH   9  25
BRANCH  16  32
HETATM   32  C   UNL     1     -11.642   5.209  73.091  1.00  0.00    -0.203 C  
HETATM   33  H   UNL     1     -10.707   4.396  74.589  1.00  0.00     0.000 HD 
HETATM   34  O   UNL     1     -10.452   4.843  73.791  1.00  0.00    -0.202 OA 
ENDBRANCH  16  32
TORSDOF 4
ENDMDL
MODEL       27
REMARK 921   NORMALIZED FREE ENERGY PREDICTED BY IDOCK:   -5.44 KCAL/MOL
REMARK 922        TOTAL FREE ENERGY PREDICTED BY IDOCK:   -7.84 KCAL/MOL
REMARK 923 INTER-LIGAND FREE ENERGY PREDICTED BY IDOCK:   -6.76 KCAL/MOL
REMARK 924 INTRA-LIGAND FREE ENERGY PREDICTED BY IDOCK:   -1.09 KCAL/MOL
REMARK 927      BINDING AFFINITY PREDICTED BY RF-SCORE:    0.00 PKD
ROOT
HETATM    1  C   UNL     1      -7.096   7.873  71.160  1.00  0.00    -0.054 C  
HETATM    2  C   UNL     1      -7.892   7.382  72.598  1.00  0.00    -0.110 C  
HETATM    3  C   UNL     1      -9.584   6.750  72.649  1.00  0.00    -0.160 C  
HETATM    4  C   UNL     1     -10.188   7.050  74.036  1.00  0.00    -0.346 C  
HETATM    5  C   UNL     1     -10.667   7.184  71.320  1.00  0.00    -0.245 C  
HETATM    6  C   UNL     1     -11.909   7.897  71.736  1.00  0.00    -0.333 C  
HETATM    7  C   UNL     1     -11.935   9.144  71.258  1.00  0.00    -0.394 C  
HETATM    8  C   UNL     1     -12.809  10.233  71.767  1.00  0.00    -0.565 C  
HETATM    9  C   UNL     1     -10.733   9.355  70.356  1.00  0.00    -0.263 C  
HETATM   10  C   UNL     1      -8.983   7.717  68.712  1.00  0.00    -0.141 C  
HETATM   11  C   UNL     1      -9.601   8.036  70.862  1.00  0.00    -0.161 C  
HETATM   12  C   UNL     1      -8.952   6.136  70.444  1.00  0.00    -0.150 C  
HETATM   13  C   UNL     1      -7.441   7.911  69.583  1.00  0.00    -0.092 C  
HETATM   14  O   UNL     1      -9.246   8.918  72.011  1.00  0.00    -0.348 OA 
HETATM   15  H   UNL     1      -8.543   9.480  71.709  1.00  0.00     0.000 HD 
HETATM   16  C   UNL     1      -8.788   5.515  68.966  1.00  0.00    -0.108 C  
HETATM   17  O   UNL     1      -7.800   5.529  71.069  1.00  0.00    -0.099 OA 
HETATM   18  C   UNL     1      -7.712  10.369  69.703  1.00  0.00    -0.152 C  
HETATM   19  C   UNL     1     -10.591   7.158  69.517  1.00  0.00    -0.234 C  
HETATM   20  C   UNL     1      -5.454   9.635  70.249  1.00  0.00    -0.041 C  
HETATM   21  H   UNL     1      -7.500   4.649  70.875  1.00  0.00     0.000 HD 
HETATM   22  C   UNL     1      -6.922   9.204  70.254  1.00  0.00    -0.059 C  
HETATM   23  O   UNL     1     -11.523   6.678  68.853  1.00  0.00    -0.192 OA 
HETATM   24  C   UNL     1      -8.755   6.437  68.006  1.00  0.00    -0.115 C  
ENDROOT
BRANCH   9  25
HETATM   25  O   UNL     1     -11.121   9.572  68.986  1.00  0.00    -0.152 OA 
BRANCH  25  26
HETATM   26  C   UNL     1     -11.050  10.874  68.576  1.00  0.00    -0.256 C  
HETATM   27  O   UNL     1     -10.995  11.835  69.333  1.00  0.00    -0.211 OA 
BRANCH  26  28
HETATM   28  C   UNL     1     -10.944  11.053  67.097  1.00  0.00    -0.344 C  
HETATM   29  C   UNL     1     -12.027  13.362  66.748  1.00  0.00    -0.447 C  
HETATM   30  C   UNL     1     -11.367  12.092  66.349  1.00  0.00    -0.411 C  
HETATM   31  C   UNL     1     -10.194   9.943  66.392  1.00  0.00    -0.292 C  
ENDBRANCH  26  28
ENDBRANCH  25  26
ENDBRANCH   9  25
BRANCH  16  32
HETATM   32  C   UNL     1      -8.849   4.045  68.697  1.00  0.00    -0.106 C  
HETATM   33  H   UNL     1      -9.663   2.506  69.562  1.00  0.00     0.000 HD 
HETATM   34  O   UNL     1      -9.624   3.440  69.733  1.00  0.00    -0.175 OA 
ENDBRANCH  16  32
TORSDOF 4
ENDMDL
MODEL       28
REMARK 921   NORMALIZED FREE ENERGY PREDICTED BY IDOCK:   -5.42 KCAL/MOL
REMARK 922        TOTAL FREE ENERGY PREDICTED BY IDOCK:   -7.81 KCAL/MOL
REMARK 923 INTER-LIGAND FREE ENERGY PREDICTED BY IDOCK:   -6.78 KCAL/MOL
REMARK 924 INTRA-LIGAND FREE ENERGY PREDICTED BY IDOCK:   -1.03 KCAL/MOL
REMARK 927      BINDING AFFINITY PREDICTED BY RF-SCORE:    0.00 PKD
ROOT
HETATM    1  C   UNL     1     -11.734  14.089  66.844  1.00  0.00    -0.435 C  
HETATM    2  C   UNL     1     -12.407  13.258  68.185  1.00  0.00     0.099 C  
HETATM    3  C   UNL     1     -11.453  12.197  69.295  1.00  0.00    -0.363 C  
HETATM    4  C   UNL     1     -12.393  11.135  69.901  1.00  0.00    -0.330 C  
HETATM    5  C   UNL     1      -9.944  11.508  68.684  1.00  0.00    -0.207 C  
HETATM    6  C   UNL     1      -9.881  10.019  68.713  1.00  0.00    -0.173 C  
HETATM    7  C   UNL     1      -9.814   9.513  67.478  1.00  0.00    -0.213 C  
HETATM    8  C   UNL     1     -10.111   8.101  67.120  1.00  0.00    -0.334 C  
HETATM    9  C   UNL     1      -9.708  10.650  66.481  1.00  0.00    -0.194 C  
HETATM   10  C   UNL     1      -8.743  13.392  66.462  1.00  0.00     0.083 C  
HETATM   11  C   UNL     1     -10.315  12.077  67.414  1.00  0.00    -0.207 C  
HETATM   12  C   UNL     1      -9.762  13.690  68.554  1.00  0.00    -0.184 C  
HETATM   13  C   UNL     1     -10.268  14.273  66.192  1.00  0.00    -0.317 C  
HETATM   14  O   UNL     1     -11.683  11.566  67.111  1.00  0.00    -0.567 OA 
HETATM   15  H   UNL     1     -11.928  11.941  66.274  1.00  0.00     0.000 HD 
HETATM   16  C   UNL     1      -8.444  14.587  68.315  1.00  0.00    -0.161 C  
HETATM   17  O   UNL     1     -10.673  14.735  68.955  1.00  0.00    -0.236 OA 
HETATM   18  C   UNL     1     -10.911  12.774  64.330  1.00  0.00    -0.414 C  
HETATM   19  C   UNL     1      -8.477  12.133  67.836  1.00  0.00    -0.163 C  
HETATM   20  C   UNL     1     -12.260  14.799  64.426  1.00  0.00    -0.447 C  
HETATM   21  H   UNL     1     -10.417  15.483  69.483  1.00  0.00     0.000 HD 
HETATM   22  C   UNL     1     -11.433  13.832  65.273  1.00  0.00    -0.320 C  
HETATM   23  O   UNL     1      -7.342  11.826  68.232  1.00  0.00    -0.082 OA 
HETATM   24  C   UNL     1      -7.917  14.439  67.103  1.00  0.00    -0.147 C  
ENDROOT
BRANCH   9  25
HETATM   25  O   UNL     1      -8.441  10.645  65.793  1.00  0.00    -0.169 OA 
BRANCH  25  26
HETATM   26  C   UNL     1      -8.424   9.907  64.642  1.00  0.00    -0.172 C  
HETATM   27  O   UNL     1      -9.358   9.834  63.854  1.00  0.00    -0.261 OA 
BRANCH  26  28
HETATM   28  C   UNL     1      -7.116   9.248  64.348  1.00  0.00    -0.094 C  
HETATM   29  C   UNL     1      -7.690   6.753  64.608  1.00  0.00    -0.112 C  
HETATM   30  C   UNL     1      -6.825   7.932  64.349  1.00  0.00    -0.063 C  
HETATM   31  C   UNL     1      -6.023  10.207  63.924  1.00  0.00    -0.140 C  
ENDBRANCH  26  28
ENDBRANCH  25  26
ENDBRANCH   9  25
BRANCH  16  32
HETATM   32  C   UNL     1      -7.789  15.364  69.412  1.00  0.00    -0.232 C  
HETATM   33  H   UNL     1      -7.212  17.204  69.660  1.00  0.00     0.000 HD 
HETATM   34  O   UNL     1      -7.628  16.710  68.963  1.00  0.00    -0.226 OA 
ENDBRANCH  16  32
TORSDOF 4
ENDMDL
MODEL       29
REMARK 921   NORMALIZED FREE ENERGY PREDICTED BY IDOCK:   -5.36 KCAL/MOL
REMARK 922        TOTAL FREE ENERGY PREDICTED BY IDOCK:   -7.74 KCAL/MOL
REMARK 923 INTER-LIGAND FREE ENERGY PREDICTED BY IDOCK:   -6.45 KCAL/MOL
REMARK 924 INTRA-LIGAND FREE ENERGY PREDICTED BY IDOCK:   -1.29 KCAL/MOL
REMARK 927      BINDING AFFINITY PREDICTED BY RF-SCORE:    0.00 PKD
ROOT
HETATM    1  C   UNL     1      -6.384  10.114  68.476  1.00  0.00    -0.048 C  
HETATM    2  C   UNL     1      -6.757   9.479  70.026  1.00  0.00    -0.070 C  
HETATM    3  C   UNL     1      -8.239   8.508  70.387  1.00  0.00    -0.114 C  
HETATM    4  C   UNL     1      -8.601   8.686  71.876  1.00  0.00    -0.231 C  
HETATM    5  C   UNL     1      -9.631   8.697  69.314  1.00  0.00    -0.166 C  
HETATM    6  C   UNL     1     -10.884   9.139  69.991  1.00  0.00    -0.256 C  
HETATM    7  C   UNL     1     -11.261  10.350  69.571  1.00  0.00    -0.325 C  
HETATM    8  C   UNL     1     -12.220  11.237  70.280  1.00  0.00    -0.428 C  
HETATM    9  C   UNL     1     -10.333  10.800  68.458  1.00  0.00    -0.185 C  
HETATM   10  C   UNL     1      -8.649   9.550  66.445  1.00  0.00    -0.143 C  
HETATM   11  C   UNL     1      -8.877   9.749  68.684  1.00  0.00    -0.126 C  
HETATM   12  C   UNL     1      -7.948   8.023  68.081  1.00  0.00    -0.128 C  
HETATM   13  C   UNL     1      -7.038  10.067  67.001  1.00  0.00    -0.089 C  
HETATM   14  O   UNL     1      -8.488  10.694  69.771  1.00  0.00    -0.385 OA 
HETATM   15  H   UNL     1      -7.990  11.388  69.355  1.00  0.00     0.000 HD 
HETATM   16  C   UNL     1      -7.959   7.440  66.579  1.00  0.00    -0.111 C  
HETATM   17  O   UNL     1      -6.595   7.674  68.445  1.00  0.00    -0.050 OA 
HETATM   18  C   UNL     1      -7.778  12.416  67.257  1.00  0.00    -0.158 C  
HETATM   19  C   UNL     1      -9.913   8.675  67.532  1.00  0.00    -0.199 C  
HETATM   20  C   UNL     1      -5.355  12.172  67.322  1.00  0.00    -0.113 C  
HETATM   21  H   UNL     1      -6.165   6.874  68.166  1.00  0.00     0.000 HD 
HETATM   22  C   UNL     1      -6.672  11.446  67.601  1.00  0.00    -0.075 C  
HETATM   23  O   UNL     1     -10.841   8.006  67.049  1.00  0.00    -0.283 OA 
HETATM   24  C   UNL     1      -8.309   8.340  65.664  1.00  0.00    -0.154 C  
ENDROOT
BRANCH   9  25
HETATM   25  O   UNL     1     -11.024  10.921  67.200  1.00  0.00    -0.274 OA 
BRANCH  25  26
HETATM   26  C   UNL     1     -11.292  12.207  66.822  1.00  0.00    -0.342 C  
HETATM   27  O   UNL     1     -11.699  13.079  67.579  1.00  0.00    -0.335 OA 
BRANCH  26  28
HETATM   28  C   UNL     1     -10.955  12.519  65.400  1.00  0.00    -0.329 C  
HETATM   29  C   UNL     1     -10.123  14.949  65.557  1.00  0.00    -0.400 C  
HETATM   30  C   UNL     1     -10.479  13.672  64.889  1.00  0.00    -0.426 C  
HETATM   31  C   UNL     1     -11.108  11.344  64.457  1.00  0.00    -0.302 C  
ENDBRANCH  26  28
ENDBRANCH  25  26
ENDBRANCH   9  25
BRANCH  16  32
HETATM   32  C   UNL     1      -7.769   5.987  66.277  1.00  0.00    -0.102 C  
HETATM   33  H   UNL     1      -8.045   4.319  67.237  1.00  0.00     0.000 HD 
HETATM   34  O   UNL     1      -8.166   5.242  67.429  1.00  0.00    -0.104 OA 
ENDBRANCH  16  32
TORSDOF 4
ENDMDL
MODEL       30
REMARK 921   NORMALIZED FREE ENERGY PREDICTED BY IDOCK:   -5.34 KCAL/MOL
REMARK 922        TOTAL FREE ENERGY PREDICTED BY IDOCK:   -7.72 KCAL/MOL
REMARK 923 INTER-LIGAND FREE ENERGY PREDICTED BY IDOCK:   -6.56 KCAL/MOL
REMARK 924 INTRA-LIGAND FREE ENERGY PREDICTED BY IDOCK:   -1.16 KCAL/MOL
REMARK 927      BINDING AFFINITY PREDICTED BY RF-SCORE:    0.00 PKD
ROOT
HETATM    1  C   UNL     1      -8.191   9.526  70.233  1.00  0.00    -0.209 C  
HETATM    2  C   UNL     1      -8.700   9.771  68.613  1.00  0.00    -0.122 C  
HETATM    3  C   UNL     1     -10.195   9.043  67.906  1.00  0.00    -0.272 C  
HETATM    4  C   UNL     1     -10.003   8.886  66.384  1.00  0.00    -0.354 C  
HETATM    5  C   UNL     1     -10.844   7.586  68.669  1.00  0.00    -0.044 C  
HETATM    6  C   UNL     1     -10.960   6.407  67.764  1.00  0.00    -0.425 C  
HETATM    7  C   UNL     1     -10.147   5.419  68.149  1.00  0.00    -0.220 C  
HETATM    8  C   UNL     1      -9.732   4.276  67.293  1.00  0.00    -0.216 C  
HETATM    9  C   UNL     1      -9.473   5.810  69.450  1.00  0.00    -0.130 C  
HETATM   10  C   UNL     1     -10.044   7.540  71.716  1.00  0.00    -0.205 C  
HETATM   11  C   UNL     1      -9.662   7.610  69.490  1.00  0.00    -0.168 C  
HETATM   12  C   UNL     1     -10.805   9.158  70.198  1.00  0.00    -0.240 C  
HETATM   13  C   UNL     1      -8.750   8.752  71.534  1.00  0.00    -0.274 C  
HETATM   14  O   UNL     1      -8.502   7.651  68.552  1.00  0.00    -0.128 OA 
HETATM   15  H   UNL     1      -7.722   7.667  69.093  1.00  0.00     0.000 HD 
HETATM   16  C   UNL     1     -11.530   9.193  71.637  1.00  0.00    -0.451 C  
HETATM   17  O   UNL     1     -10.414  10.545  70.111  1.00  0.00    -0.438 OA 
HETATM   18  C   UNL     1      -7.026   7.001  71.233  1.00  0.00    -0.061 C  
HETATM   19  C   UNL     1     -11.251   7.068  70.350  1.00  0.00    -0.299 C  
HETATM   20  C   UNL     1      -6.077   9.202  71.668  1.00  0.00    -0.067 C  
HETATM   21  H   UNL     1     -10.945  11.262  70.439  1.00  0.00     0.000 HD 
HETATM   22  C   UNL     1      -7.294   8.481  71.087  1.00  0.00    -0.080 C  
HETATM   23  O   UNL     1     -12.340   6.527  70.597  1.00  0.00    -0.277 OA 
HETATM   24  C   UNL     1     -11.043   8.302  72.496  1.00  0.00    -0.439 C  
ENDROOT
BRANCH   9  25
HETATM   25  O   UNL     1      -9.874   4.956  70.540  1.00  0.00    -0.191 OA 
BRANCH  25  26
HETATM   26  C   UNL     1      -8.862   4.211  71.078  1.00  0.00    -0.094 C  
HETATM   27  O   UNL     1      -8.385   4.393  72.191  1.00  0.00    -0.104 OA 
BRANCH  26  28
HETATM   28  C   UNL     1      -8.424   3.059  70.232  1.00  0.00    -0.097 C  
HETATM   29  C   UNL     1      -6.085   3.808  69.461  1.00  0.00    -0.027 C  
HETATM   30  C   UNL     1      -7.267   2.913  69.556  1.00  0.00    -0.044 C  
HETATM   31  C   UNL     1      -9.394   1.897  70.219  1.00  0.00    -0.172 C  
ENDBRANCH  26  28
ENDBRANCH  25  26
ENDBRANCH   9  25
BRANCH  16  32
HETATM   32  C   UNL     1     -12.744  10.024  71.908  1.00  0.00    -0.398 C  
HETATM   33  H   UNL     1     -14.145  10.832  70.829  1.00  0.00     0.000 HD 
HETATM   34  O   UNL     1     -13.374  10.305  70.657  1.00  0.00    -0.311 OA 
ENDBRANCH  16  32
TORSDOF 4
ENDMDL
MODEL       31
REMARK 921   NORMALIZED FREE ENERGY PREDICTED BY IDOCK:   -5.33 KCAL/MOL
REMARK 922        TOTAL FREE ENERGY PREDICTED BY IDOCK:   -7.71 KCAL/MOL
REMARK 923 INTER-LIGAND FREE ENERGY PREDICTED BY IDOCK:   -6.46 KCAL/MOL
REMARK 924 INTRA-LIGAND FREE ENERGY PREDICTED BY IDOCK:   -1.25 KCAL/MOL
REMARK 927      BINDING AFFINITY PREDICTED BY RF-SCORE:    0.00 PKD
ROOT
HETATM    1  C   UNL     1      -7.286   7.200  66.812  1.00  0.00    -0.084 C  
HETATM    2  C   UNL     1      -6.483   8.016  68.089  1.00  0.00    -0.055 C  
HETATM    3  C   UNL     1      -7.301   9.151  69.233  1.00  0.00    -0.070 C  
HETATM    4  C   UNL     1      -6.266  10.167  69.755  1.00  0.00    -0.058 C  
HETATM    5  C   UNL     1      -8.805   9.915  68.703  1.00  0.00    -0.128 C  
HETATM    6  C   UNL     1      -8.780  11.405  68.703  1.00  0.00    -0.121 C  
HETATM    7  C   UNL     1      -8.898  11.892  67.464  1.00  0.00    -0.169 C  
HETATM    8  C   UNL     1      -8.544  13.277  67.057  1.00  0.00    -0.169 C  
HETATM    9  C   UNL     1      -9.132  10.744  66.500  1.00  0.00    -0.165 C  
HETATM   10  C   UNL     1     -10.251   8.063  66.603  1.00  0.00    -0.315 C  
HETATM   11  C   UNL     1      -8.549   9.302  67.425  1.00  0.00    -0.122 C  
HETATM   12  C   UNL     1      -9.119   7.745  68.633  1.00  0.00    -0.136 C  
HETATM   13  C   UNL     1      -8.799   7.090  66.257  1.00  0.00    -0.164 C  
HETATM   14  O   UNL     1      -7.176   9.726  67.025  1.00  0.00    -0.089 OA 
HETATM   15  H   UNL     1      -7.007   9.322  66.183  1.00  0.00     0.000 HD 
HETATM   16  C   UNL     1     -10.498   6.922  68.497  1.00  0.00    -0.229 C  
HETATM   17  O   UNL     1      -8.245   6.656  68.998  1.00  0.00    -0.115 OA 
HETATM   18  C   UNL     1      -8.192   8.515  64.325  1.00  0.00    -0.147 C  
HETATM   19  C   UNL     1     -10.356   9.361  67.963  1.00  0.00    -0.220 C  
HETATM   20  C   UNL     1      -6.957   6.416  64.381  1.00  0.00    -0.047 C  
HETATM   21  H   UNL     1      -8.509   5.935  69.558  1.00  0.00     0.000 HD 
HETATM   22  C   UNL     1      -7.672   7.445  65.257  1.00  0.00    -0.113 C  
HETATM   23  O   UNL     1     -11.444   9.741  68.422  1.00  0.00    -0.001 OA 
HETATM   24  C   UNL     1     -11.092   7.078  67.317  1.00  0.00    -0.302 C  
ENDROOT
BRANCH   9  25
HETATM   25  O   UNL     1     -10.438  10.811  65.894  1.00  0.00    -0.252 OA 
BRANCH  25  26
HETATM   26  C   UNL     1     -10.496  11.565  64.755  1.00  0.00    -0.299 C  
HETATM   27  O   UNL     1      -9.592  11.647  63.933  1.00  0.00    -0.224 OA 
BRANCH  26  28
HETATM   28  C   UNL     1     -11.813  12.230  64.519  1.00  0.00    -0.441 C  
HETATM   29  C   UNL     1     -11.999  13.806  66.545  1.00  0.00    -0.470 C  
HETATM   30  C   UNL     1     -12.430  13.154  65.281  1.00  0.00    -0.550 C  
HETATM   31  C   UNL     1     -12.471  11.849  63.210  1.00  0.00    -0.506 C  
ENDBRANCH  26  28
ENDBRANCH  25  26
ENDBRANCH   9  25
BRANCH  16  32
HETATM   32  C   UNL     1     -11.126   6.205  69.650  1.00  0.00    -0.419 C  
HETATM   33  H   UNL     1     -10.790   4.544  70.603  1.00  0.00     0.000 HD 
HETATM   34  O   UNL     1     -10.392   4.999  69.870  1.00  0.00    -0.279 OA 
ENDBRANCH  16  32
TORSDOF 4
ENDMDL
MODEL       32
REMARK 921   NORMALIZED FREE ENERGY PREDICTED BY IDOCK:   -5.29 KCAL/MOL
REMARK 922        TOTAL FREE ENERGY PREDICTED BY IDOCK:   -7.65 KCAL/MOL
REMARK 923 INTER-LIGAND FREE ENERGY PREDICTED BY IDOCK:   -6.55 KCAL/MOL
REMARK 924 INTRA-LIGAND FREE ENERGY PREDICTED BY IDOCK:   -1.11 KCAL/MOL
REMARK 927      BINDING AFFINITY PREDICTED BY RF-SCORE:    0.00 PKD
ROOT
HETATM    1  C   UNL     1     -10.112  18.231  67.651  1.00  0.00    -0.368 C  
HETATM    2  C   UNL     1     -10.689  17.692  69.174  1.00  0.00     0.149 C  
HETATM    3  C   UNL     1     -10.205  16.127  69.938  1.00  0.00    -0.146 C  
HETATM    4  C   UNL     1     -11.339  15.655  70.871  1.00  0.00    -0.417 C  
HETATM    5  C   UNL     1      -9.607  14.842  68.881  1.00  0.00    -0.215 C  
HETATM    6  C   UNL     1     -10.379  13.569  68.950  1.00  0.00    -0.109 C  
HETATM    7  C   UNL     1     -10.983  13.305  67.788  1.00  0.00    -0.278 C  
HETATM    8  C   UNL     1     -12.108  12.349  67.611  1.00  0.00    -0.076 C  
HETATM    9  C   UNL     1     -10.571  14.348  66.766  1.00  0.00    -0.282 C  
HETATM   10  C   UNL     1      -8.304  16.109  66.308  1.00  0.00    -0.322 C  
HETATM   11  C   UNL     1      -9.962  15.711  67.790  1.00  0.00    -0.223 C  
HETATM   12  C   UNL     1      -8.291  16.575  68.607  1.00  0.00    -0.235 C  
HETATM   13  C   UNL     1      -9.075  17.699  66.534  1.00  0.00    -0.284 C  
HETATM   14  O   UNL     1     -11.397  16.069  67.990  1.00  0.00    -0.340 OA 
HETATM   15  H   UNL     1     -11.631  16.642  67.270  1.00  0.00     0.000 HD 
HETATM   16  C   UNL     1      -6.845  16.650  67.898  1.00  0.00    -0.158 C  
HETATM   17  O   UNL     1      -8.292  17.868  69.248  1.00  0.00     0.044 OA 
HETATM   18  C   UNL     1     -10.972  17.091  65.064  1.00  0.00     0.010 C  
HETATM   19  C   UNL     1      -8.383  14.707  67.562  1.00  0.00    -0.190 C  
HETATM   20  C   UNL     1     -10.858  19.480  65.526  1.00  0.00    -0.247 C  
HETATM   21  H   UNL     1      -7.517  18.268  69.627  1.00  0.00     0.000 HD 
HETATM   22  C   UNL     1     -10.499  18.102  66.083  1.00  0.00    -0.377 C  
HETATM   23  O   UNL     1      -7.555  13.782  67.562  1.00  0.00    -0.163 OA 
HETATM   24  C   UNL     1      -6.888  16.435  66.586  1.00  0.00    -0.087 C  
ENDROOT
BRANCH   9  25
HETATM   25  O   UNL     1      -9.803  13.773  65.692  1.00  0.00    -0.268 OA 
BRANCH  25  26
HETATM   26  C   UNL     1     -10.551  13.147  64.733  1.00  0.00    -0.372 C  
HETATM   27  O   UNL     1     -11.542  13.632  64.203  1.00  0.00    -0.383 OA 
BRANCH  26  28
HETATM   28  C   UNL     1     -10.009  11.827  64.288  1.00  0.00    -0.287 C  
HETATM   29  C   UNL     1      -8.861  10.961  66.423  1.00  0.00    -0.178 C  
HETATM   30  C   UNL     1      -9.297  10.933  65.003  1.00  0.00    -0.260 C  
HETATM   31  C   UNL     1     -10.394  11.446  62.875  1.00  0.00    -0.159 C  
ENDBRANCH  26  28
ENDBRANCH  25  26
ENDBRANCH   9  25
BRANCH  16  32
HETATM   32  C   UNL     1      -5.572  16.772  68.675  1.00  0.00    -0.123 C  
HETATM   33  H   UNL     1      -5.056  16.572  70.538  1.00  0.00     0.000 HD 
HETATM   34  O   UNL     1      -5.864  16.495  70.045  1.00  0.00    -0.203 OA 
ENDBRANCH  16  32
TORSDOF 4
ENDMDL
MODEL       33
REMARK 921   NORMALIZED FREE ENERGY PREDICTED BY IDOCK:   -5.28 KCAL/MOL
REMARK 922        TOTAL FREE ENERGY PREDICTED BY IDOCK:   -7.64 KCAL/MOL
REMARK 923 INTER-LIGAND FREE ENERGY PREDICTED BY IDOCK:   -6.39 KCAL/MOL
REMARK 924 INTRA-LIGAND FREE ENERGY PREDICTED BY IDOCK:   -1.25 KCAL/MOL
REMARK 927      BINDING AFFINITY PREDICTED BY RF-SCORE:    0.00 PKD
ROOT
HETATM    1  C   UNL     1      -6.515  11.040  68.102  1.00  0.00    -0.057 C  
HETATM    2  C   UNL     1      -6.423   9.749  69.228  1.00  0.00    -0.048 C  
HETATM    3  C   UNL     1      -7.647   8.425  69.346  1.00  0.00    -0.091 C  
HETATM    4  C   UNL     1      -7.654   7.879  70.788  1.00  0.00    -0.078 C  
HETATM    5  C   UNL     1      -9.271   8.745  68.725  1.00  0.00    -0.141 C  
HETATM    6  C   UNL     1     -10.364   8.582  69.726  1.00  0.00    -0.212 C  
HETATM    7  C   UNL     1     -10.972   9.747  69.974  1.00  0.00    -0.319 C  
HETATM    8  C   UNL     1     -11.826  10.025  71.157  1.00  0.00    -0.481 C  
HETATM    9  C   UNL     1     -10.402  10.809  69.053  1.00  0.00    -0.215 C  
HETATM   10  C   UNL     1      -9.125  10.913  66.444  1.00  0.00    -0.188 C  
HETATM   11  C   UNL     1      -8.822  10.099  68.530  1.00  0.00    -0.127 C  
HETATM   12  C   UNL     1      -7.872   9.029  67.060  1.00  0.00    -0.098 C  
HETATM   13  C   UNL     1      -7.499  11.480  66.899  1.00  0.00    -0.145 C  
HETATM   14  O   UNL     1      -8.294  10.559  69.847  1.00  0.00    -0.377 OA 
HETATM   15  H   UNL     1      -7.997  11.452  69.718  1.00  0.00     0.000 HD 
HETATM   16  C   UNL     1      -8.181   9.143  65.483  1.00  0.00    -0.124 C  
HETATM   17  O   UNL     1      -6.440   8.857  66.995  1.00  0.00    -0.059 OA 
HETATM   18  C   UNL     1      -8.424  13.285  68.318  1.00  0.00    -0.160 C  
HETATM   19  C   UNL     1      -9.975   9.414  67.203  1.00  0.00    -0.204 C  
HETATM   20  C   UNL     1      -6.047  13.561  67.862  1.00  0.00    -0.152 C  
HETATM   21  H   UNL     1      -6.000   8.361  66.314  1.00  0.00     0.000 HD 
HETATM   22  C   UNL     1      -7.162  12.522  67.992  1.00  0.00    -0.105 C  
HETATM   23  O   UNL     1     -10.907   8.829  66.629  1.00  0.00    -0.079 OA 
HETATM   24  C   UNL     1      -8.846  10.247  65.153  1.00  0.00    -0.205 C  
ENDROOT
BRANCH   9  25
HETATM   25  O   UNL     1     -11.388  11.297  68.123  1.00  0.00    -0.254 OA 
BRANCH  25  26
HETATM   26  C   UNL     1     -11.835  12.563  68.382  1.00  0.00    -0.304 C  
HETATM   27  O   UNL     1     -12.130  12.977  69.496  1.00  0.00    -0.293 OA 
BRANCH  26  28
HETATM   28  C   UNL     1     -11.850  13.471  67.196  1.00  0.00    -0.430 C  
HETATM   29  C   UNL     1     -11.383  15.768  68.259  1.00  0.00    -0.354 C  
HETATM   30  C   UNL     1     -11.671  14.806  67.164  1.00  0.00    -0.351 C  
HETATM   31  C   UNL     1     -12.014  12.754  65.872  1.00  0.00    -0.506 C  
ENDBRANCH  26  28
ENDBRANCH  25  26
ENDBRANCH   9  25
BRANCH  16  32
HETATM   32  C   UNL     1      -7.901   8.029  64.523  1.00  0.00    -0.138 C  
HETATM   33  H   UNL     1      -7.555   6.122  64.670  1.00  0.00     0.000 HD 
HETATM   34  O   UNL     1      -7.733   6.829  65.279  1.00  0.00    -0.092 OA 
ENDBRANCH  16  32
TORSDOF 4
ENDMDL
MODEL       34
REMARK 921   NORMALIZED FREE ENERGY PREDICTED BY IDOCK:   -5.25 KCAL/MOL
REMARK 922        TOTAL FREE ENERGY PREDICTED BY IDOCK:   -7.60 KCAL/MOL
REMARK 923 INTER-LIGAND FREE ENERGY PREDICTED BY IDOCK:   -6.32 KCAL/MOL
REMARK 924 INTRA-LIGAND FREE ENERGY PREDICTED BY IDOCK:   -1.29 KCAL/MOL
REMARK 927      BINDING AFFINITY PREDICTED BY RF-SCORE:    0.00 PKD
ROOT
HETATM    1  C   UNL     1      -9.277   9.346  66.266  1.00  0.00    -0.229 C  
HETATM    2  C   UNL     1      -7.590   9.088  66.096  1.00  0.00    -0.095 C  
HETATM    3  C   UNL     1      -6.709   7.678  66.804  1.00  0.00    -0.066 C  
HETATM    4  C   UNL     1      -5.242   8.081  67.058  1.00  0.00    -0.032 C  
HETATM    5  C   UNL     1      -7.444   6.856  68.187  1.00  0.00    -0.099 C  
HETATM    6  C   UNL     1      -6.594   6.815  69.411  1.00  0.00    -0.048 C  
HETATM    7  C   UNL     1      -7.146   7.516  70.407  1.00  0.00    -0.059 C  
HETATM    8  C   UNL     1      -6.422   7.995  71.613  1.00  0.00    -0.043 C  
HETATM    9  C   UNL     1      -8.510   8.012  69.967  1.00  0.00    -0.129 C  
HETATM   10  C   UNL     1     -10.573   7.204  68.085  1.00  0.00    -0.241 C  
HETATM   11  C   UNL     1      -8.427   7.907  68.162  1.00  0.00    -0.124 C  
HETATM   12  C   UNL     1      -8.877   6.749  66.530  1.00  0.00    -0.143 C  
HETATM   13  C   UNL     1     -10.521   8.567  66.939  1.00  0.00    -0.345 C  
HETATM   14  O   UNL     1      -7.669   9.191  68.223  1.00  0.00    -0.090 OA 
HETATM   15  H   UNL     1      -8.318   9.884  68.206  1.00  0.00     0.000 HD 
HETATM   16  C   UNL     1     -10.190   5.826  66.381  1.00  0.00    -0.192 C  
HETATM   17  O   UNL     1      -8.777   7.215  65.167  1.00  0.00    -0.350 OA 
HETATM   18  C   UNL     1     -10.568  10.230  68.772  1.00  0.00    -0.231 C  
HETATM   19  C   UNL     1      -9.071   6.186  68.588  1.00  0.00    -0.125 C  
HETATM   20  C   UNL     1     -11.023  11.211  66.589  1.00  0.00    -0.289 C  
HETATM   21  H   UNL     1      -8.985   6.678  64.411  1.00  0.00     0.000 HD 
HETATM   22  C   UNL     1     -10.307  10.058  67.294  1.00  0.00    -0.293 C  
HETATM   23  O   UNL     1      -9.183   5.048  69.069  1.00  0.00    -0.104 OA 
HETATM   24  C   UNL     1     -11.157   6.140  67.239  1.00  0.00    -0.334 C  
ENDROOT
BRANCH   9  25
HETATM   25  O   UNL     1      -9.572   7.417  70.738  1.00  0.00    -0.170 OA 
BRANCH  25  26
HETATM   26  C   UNL     1     -10.161   8.262  71.638  1.00  0.00    -0.215 C  
HETATM   27  O   UNL     1      -9.594   9.205  72.175  1.00  0.00    -0.276 OA 
BRANCH  26  28
HETATM   28  C   UNL     1     -11.617   8.012  71.861  1.00  0.00    -0.348 C  
HETATM   29  C   UNL     1     -12.617  10.373  71.633  1.00  0.00    -0.521 C  
HETATM   30  C   UNL     1     -12.626   8.906  71.866  1.00  0.00    -0.439 C  
HETATM   31  C   UNL     1     -11.976   6.550  72.020  1.00  0.00    -0.372 C  
ENDBRANCH  26  28
ENDBRANCH  25  26
ENDBRANCH   9  25
BRANCH  16  32
HETATM   32  C   UNL     1     -10.235   4.627  65.488  1.00  0.00    -0.195 C  
HETATM   33  H   UNL     1      -8.920   3.449  64.674  1.00  0.00     0.000 HD 
HETATM   34  O   UNL     1      -8.892   4.211  65.241  1.00  0.00    -0.121 OA 
ENDBRANCH  16  32
TORSDOF 4
ENDMDL
MODEL       35
REMARK 921   NORMALIZED FREE ENERGY PREDICTED BY IDOCK:   -5.24 KCAL/MOL
REMARK 922        TOTAL FREE ENERGY PREDICTED BY IDOCK:   -7.59 KCAL/MOL
REMARK 923 INTER-LIGAND FREE ENERGY PREDICTED BY IDOCK:   -6.25 KCAL/MOL
REMARK 924 INTRA-LIGAND FREE ENERGY PREDICTED BY IDOCK:   -1.34 KCAL/MOL
REMARK 927      BINDING AFFINITY PREDICTED BY RF-SCORE:    0.00 PKD
ROOT
HETATM    1  C   UNL     1     -10.784   8.361  70.145  1.00  0.00    -0.238 C  
HETATM    2  C   UNL     1     -10.905   7.152  68.933  1.00  0.00    -0.160 C  
HETATM    3  C   UNL     1      -9.749   6.990  67.553  1.00  0.00    -0.167 C  
HETATM    4  C   UNL     1     -10.477   6.325  66.367  1.00  0.00    -0.065 C  
HETATM    5  C   UNL     1      -8.827   8.421  67.076  1.00  0.00    -0.146 C  
HETATM    6  C   UNL     1      -9.015   8.839  65.657  1.00  0.00    -0.248 C  
HETATM    7  C   UNL     1      -9.606  10.036  65.579  1.00  0.00    -0.328 C  
HETATM    8  C   UNL     1     -10.271  10.579  64.366  1.00  0.00    -0.337 C  
HETATM    9  C   UNL     1      -9.771  10.600  66.978  1.00  0.00    -0.176 C  
HETATM   10  C   UNL     1      -8.465  10.325  69.560  1.00  0.00    -0.156 C  
HETATM   11  C   UNL     1      -9.631   9.136  68.033  1.00  0.00    -0.147 C  
HETATM   12  C   UNL     1      -8.352   8.013  69.178  1.00  0.00    -0.132 C  
HETATM   13  C   UNL     1      -9.769   9.563  70.506  1.00  0.00    -0.325 C  
HETATM   14  O   UNL     1     -11.053   8.863  67.671  1.00  0.00    -0.478 OA 
HETATM   15  H   UNL     1     -11.583   9.334  68.303  1.00  0.00     0.000 HD 
HETATM   16  C   UNL     1      -7.155   8.603  70.081  1.00  0.00    -0.044 C  
HETATM   17  O   UNL     1      -8.786   6.948  70.050  1.00  0.00    -0.140 OA 
HETATM   18  C   UNL     1     -11.436  11.209  69.706  1.00  0.00    -0.388 C  
HETATM   19  C   UNL     1      -7.824   9.664  67.918  1.00  0.00    -0.087 C  
HETATM   20  C   UNL     1     -12.222   9.913  71.612  1.00  0.00    -0.482 C  
HETATM   21  H   UNL     1      -8.193   6.428  70.581  1.00  0.00     0.000 HD 
HETATM   22  C   UNL     1     -11.280   9.880  70.408  1.00  0.00    -0.379 C  
HETATM   23  O   UNL     1      -6.705   9.973  67.480  1.00  0.00    -0.071 OA 
HETATM   24  C   UNL     1      -7.272   9.905  70.328  1.00  0.00    -0.160 C  
ENDROOT
BRANCH   9  25
HETATM   25  O   UNL     1      -8.979  11.786  67.176  1.00  0.00    -0.166 OA 
BRANCH  25  26
HETATM   26  C   UNL     1      -9.698  12.948  67.214  1.00  0.00    -0.220 C  
HETATM   27  O   UNL     1     -10.682  13.176  66.522  1.00  0.00    -0.276 OA 
BRANCH  26  28
HETATM   28  C   UNL     1      -9.251  13.920  68.258  1.00  0.00    -0.207 C  
HETATM   29  C   UNL     1      -6.696  13.605  68.238  1.00  0.00    -0.108 C  
HETATM   30  C   UNL     1      -7.996  14.172  68.680  1.00  0.00    -0.132 C  
HETATM   31  C   UNL     1     -10.367  14.762  68.837  1.00  0.00    -0.243 C  
ENDBRANCH  26  28
ENDBRANCH  25  26
ENDBRANCH   9  25
BRANCH  16  32
HETATM   32  C   UNL     1      -5.949   7.798  70.448  1.00  0.00    -0.030 C  
HETATM   33  H   UNL     1      -5.079   6.203  69.756  1.00  0.00     0.000 HD 
HETATM   34  O   UNL     1      -5.845   6.714  69.523  1.00  0.00    -0.014 OA 
ENDBRANCH  16  32
TORSDOF 4
ENDMDL
MODEL       36
REMARK 921   NORMALIZED FREE ENERGY PREDICTED BY IDOCK:   -5.13 KCAL/MOL
REMARK 922        TOTAL FREE ENERGY PREDICTED BY IDOCK:   -7.46 KCAL/MOL
REMARK 923 INTER-LIGAND FREE ENERGY PREDICTED BY IDOCK:   -6.08 KCAL/MOL
REMARK 924 INTRA-LIGAND FREE ENERGY PREDICTED BY IDOCK:   -1.38 KCAL/MOL
REMARK 927      BINDING AFFINITY PREDICTED BY RF-SCORE:    0.00 PKD
ROOT
HETATM    1  C   UNL     1     -10.848  12.303  66.291  1.00  0.00    -0.313 C  
HETATM    2  C   UNL     1     -11.891  12.287  67.653  1.00  0.00    -0.334 C  
HETATM    3  C   UNL     1     -11.395  11.720  69.296  1.00  0.00    -0.348 C  
HETATM    4  C   UNL     1     -12.642  11.207  70.045  1.00  0.00    -0.213 C  
HETATM    5  C   UNL     1     -10.023  10.609  69.406  1.00  0.00    -0.183 C  
HETATM    6  C   UNL     1     -10.327   9.308  70.066  1.00  0.00    -0.245 C  
HETATM    7  C   UNL     1     -10.204   8.289  69.209  1.00  0.00    -0.207 C  
HETATM    8  C   UNL     1     -10.777   6.933  69.411  1.00  0.00    -0.275 C  
HETATM    9  C   UNL     1      -9.681   8.816  67.886  1.00  0.00    -0.157 C  
HETATM   10  C   UNL     1      -8.092  11.066  66.960  1.00  0.00    -0.136 C  
HETATM   11  C   UNL     1     -10.056  10.584  67.967  1.00  0.00    -0.165 C  
HETATM   12  C   UNL     1      -9.304  12.436  68.428  1.00  0.00    -0.158 C  
HETATM   13  C   UNL     1      -9.303  11.945  65.993  1.00  0.00    -0.215 C  
HETATM   14  O   UNL     1     -11.448  10.204  67.586  1.00  0.00    -0.562 OA 
HETATM   15  H   UNL     1     -11.469  10.188  66.637  1.00  0.00     0.000 HD 
HETATM   16  C   UNL     1      -7.788  12.914  68.160  1.00  0.00    -0.147 C  
HETATM   17  O   UNL     1      -9.984  13.673  68.128  1.00  0.00    -0.232 OA 
HETATM   18  C   UNL     1     -10.008   9.877  64.828  1.00  0.00    -0.132 C  
HETATM   19  C   UNL     1      -8.342  10.549  68.753  1.00  0.00    -0.136 C  
HETATM   20  C   UNL     1     -10.827  11.901  63.748  1.00  0.00    -0.481 C  
HETATM   21  H   UNL     1      -9.635  14.530  68.342  1.00  0.00     0.000 HD 
HETATM   22  C   UNL     1     -10.391  11.315  65.091  1.00  0.00    -0.353 C  
HETATM   23  O   UNL     1      -7.385  10.289  69.499  1.00  0.00    -0.100 OA 
HETATM   24  C   UNL     1      -7.140  12.152  67.283  1.00  0.00    -0.144 C  
ENDROOT
BRANCH   9  25
HETATM   25  O   UNL     1      -8.367   8.306  67.587  1.00  0.00    -0.124 OA 
BRANCH  25  26
HETATM   26  C   UNL     1      -8.342   7.325  66.635  1.00  0.00    -0.121 C  
HETATM   27  O   UNL     1      -9.339   6.779  66.179  1.00  0.00    -0.144 OA 
BRANCH  26  28
HETATM   28  C   UNL     1      -6.983   7.016  66.098  1.00  0.00    -0.065 C  
HETATM   29  C   UNL     1      -6.632   8.905  64.385  1.00  0.00    -0.071 C  
HETATM   30  C   UNL     1      -6.289   7.680  65.152  1.00  0.00    -0.038 C  
HETATM   31  C   UNL     1      -6.298   5.851  66.781  1.00  0.00    -0.045 C  
ENDBRANCH  26  28
ENDBRANCH  25  26
ENDBRANCH   9  25
BRANCH  16  32
HETATM   32  C   UNL     1      -7.132  13.998  68.956  1.00  0.00    -0.106 C  
HETATM   33  H   UNL     1      -7.374  15.916  69.157  1.00  0.00     0.000 HD 
HETATM   34  O   UNL     1      -7.790  15.228  68.652  1.00  0.00    -0.127 OA 
ENDBRANCH  16  32
TORSDOF 4
ENDMDL
MODEL       37
REMARK 921   NORMALIZED FREE ENERGY PREDICTED BY IDOCK:   -5.09 KCAL/MOL
REMARK 922        TOTAL FREE ENERGY PREDICTED BY IDOCK:   -7.41 KCAL/MOL
REMARK 923 INTER-LIGAND FREE ENERGY PREDICTED BY IDOCK:   -6.35 KCAL/MOL
REMARK 924 INTRA-LIGAND FREE ENERGY PREDICTED BY IDOCK:   -1.05 KCAL/MOL
REMARK 927      BINDING AFFINITY PREDICTED BY RF-SCORE:    0.00 PKD
ROOT
HETATM    1  C   UNL     1      -7.478  10.804  67.852  1.00  0.00    -0.090 C  
HETATM    2  C   UNL     1      -8.345   9.559  68.653  1.00  0.00    -0.117 C  
HETATM    3  C   UNL     1     -10.138   9.353  68.551  1.00  0.00    -0.208 C  
HETATM    4  C   UNL     1     -10.633   8.651  69.832  1.00  0.00    -0.227 C  
HETATM    5  C   UNL     1     -11.108  10.768  68.124  1.00  0.00    -0.337 C  
HETATM    6  C   UNL     1     -12.141  11.142  69.132  1.00  0.00    -0.352 C  
HETATM    7  C   UNL     1     -11.880  12.336  69.673  1.00  0.00    -0.393 C  
HETATM    8  C   UNL     1     -12.466  12.842  70.942  1.00  0.00    -0.373 C  
HETATM    9  C   UNL     1     -10.676  12.943  68.978  1.00  0.00    -0.092 C  
HETATM   10  C   UNL     1      -9.385  12.748  66.381  1.00  0.00    -0.196 C  
HETATM   11  C   UNL     1      -9.879  11.512  68.208  1.00  0.00    -0.203 C  
HETATM   12  C   UNL     1      -9.700  10.425  66.478  1.00  0.00    -0.194 C  
HETATM   13  C   UNL     1      -7.828  12.016  66.845  1.00  0.00    -0.095 C  
HETATM   14  O   UNL     1      -9.309  11.230  69.557  1.00  0.00    -0.341 OA 
HETATM   15  H   UNL     1      -8.498  11.720  69.612  1.00  0.00     0.000 HD 
HETATM   16  C   UNL     1      -9.709  11.043  64.989  1.00  0.00    -0.303 C  
HETATM   17  O   UNL     1      -8.715   9.388  66.283  1.00  0.00    -0.134 OA 
HETATM   18  C   UNL     1      -7.511  13.638  68.689  1.00  0.00    -0.113 C  
HETATM   19  C   UNL     1     -11.067  12.035  66.839  1.00  0.00    -0.302 C  
HETATM   20  C   UNL     1      -5.481  12.402  68.153  1.00  0.00    -0.064 C  
HETATM   21  H   UNL     1      -8.633   8.885  65.481  1.00  0.00     0.000 HD 
HETATM   22  C   UNL     1      -7.009  12.332  68.119  1.00  0.00    -0.087 C  
HETATM   23  O   UNL     1     -12.096  12.330  66.211  1.00  0.00    -0.626 OA 
HETATM   24  C   UNL     1      -9.475  12.352  64.958  1.00  0.00     0.182 C  
ENDROOT
BRANCH   9  25
HETATM   25  O   UNL     1     -11.023  14.135  68.247  1.00  0.00    -0.239 OA 
BRANCH  25  26
HETATM   26  C   UNL     1     -10.459  15.282  68.732  1.00  0.00    -0.237 C  
HETATM   27  O   UNL     1     -10.287  15.518  69.921  1.00  0.00    -0.288 OA 
BRANCH  26  28
HETATM   28  C   UNL     1      -9.962  16.221  67.682  1.00  0.00    -0.247 C  
HETATM   29  C   UNL     1      -8.012  17.398  68.880  1.00  0.00    -0.187 C  
HETATM   30  C   UNL     1      -8.948  17.104  67.764  1.00  0.00    -0.226 C  
HETATM   31  C   UNL     1     -10.661  16.080  66.346  1.00  0.00    -0.232 C  
ENDBRANCH  26  28
ENDBRANCH  25  26
ENDBRANCH   9  25
BRANCH  16  32
HETATM   32  C   UNL     1     -10.118  10.248  63.789  1.00  0.00     0.111 C  
HETATM   33  H   UNL     1     -10.617  10.656  61.955  1.00  0.00     0.000 HD 
HETATM   34  O   UNL     1     -10.358  11.161  62.717  1.00  0.00    -0.144 OA 
ENDBRANCH  16  32
TORSDOF 4
ENDMDL
MODEL       38
REMARK 921   NORMALIZED FREE ENERGY PREDICTED BY IDOCK:   -5.08 KCAL/MOL
REMARK 922        TOTAL FREE ENERGY PREDICTED BY IDOCK:   -7.40 KCAL/MOL
REMARK 923 INTER-LIGAND FREE ENERGY PREDICTED BY IDOCK:   -6.36 KCAL/MOL
REMARK 924 INTRA-LIGAND FREE ENERGY PREDICTED BY IDOCK:   -1.03 KCAL/MOL
REMARK 927      BINDING AFFINITY PREDICTED BY RF-SCORE:    0.00 PKD
ROOT
HETATM    1  C   UNL     1      -8.890   5.041  68.705  1.00  0.00    -0.111 C  
HETATM    2  C   UNL     1      -7.344   5.477  69.307  1.00  0.00    -0.070 C  
HETATM    3  C   UNL     1      -7.063   6.821  70.482  1.00  0.00    -0.068 C  
HETATM    4  C   UNL     1      -5.634   7.366  70.285  1.00  0.00    -0.024 C  
HETATM    5  C   UNL     1      -8.278   8.102  70.577  1.00  0.00    -0.117 C  
HETATM    6  C   UNL     1      -7.761   9.473  70.307  1.00  0.00    -0.170 C  
HETATM    7  C   UNL     1      -8.300   9.985  69.196  1.00  0.00    -0.146 C  
HETATM    8  C   UNL     1      -7.753  11.141  68.438  1.00  0.00    -0.125 C  
HETATM    9  C   UNL     1      -9.345   9.023  68.664  1.00  0.00    -0.136 C  
HETATM   10  C   UNL     1     -11.090   6.959  69.733  1.00  0.00    -0.316 C  
HETATM   11  C   UNL     1      -8.904   7.455  69.453  1.00  0.00    -0.137 C  
HETATM   12  C   UNL     1      -9.290   6.211  71.038  1.00  0.00    -0.164 C  
HETATM   13  C   UNL     1     -10.416   5.516  68.935  1.00  0.00    -0.282 C  
HETATM   14  O   UNL     1      -7.853   7.337  68.401  1.00  0.00    -0.117 OA 
HETATM   15  H   UNL     1      -8.265   6.910  67.659  1.00  0.00     0.000 HD 
HETATM   16  C   UNL     1     -10.741   5.970  71.695  1.00  0.00    -0.303 C  
HETATM   17  O   UNL     1      -8.771   4.869  71.145  1.00  0.00    -0.121 OA 
HETATM   18  C   UNL     1     -10.400   6.632  66.725  1.00  0.00    -0.280 C  
HETATM   19  C   UNL     1     -10.074   8.183  70.740  1.00  0.00    -0.189 C  
HETATM   20  C   UNL     1     -10.080   4.222  66.573  1.00  0.00    -0.155 C  
HETATM   21  H   UNL     1      -8.950   4.293  71.879  1.00  0.00     0.000 HD 
HETATM   22  C   UNL     1      -9.882   5.434  67.485  1.00  0.00    -0.173 C  
HETATM   23  O   UNL     1     -10.598   8.939  71.574  1.00  0.00    -0.272 OA 
HETATM   24  C   UNL     1     -11.747   6.354  70.913  1.00  0.00    -0.366 C  
ENDROOT
BRANCH   9  25
HETATM   25  O   UNL     1     -10.671   9.584  68.723  1.00  0.00    -0.222 OA 
BRANCH  25  26
HETATM   26  C   UNL     1     -10.984  10.409  67.679  1.00  0.00    -0.312 C  
HETATM   27  O   UNL     1     -10.821  10.124  66.499  1.00  0.00    -0.108 OA 
BRANCH  26  28
HETATM   28  C   UNL     1     -11.650  11.686  68.076  1.00  0.00    -0.383 C  
HETATM   29  C   UNL     1     -11.475  13.086  65.923  1.00  0.00    -0.374 C  
HETATM   30  C   UNL     1     -11.836  12.796  67.335  1.00  0.00    -0.404 C  
HETATM   31  C   UNL     1     -12.246  11.665  69.468  1.00  0.00    -0.257 C  
ENDBRANCH  26  28
ENDBRANCH  25  26
ENDBRANCH   9  25
BRANCH  16  32
HETATM   32  C   UNL     1     -10.920   5.527  73.113  1.00  0.00    -0.293 C  
HETATM   33  H   UNL     1      -9.922   5.727  74.769  1.00  0.00     0.000 HD 
HETATM   34  O   UNL     1      -9.808   6.008  73.869  1.00  0.00    -0.164 OA 
ENDBRANCH  16  32
TORSDOF 4
ENDMDL
MODEL       39
REMARK 921   NORMALIZED FREE ENERGY PREDICTED BY IDOCK:   -5.00 KCAL/MOL
REMARK 922        TOTAL FREE ENERGY PREDICTED BY IDOCK:   -7.30 KCAL/MOL
REMARK 923 INTER-LIGAND FREE ENERGY PREDICTED BY IDOCK:   -6.05 KCAL/MOL
REMARK 924 INTRA-LIGAND FREE ENERGY PREDICTED BY IDOCK:   -1.24 KCAL/MOL
REMARK 927      BINDING AFFINITY PREDICTED BY RF-SCORE:    0.00 PKD
ROOT
HETATM    1  C   UNL     1      -8.463   8.784  66.204  1.00  0.00    -0.138 C  
HETATM    2  C   UNL     1      -6.971   8.619  67.035  1.00  0.00    -0.074 C  
HETATM    3  C   UNL     1      -6.669   7.398  68.332  1.00  0.00    -0.054 C  
HETATM    4  C   UNL     1      -5.577   7.934  69.279  1.00  0.00    -0.027 C  
HETATM    5  C   UNL     1      -8.069   6.749  69.196  1.00  0.00    -0.120 C  
HETATM    6  C   UNL     1      -8.039   6.955  70.672  1.00  0.00    -0.118 C  
HETATM    7  C   UNL     1      -9.030   7.760  71.069  1.00  0.00    -0.147 C  
HETATM    8  C   UNL     1      -9.080   8.467  72.376  1.00  0.00    -0.326 C  
HETATM    9  C   UNL     1      -9.909   8.089  69.877  1.00  0.00    -0.186 C  
HETATM   10  C   UNL     1     -10.609   6.863  67.336  1.00  0.00    -0.373 C  
HETATM   11  C   UNL     1      -8.844   7.714  68.462  1.00  0.00    -0.130 C  
HETATM   12  C   UNL     1      -8.349   6.292  67.070  1.00  0.00    -0.109 C  
HETATM   13  C   UNL     1      -9.893   8.034  66.201  1.00  0.00    -0.057 C  
HETATM   14  O   UNL     1      -8.210   9.041  68.716  1.00  0.00    -0.114 OA 
HETATM   15  H   UNL     1      -8.721   9.677  68.231  1.00  0.00     0.000 HD 
HETATM   16  C   UNL     1      -9.387   5.270  66.379  1.00  0.00    -0.153 C  
HETATM   17  O   UNL     1      -7.499   6.549  65.932  1.00  0.00    -0.078 OA 
HETATM   18  C   UNL     1     -10.898   9.952  67.401  1.00  0.00    -0.293 C  
HETATM   19  C   UNL     1      -9.665   6.039  68.742  1.00  0.00    -0.131 C  
HETATM   20  C   UNL     1     -10.042  10.553  65.201  1.00  0.00    -0.383 C  
HETATM   21  H   UNL     1      -7.270   5.890  65.287  1.00  0.00     0.000 HD 
HETATM   22  C   UNL     1      -9.869   9.573  66.362  1.00  0.00    -0.320 C  
HETATM   23  O   UNL     1     -10.057   4.983  69.263  1.00  0.00    -0.204 OA 
HETATM   24  C   UNL     1     -10.657   5.645  66.499  1.00  0.00    -0.320 C  
ENDROOT
BRANCH   9  25
HETATM   25  O   UNL     1     -11.236   7.548  70.024  1.00  0.00    -0.243 OA 
BRANCH  25  26
HETATM   26  C   UNL     1     -12.034   8.234  70.897  1.00  0.00    -0.180 C  
HETATM   27  O   UNL     1     -12.077   9.455  70.981  1.00  0.00    -0.293 OA 
BRANCH  26  28
HETATM   28  C   UNL     1     -12.952   7.375  71.703  1.00  0.00    -0.409 C  
HETATM   29  C   UNL     1     -11.361   5.555  72.588  1.00  0.00    -0.346 C  
HETATM   30  C   UNL     1     -12.657   6.255  72.393  1.00  0.00     0.074 C  
HETATM   31  C   UNL     1     -14.369   7.902  71.797  1.00  0.00    -0.589 C  
ENDBRANCH  26  28
ENDBRANCH  25  26
ENDBRANCH   9  25
BRANCH  16  32
HETATM   32  C   UNL     1      -8.964   3.947  65.821  1.00  0.00    -0.131 C  
HETATM   33  H   UNL     1      -7.527   2.686  66.170  1.00  0.00     0.000 HD 
HETATM   34  O   UNL     1      -7.795   3.526  66.524  1.00  0.00    -0.083 OA 
ENDBRANCH  16  32
TORSDOF 4
ENDMDL
MODEL       40
REMARK 921   NORMALIZED FREE ENERGY PREDICTED BY IDOCK:   -4.99 KCAL/MOL
REMARK 922        TOTAL FREE ENERGY PREDICTED BY IDOCK:   -7.28 KCAL/MOL
REMARK 923 INTER-LIGAND FREE ENERGY PREDICTED BY IDOCK:   -7.10 KCAL/MOL
REMARK 924 INTRA-LIGAND FREE ENERGY PREDICTED BY IDOCK:   -0.19 KCAL/MOL
REMARK 927      BINDING AFFINITY PREDICTED BY RF-SCORE:    0.00 PKD
ROOT
HETATM    1  C   UNL     1     -10.236  14.982  65.293  1.00  0.00    -0.409 C  
HETATM    2  C   UNL     1     -10.608  16.590  65.760  1.00  0.00    -0.307 C  
HETATM    3  C   UNL     1     -10.263  17.269  67.398  1.00  0.00    -0.325 C  
HETATM    4  C   UNL     1     -11.271  18.398  67.694  1.00  0.00     0.260 C  
HETATM    5  C   UNL     1     -10.090  16.134  68.743  1.00  0.00    -0.237 C  
HETATM    6  C   UNL     1     -11.039  16.356  69.871  1.00  0.00    -0.313 C  
HETATM    7  C   UNL     1     -11.880  15.326  70.006  1.00  0.00    -0.365 C  
HETATM    8  C   UNL     1     -13.161  15.367  70.758  1.00  0.00    -0.440 C  
HETATM    9  C   UNL     1     -11.490  14.236  69.026  1.00  0.00    -0.284 C  
HETATM   10  C   UNL     1      -9.082  13.353  67.658  1.00  0.00    -0.203 C  
HETATM   11  C   UNL     1     -10.487  15.117  67.805  1.00  0.00    -0.247 C  
HETATM   12  C   UNL     1      -8.574  15.606  67.248  1.00  0.00    -0.192 C  
HETATM   13  C   UNL     1      -9.522  13.700  65.967  1.00  0.00    -0.113 C  
HETATM   14  O   UNL     1     -11.781  15.572  67.217  1.00  0.00    -0.110 OA 
HETATM   15  H   UNL     1     -12.043  14.901  66.598  1.00  0.00     0.000 HD 
HETATM   16  C   UNL     1      -7.290  14.645  67.400  1.00  0.00    -0.195 C  
HETATM   17  O   UNL     1      -8.242  16.224  65.986  1.00  0.00    -0.263 OA 
HETATM   18  C   UNL     1     -11.729  12.607  66.220  1.00  0.00    -0.460 C  
HETATM   19  C   UNL     1      -9.166  14.615  69.053  1.00  0.00    -0.108 C  
HETATM   20  C   UNL     1     -11.134  13.016  63.894  1.00  0.00    -0.411 C  
HETATM   21  H   UNL     1      -7.356  16.451  65.729  1.00  0.00     0.000 HD 
HETATM   22  C   UNL     1     -10.917  13.512  65.324  1.00  0.00    -0.303 C  
HETATM   23  O   UNL     1      -8.519  14.474  70.103  1.00  0.00     0.656 OA 
HETATM   24  C   UNL     1      -7.605  13.365  67.578  1.00  0.00    -0.176 C  
ENDROOT
BRANCH   9  25
HETATM   25  O   UNL     1     -11.038  13.045  69.699  1.00  0.00    -0.080 OA 
BRANCH  25  26
HETATM   26  C   UNL     1     -11.889  11.979  69.599  1.00  0.00    -0.333 C  
HETATM   27  O   UNL     1     -12.336  11.549  68.544  1.00  0.00    -0.459 OA 
BRANCH  26  28
HETATM   28  C   UNL     1     -12.173  11.289  70.894  1.00  0.00    -0.460 C  
HETATM   29  C   UNL     1     -10.697   9.187  70.727  1.00  0.00    -0.327 C  
HETATM   30  C   UNL     1     -11.676  10.120  71.343  1.00  0.00    -0.373 C  
HETATM   31  C   UNL     1     -13.078  12.069  71.824  1.00  0.00    -0.460 C  
ENDBRANCH  26  28
ENDBRANCH  25  26
ENDBRANCH   9  25
BRANCH  16  32
HETATM   32  C   UNL     1      -5.895  15.176  67.508  1.00  0.00     0.038 C  
HETATM   33  H   UNL     1      -4.670  15.581  68.962  1.00  0.00     0.000 HD 
HETATM   34  O   UNL     1      -5.555  15.244  68.894  1.00  0.00    -0.096 OA 
ENDBRANCH  16  32
TORSDOF 4
ENDMDL
MODEL       41
REMARK 921   NORMALIZED FREE ENERGY PREDICTED BY IDOCK:   -4.98 KCAL/MOL
REMARK 922        TOTAL FREE ENERGY PREDICTED BY IDOCK:   -7.28 KCAL/MOL
REMARK 923 INTER-LIGAND FREE ENERGY PREDICTED BY IDOCK:   -6.11 KCAL/MOL
REMARK 924 INTRA-LIGAND FREE ENERGY PREDICTED BY IDOCK:   -1.17 KCAL/MOL
REMARK 927      BINDING AFFINITY PREDICTED BY RF-SCORE:    0.00 PKD
ROOT
HETATM    1  C   UNL     1      -8.193   6.410  67.519  1.00  0.00    -0.117 C  
HETATM    2  C   UNL     1      -6.738   7.289  67.284  1.00  0.00    -0.068 C  
HETATM    3  C   UNL     1      -6.131   8.556  68.420  1.00  0.00    -0.050 C  
HETATM    4  C   UNL     1      -5.263   9.558  67.633  1.00  0.00    -0.037 C  
HETATM    5  C   UNL     1      -7.307   9.349  69.476  1.00  0.00    -0.073 C  
HETATM    6  C   UNL     1      -7.375  10.831  69.331  1.00  0.00    -0.128 C  
HETATM    7  C   UNL     1      -8.565  11.217  68.859  1.00  0.00    -0.092 C  
HETATM    8  C   UNL     1      -8.849  12.543  68.251  1.00  0.00    -0.171 C  
HETATM    9  C   UNL     1      -9.471  10.006  68.747  1.00  0.00    -0.162 C  
HETATM   10  C   UNL     1      -9.726   7.404  70.017  1.00  0.00    -0.175 C  
HETATM   11  C   UNL     1      -8.308   8.619  68.744  1.00  0.00    -0.121 C  
HETATM   12  C   UNL     1      -7.391   7.200  69.907  1.00  0.00    -0.084 C  
HETATM   13  C   UNL     1      -9.347   6.332  68.644  1.00  0.00    -0.122 C  
HETATM   14  O   UNL     1      -8.088   8.937  67.303  1.00  0.00    -0.103 OA 
HETATM   15  H   UNL     1      -8.748   8.455  66.820  1.00  0.00     0.000 HD 
HETATM   16  C   UNL     1      -8.074   6.441  71.154  1.00  0.00    -0.117 C  
HETATM   17  O   UNL     1      -6.622   6.102  69.372  1.00  0.00    -0.041 OA 
HETATM   18  C   UNL     1     -10.891   7.556  67.144  1.00  0.00    -0.298 C  
HETATM   19  C   UNL     1      -8.621   8.815  70.593  1.00  0.00    -0.178 C  
HETATM   20  C   UNL     1     -10.187   5.409  66.235  1.00  0.00    -0.234 C  
HETATM   21  H   UNL     1      -6.197   5.445  69.911  1.00  0.00     0.000 HD 
HETATM   22  C   UNL     1      -9.770   6.543  67.171  1.00  0.00    -0.176 C  
HETATM   23  O   UNL     1      -8.706   9.288  71.738  1.00  0.00    -0.288 OA 
HETATM   24  C   UNL     1      -9.402   6.526  71.163  1.00  0.00    -0.167 C  
ENDROOT
BRANCH   9  25
HETATM   25  O   UNL     1     -10.591  10.088  69.649  1.00  0.00    -0.217 OA 
BRANCH  25  26
HETATM   26  C   UNL     1     -11.605  10.899  69.222  1.00  0.00    -0.318 C  
HETATM   27  O   UNL     1     -12.024  10.935  68.073  1.00  0.00    -0.586 OA 
BRANCH  26  28
HETATM   28  C   UNL     1     -12.257  11.698  70.304  1.00  0.00    -0.401 C  
HETATM   29  C   UNL     1     -13.115   9.865  71.894  1.00  0.00    -0.559 C  
HETATM   30  C   UNL     1     -12.891  11.249  71.405  1.00  0.00    -0.515 C  
HETATM   31  C   UNL     1     -12.096  13.195  70.149  1.00  0.00    -0.392 C  
ENDBRANCH  26  28
ENDBRANCH  25  26
ENDBRANCH   9  25
BRANCH  16  32
HETATM   32  C   UNL     1      -7.276   5.856  72.277  1.00  0.00    -0.089 C  
HETATM   33  H   UNL     1      -5.393   5.778  72.750  1.00  0.00     0.000 HD 
HETATM   34  O   UNL     1      -5.899   6.149  72.038  1.00  0.00    -0.034 OA 
ENDBRANCH  16  32
TORSDOF 4
ENDMDL
MODEL       42
REMARK 921   NORMALIZED FREE ENERGY PREDICTED BY IDOCK:   -4.98 KCAL/MOL
REMARK 922        TOTAL FREE ENERGY PREDICTED BY IDOCK:   -7.28 KCAL/MOL
REMARK 923 INTER-LIGAND FREE ENERGY PREDICTED BY IDOCK:   -6.26 KCAL/MOL
REMARK 924 INTRA-LIGAND FREE ENERGY PREDICTED BY IDOCK:   -1.02 KCAL/MOL
REMARK 927      BINDING AFFINITY PREDICTED BY RF-SCORE:    0.00 PKD
ROOT
HETATM    1  C   UNL     1      -7.361   5.462  71.335  1.00  0.00    -0.080 C  
HETATM    2  C   UNL     1      -8.614   4.957  72.392  1.00  0.00    -0.123 C  
HETATM    3  C   UNL     1     -10.355   4.861  71.917  1.00  0.00    -0.259 C  
HETATM    4  C   UNL     1     -11.228   5.048  73.175  1.00  0.00    -0.408 C  
HETATM    5  C   UNL     1     -10.895   5.851  70.554  1.00  0.00    -0.366 C  
HETATM    6  C   UNL     1     -11.995   6.804  70.874  1.00  0.00    -0.437 C  
HETATM    7  C   UNL     1     -11.589   8.071  70.749  1.00  0.00    -0.251 C  
HETATM    8  C   UNL     1     -12.283   9.249  71.334  1.00  0.00    -0.426 C  
HETATM    9  C   UNL     1     -10.172   8.087  70.210  1.00  0.00    -0.200 C  
HETATM   10  C   UNL     1      -8.481   6.360  68.595  1.00  0.00    -0.123 C  
HETATM   11  C   UNL     1      -9.572   6.419  70.573  1.00  0.00    -0.165 C  
HETATM   12  C   UNL     1      -9.307   4.533  69.812  1.00  0.00    -0.153 C  
HETATM   13  C   UNL     1      -7.239   5.910  69.789  1.00  0.00    -0.070 C  
HETATM   14  O   UNL     1      -9.347   6.911  71.963  1.00  0.00    -0.142 OA 
HETATM   15  H   UNL     1      -8.475   7.285  71.975  1.00  0.00     0.000 HD 
HETATM   16  C   UNL     1      -8.896   4.196  68.290  1.00  0.00    -0.133 C  
HETATM   17  O   UNL     1      -8.552   3.500  70.480  1.00  0.00    -0.066 OA 
HETATM   18  C   UNL     1      -6.936   8.263  70.498  1.00  0.00    -0.037 C  
HETATM   19  C   UNL     1     -10.333   6.159  68.867  1.00  0.00    -0.208 C  
HETATM   20  C   UNL     1      -5.160   6.797  71.291  1.00  0.00    -0.023 C  
HETATM   21  H   UNL     1      -8.429   2.626  70.128  1.00  0.00     0.000 HD 
HETATM   22  C   UNL     1      -6.630   6.832  70.873  1.00  0.00    -0.053 C  
HETATM   23  O   UNL     1     -11.134   6.119  67.919  1.00  0.00    -0.328 OA 
HETATM   24  C   UNL     1      -8.381   5.235  67.639  1.00  0.00    -0.106 C  
ENDROOT
BRANCH   9  25
HETATM   25  O   UNL     1     -10.104   8.676  68.896  1.00  0.00    -0.191 OA 
BRANCH  25  26
HETATM   26  C   UNL     1      -9.896  10.027  68.890  1.00  0.00    -0.184 C  
HETATM   27  O   UNL     1      -9.044  10.598  69.559  1.00  0.00    -0.111 OA 
BRANCH  26  28
HETATM   28  C   UNL     1     -10.738  10.779  67.911  1.00  0.00    -0.282 C  
HETATM   29  C   UNL     1     -11.855  12.555  69.403  1.00  0.00    -0.368 C  
HETATM   30  C   UNL     1     -11.557  11.824  68.144  1.00  0.00    -0.391 C  
HETATM   31  C   UNL     1     -10.563  10.333  66.475  1.00  0.00    -0.202 C  
ENDBRANCH  26  28
ENDBRANCH  25  26
ENDBRANCH   9  25
BRANCH  16  32
HETATM   32  C   UNL     1      -9.230   2.893  67.635  1.00  0.00    -0.201 C  
HETATM   33  H   UNL     1      -9.863   1.156  68.236  1.00  0.00     0.000 HD 
HETATM   34  O   UNL     1      -9.651   1.983  68.652  1.00  0.00    -0.170 OA 
ENDBRANCH  16  32
TORSDOF 4
ENDMDL
MODEL       43
REMARK 921   NORMALIZED FREE ENERGY PREDICTED BY IDOCK:   -4.97 KCAL/MOL
REMARK 922        TOTAL FREE ENERGY PREDICTED BY IDOCK:   -7.26 KCAL/MOL
REMARK 923 INTER-LIGAND FREE ENERGY PREDICTED BY IDOCK:   -6.39 KCAL/MOL
REMARK 924 INTRA-LIGAND FREE ENERGY PREDICTED BY IDOCK:   -0.87 KCAL/MOL
REMARK 927      BINDING AFFINITY PREDICTED BY RF-SCORE:    0.00 PKD
ROOT
HETATM    1  C   UNL     1      -9.507  12.434  67.497  1.00  0.00    -0.187 C  
HETATM    2  C   UNL     1      -7.940  12.630  68.170  1.00  0.00    -0.158 C  
HETATM    3  C   UNL     1      -6.795  11.264  68.471  1.00  0.00    -0.071 C  
HETATM    4  C   UNL     1      -5.855  11.648  69.632  1.00  0.00    -0.091 C  
HETATM    5  C   UNL     1      -7.474   9.641  68.646  1.00  0.00    -0.075 C  
HETATM    6  C   UNL     1      -7.155   8.968  69.937  1.00  0.00    -0.053 C  
HETATM    7  C   UNL     1      -8.259   8.765  70.663  1.00  0.00    -0.159 C  
HETATM    8  C   UNL     1      -8.278   8.472  72.120  1.00  0.00    -0.175 C  
HETATM    9  C   UNL     1      -9.470   9.192  69.854  1.00  0.00    -0.186 C  
HETATM   10  C   UNL     1     -10.182   9.448  67.048  1.00  0.00    -0.322 C  
HETATM   11  C   UNL     1      -8.762  10.282  68.595  1.00  0.00    -0.133 C  
HETATM   12  C   UNL     1      -8.065  10.383  66.668  1.00  0.00    -0.122 C  
HETATM   13  C   UNL     1     -10.393  11.213  66.924  1.00  0.00    -0.272 C  
HETATM   14  O   UNL     1      -8.749  11.333  69.655  1.00  0.00    -0.145 OA 
HETATM   15  H   UNL     1      -9.598  11.755  69.621  1.00  0.00     0.000 HD 
HETATM   16  C   UNL     1      -8.673   9.568  65.418  1.00  0.00    -0.190 C  
HETATM   17  O   UNL     1      -7.751  11.621  65.996  1.00  0.00    -0.367 OA 
HETATM   18  C   UNL     1     -11.799  11.280  68.961  1.00  0.00    -0.421 C  
HETATM   19  C   UNL     1      -8.638   8.612  67.728  1.00  0.00    -0.136 C  
HETATM   20  C   UNL     1     -11.912  13.337  67.662  1.00  0.00    -0.366 C  
HETATM   21  H   UNL     1      -7.428  11.668  65.103  1.00  0.00     0.000 HD 
HETATM   22  C   UNL     1     -11.021  12.140  67.992  1.00  0.00    -0.271 C  
HETATM   23  O   UNL     1      -8.363   7.431  67.463  1.00  0.00    -0.112 OA 
HETATM   24  C   UNL     1      -9.896   9.094  65.640  1.00  0.00    -0.164 C  
ENDROOT
BRANCH   9  25
HETATM   25  O   UNL     1     -10.323   8.076  69.535  1.00  0.00    -0.212 OA 
BRANCH  25  26
HETATM   26  C   UNL     1     -11.157   7.692  70.548  1.00  0.00    -0.255 C  
HETATM   27  O   UNL     1     -12.119   8.343  70.936  1.00  0.00    -0.253 OA 
BRANCH  26  28
HETATM   28  C   UNL     1     -10.869   6.338  71.109  1.00  0.00    -0.320 C  
HETATM   29  C   UNL     1      -9.718   5.162  69.129  1.00  0.00    -0.232 C  
HETATM   30  C   UNL     1     -10.278   5.291  70.499  1.00  0.00    -0.334 C  
HETATM   31  C   UNL     1     -11.230   6.184  72.571  1.00  0.00    -0.327 C  
ENDBRANCH  26  28
ENDBRANCH  25  26
ENDBRANCH   9  25
BRANCH  16  32
HETATM   32  C   UNL     1      -7.865   9.233  64.205  1.00  0.00    -0.125 C  
HETATM   33  H   UNL     1      -7.415  10.133  62.542  1.00  0.00     0.000 HD 
HETATM   34  O   UNL     1      -7.928  10.346  63.312  1.00  0.00    -0.154 OA 
ENDBRANCH  16  32
TORSDOF 4
ENDMDL
MODEL       44
REMARK 921   NORMALIZED FREE ENERGY PREDICTED BY IDOCK:   -4.96 KCAL/MOL
REMARK 922        TOTAL FREE ENERGY PREDICTED BY IDOCK:   -7.25 KCAL/MOL
REMARK 923 INTER-LIGAND FREE ENERGY PREDICTED BY IDOCK:   -6.42 KCAL/MOL
REMARK 924 INTRA-LIGAND FREE ENERGY PREDICTED BY IDOCK:   -0.84 KCAL/MOL
REMARK 927      BINDING AFFINITY PREDICTED BY RF-SCORE:    0.00 PKD
ROOT
HETATM    1  C   UNL     1     -10.164  11.314  66.695  1.00  0.00    -0.268 C  
HETATM    2  C   UNL     1     -11.342  11.565  67.917  1.00  0.00    -0.372 C  
HETATM    3  C   UNL     1     -11.142  11.037  69.633  1.00  0.00    -0.320 C  
HETATM    4  C   UNL     1     -12.536  10.791  70.246  1.00  0.00    -0.395 C  
HETATM    5  C   UNL     1     -10.005   9.725  69.966  1.00  0.00    -0.299 C  
HETATM    6  C   UNL     1     -10.602   8.540  70.645  1.00  0.00    -0.241 C  
HETATM    7  C   UNL     1     -10.560   7.459  69.860  1.00  0.00    -0.245 C  
HETATM    8  C   UNL     1     -11.378   6.233  70.055  1.00  0.00    -0.486 C  
HETATM    9  C   UNL     1      -9.807   7.799  68.588  1.00  0.00    -0.169 C  
HETATM   10  C   UNL     1      -7.757   9.686  67.759  1.00  0.00    -0.094 C  
HETATM   11  C   UNL     1      -9.877   9.607  68.537  1.00  0.00    -0.157 C  
HETATM   12  C   UNL     1      -8.874  11.335  68.998  1.00  0.00     0.038 C  
HETATM   13  C   UNL     1      -8.680  10.685  66.608  1.00  0.00    -0.144 C  
HETATM   14  O   UNL     1     -11.261   9.438  68.006  1.00  0.00    -0.515 OA 
HETATM   15  H   UNL     1     -11.177   9.360  67.063  1.00  0.00     0.000 HD 
HETATM   16  C   UNL     1      -7.278  11.536  68.897  1.00  0.00    -0.117 C  
HETATM   17  O   UNL     1      -9.291  12.644  68.557  1.00  0.00    -0.337 OA 
HETATM   18  C   UNL     1      -9.595   8.688  65.466  1.00  0.00     0.078 C  
HETATM   19  C   UNL     1      -8.296   9.342  69.530  1.00  0.00    -0.131 C  
HETATM   20  C   UNL     1      -9.924  10.741  64.196  1.00  0.00    -0.405 C  
HETATM   21  H   UNL     1      -8.826  13.445  68.771  1.00  0.00     0.000 HD 
HETATM   22  C   UNL     1      -9.751  10.184  65.610  1.00  0.00    -0.322 C  
HETATM   23  O   UNL     1      -7.489   8.978  70.400  1.00  0.00    -0.065 OA 
HETATM   24  C   UNL     1      -6.676  10.619  68.145  1.00  0.00    -0.064 C  
ENDROOT
BRANCH   9  25
HETATM   25  O   UNL     1      -8.575   7.059  68.479  1.00  0.00    -0.123 OA 
BRANCH  25  26
HETATM   26  C   UNL     1      -8.493   6.255  67.377  1.00  0.00    -0.108 C  
HETATM   27  O   UNL     1      -7.694   6.414  66.463  1.00  0.00    -0.096 OA 
BRANCH  26  28
HETATM   28  C   UNL     1      -9.405   5.071  67.404  1.00  0.00    -0.138 C  
HETATM   29  C   UNL     1      -8.387   3.641  69.286  1.00  0.00    -0.086 C  
HETATM   30  C   UNL     1      -9.339   3.985  68.200  1.00  0.00    -0.218 C  
HETATM   31  C   UNL     1     -10.583   5.178  66.459  1.00  0.00    -0.320 C  
ENDBRANCH  26  28
ENDBRANCH  25  26
ENDBRANCH   9  25
BRANCH  16  32
HETATM   32  C   UNL     1      -6.539  12.548  69.715  1.00  0.00     0.057 C  
HETATM   33  H   UNL     1      -5.539  12.526  71.382  1.00  0.00     0.000 HD 
HETATM   34  O   UNL     1      -6.008  11.884  70.863  1.00  0.00    -0.356 OA 
ENDBRANCH  16  32
TORSDOF 4
ENDMDL
MODEL       45
REMARK 921   NORMALIZED FREE ENERGY PREDICTED BY IDOCK:   -4.95 KCAL/MOL
REMARK 922        TOTAL FREE ENERGY PREDICTED BY IDOCK:   -7.24 KCAL/MOL
REMARK 923 INTER-LIGAND FREE ENERGY PREDICTED BY IDOCK:   -6.22 KCAL/MOL
REMARK 924 INTRA-LIGAND FREE ENERGY PREDICTED BY IDOCK:   -1.02 KCAL/MOL
REMARK 927      BINDING AFFINITY PREDICTED BY RF-SCORE:    0.00 PKD
ROOT
HETATM    1  C   UNL     1      -7.322   9.855  69.259  1.00  0.00    -0.084 C  
HETATM    2  C   UNL     1      -8.815   9.289  69.889  1.00  0.00    -0.196 C  
HETATM    3  C   UNL     1     -10.380   9.361  68.989  1.00  0.00    -0.224 C  
HETATM    4  C   UNL     1     -11.538   9.429  70.005  1.00  0.00    -0.046 C  
HETATM    5  C   UNL     1     -10.534  10.553  67.692  1.00  0.00    -0.276 C  
HETATM    6  C   UNL     1     -11.656  11.519  67.864  1.00  0.00    -0.352 C  
HETATM    7  C   UNL     1     -11.202  12.765  68.027  1.00  0.00    -0.310 C  
HETATM    8  C   UNL     1     -11.993  13.893  68.585  1.00  0.00    -0.401 C  
HETATM    9  C   UNL     1      -9.694  12.769  67.862  1.00  0.00    -0.217 C  
HETATM   10  C   UNL     1      -7.691  11.176  66.484  1.00  0.00    -0.146 C  
HETATM   11  C   UNL     1      -9.246  11.035  68.119  1.00  0.00    -0.165 C  
HETATM   12  C   UNL     1      -8.841   9.254  67.184  1.00  0.00    -0.127 C  
HETATM   13  C   UNL     1      -6.803  10.498  67.872  1.00  0.00    -0.069 C  
HETATM   14  O   UNL     1      -9.368  11.323  69.577  1.00  0.00    -0.341 OA 
HETATM   15  H   UNL     1      -8.519  11.641  69.858  1.00  0.00     0.000 HD 
HETATM   16  C   UNL     1      -8.066   9.099  65.779  1.00  0.00    -0.112 C  
HETATM   17  O   UNL     1      -8.304   8.099  67.863  1.00  0.00    -0.126 OA 
HETATM   18  C   UNL     1      -6.633  12.713  68.964  1.00  0.00    -0.100 C  
HETATM   19  C   UNL     1      -9.556  11.049  66.258  1.00  0.00    -0.201 C  
HETATM   20  C   UNL     1      -5.151  11.053  69.953  1.00  0.00    -0.043 C  
HETATM   21  H   UNL     1      -8.117   7.274  67.430  1.00  0.00     0.000 HD 
HETATM   22  C   UNL     1      -6.467  11.229  69.193  1.00  0.00    -0.081 C  
HETATM   23  O   UNL     1     -10.091  11.184  65.147  1.00  0.00    -0.248 OA 
HETATM   24  C   UNL     1      -7.379  10.184  65.432  1.00  0.00    -0.144 C  
ENDROOT
BRANCH   9  25
HETATM   25  O   UNL     1      -9.282  13.522  66.705  1.00  0.00    -0.248 OA 
BRANCH  25  26
HETATM   26  C   UNL     1      -8.958  14.825  66.962  1.00  0.00    -0.238 C  
HETATM   27  O   UNL     1      -7.880  15.193  67.413  1.00  0.00    -0.165 OA 
BRANCH  26  28
HETATM   28  C   UNL     1     -10.000  15.816  66.556  1.00  0.00    -0.283 C  
HETATM   29  C   UNL     1     -10.086  17.385  68.594  1.00  0.00    -0.355 C  
HETATM   30  C   UNL     1     -10.466  16.870  67.254  1.00  0.00    -0.301 C  
HETATM   31  C   UNL     1     -10.519  15.623  65.147  1.00  0.00    -0.417 C  
ENDBRANCH  26  28
ENDBRANCH  25  26
ENDBRANCH   9  25
BRANCH  16  32
HETATM   32  C   UNL     1      -8.254   7.918  64.881  1.00  0.00    -0.124 C  
HETATM   33  H   UNL     1      -7.615   6.082  64.847  1.00  0.00     0.000 HD 
HETATM   34  O   UNL     1      -7.495   6.833  65.417  1.00  0.00    -0.076 OA 
ENDBRANCH  16  32
TORSDOF 4
ENDMDL
MODEL       46
REMARK 921   NORMALIZED FREE ENERGY PREDICTED BY IDOCK:   -4.94 KCAL/MOL
REMARK 922        TOTAL FREE ENERGY PREDICTED BY IDOCK:   -7.22 KCAL/MOL
REMARK 923 INTER-LIGAND FREE ENERGY PREDICTED BY IDOCK:   -6.01 KCAL/MOL
REMARK 924 INTRA-LIGAND FREE ENERGY PREDICTED BY IDOCK:   -1.21 KCAL/MOL
REMARK 927      BINDING AFFINITY PREDICTED BY RF-SCORE:    0.00 PKD
ROOT
HETATM    1  C   UNL     1      -9.804   7.278  73.593  1.00  0.00    -0.353 C  
HETATM    2  C   UNL     1     -11.406   7.601  73.070  1.00  0.00    -0.334 C  
HETATM    3  C   UNL     1     -12.206   6.749  71.692  1.00  0.00    -0.410 C  
HETATM    4  C   UNL     1     -13.273   7.680  71.080  1.00  0.00    -0.190 C  
HETATM    5  C   UNL     1     -11.170   5.998  70.471  1.00  0.00    -0.363 C  
HETATM    6  C   UNL     1     -11.389   6.489  69.081  1.00  0.00    -0.330 C  
HETATM    7  C   UNL     1     -10.309   7.127  68.617  1.00  0.00    -0.200 C  
HETATM    8  C   UNL     1     -10.301   8.047  67.450  1.00  0.00    -0.354 C  
HETATM    9  C   UNL     1      -9.194   7.022  69.640  1.00  0.00    -0.146 C  
HETATM   10  C   UNL     1      -8.411   5.203  71.768  1.00  0.00    -0.125 C  
HETATM   11  C   UNL     1     -10.072   6.614  71.169  1.00  0.00    -0.182 C  
HETATM   12  C   UNL     1     -10.667   5.086  72.401  1.00  0.00    -0.200 C  
HETATM   13  C   UNL     1      -8.622   6.255  73.190  1.00  0.00    -0.120 C  
HETATM   14  O   UNL     1     -10.393   8.068  71.254  1.00  0.00    -0.191 OA 
HETATM   15  H   UNL     1      -9.668   8.474  71.715  1.00  0.00     0.000 HD 
HETATM   16  C   UNL     1      -9.815   3.751  72.702  1.00  0.00    -0.210 C  
HETATM   17  O   UNL     1     -11.230   5.291  73.714  1.00  0.00    -0.427 OA 
HETATM   18  C   UNL     1      -7.385   8.111  72.115  1.00  0.00    -0.117 C  
HETATM   19  C   UNL     1      -9.746   4.890  70.477  1.00  0.00    -0.204 C  
HETATM   20  C   UNL     1      -7.696   8.440  74.508  1.00  0.00    -0.276 C  
HETATM   21  H   UNL     1     -11.506   4.583  74.285  1.00  0.00     0.000 HD 
HETATM   22  C   UNL     1      -8.293   7.765  73.272  1.00  0.00    -0.215 C  
HETATM   23  O   UNL     1      -9.716   3.897  69.733  1.00  0.00    -0.205 OA 
HETATM   24  C   UNL     1      -8.528   3.863  72.384  1.00  0.00    -0.101 C  
ENDROOT
BRANCH   9  25
HETATM   25  O   UNL     1      -8.083   6.250  69.144  1.00  0.00    -0.107 OA 
BRANCH  25  26
HETATM   26  C   UNL     1      -7.214   6.950  68.354  1.00  0.00    -0.088 C  
HETATM   27  O   UNL     1      -6.798   8.073  68.610  1.00  0.00    -0.063 OA 
BRANCH  26  28
HETATM   28  C   UNL     1      -6.710   6.195  67.167  1.00  0.00    -0.057 C  
HETATM   29  C   UNL     1      -7.457   7.693  65.212  1.00  0.00    -0.083 C  
HETATM   30  C   UNL     1      -6.831   6.514  65.863  1.00  0.00    -0.053 C  
HETATM   31  C   UNL     1      -5.903   4.963  67.515  1.00  0.00    -0.022 C  
ENDBRANCH  26  28
ENDBRANCH  25  26
ENDBRANCH   9  25
BRANCH  16  32
HETATM   32  C   UNL     1     -10.452   2.467  73.128  1.00  0.00    -0.144 C  
HETATM   33  H   UNL     1     -11.145   1.744  74.794  1.00  0.00     0.000 HD 
HETATM   34  O   UNL     1     -10.740   2.560  74.524  1.00  0.00    -0.141 OA 
ENDBRANCH  16  32
TORSDOF 4
ENDMDL
MODEL       47
REMARK 921   NORMALIZED FREE ENERGY PREDICTED BY IDOCK:   -4.87 KCAL/MOL
REMARK 922        TOTAL FREE ENERGY PREDICTED BY IDOCK:   -7.14 KCAL/MOL
REMARK 923 INTER-LIGAND FREE ENERGY PREDICTED BY IDOCK:   -6.03 KCAL/MOL
REMARK 924 INTRA-LIGAND FREE ENERGY PREDICTED BY IDOCK:   -1.11 KCAL/MOL
REMARK 927      BINDING AFFINITY PREDICTED BY RF-SCORE:    0.00 PKD
ROOT
HETATM    1  C   UNL     1     -10.918  12.328  68.298  1.00  0.00    -0.268 C  
HETATM    2  C   UNL     1      -9.757  13.576  68.497  1.00  0.00    -0.168 C  
HETATM    3  C   UNL     1      -8.166  13.618  67.642  1.00  0.00    -0.178 C  
HETATM    4  C   UNL     1      -7.159  14.410  68.499  1.00  0.00    -0.109 C  
HETATM    5  C   UNL     1      -7.507  12.088  67.048  1.00  0.00    -0.106 C  
HETATM    6  C   UNL     1      -6.160  11.740  67.584  1.00  0.00    -0.072 C  
HETATM    7  C   UNL     1      -6.208  10.638  68.339  1.00  0.00    -0.050 C  
HETATM    8  C   UNL     1      -5.162  10.227  69.311  1.00  0.00    -0.038 C  
HETATM    9  C   UNL     1      -7.611  10.063  68.288  1.00  0.00    -0.084 C  
HETATM   10  C   UNL     1      -9.862  10.082  66.450  1.00  0.00    -0.283 C  
HETATM   11  C   UNL     1      -8.612  11.463  67.728  1.00  0.00    -0.129 C  
HETATM   12  C   UNL     1      -9.463  12.366  66.095  1.00  0.00    -0.199 C  
HETATM   13  C   UNL     1     -11.059  10.988  67.409  1.00  0.00    -0.370 C  
HETATM   14  O   UNL     1      -8.556  11.939  69.142  1.00  0.00    -0.349 OA 
HETATM   15  H   UNL     1      -9.285  11.527  69.590  1.00  0.00     0.000 HD 
HETATM   16  C   UNL     1     -10.096  11.592  64.832  1.00  0.00    -0.314 C  
HETATM   17  O   UNL     1     -10.406  13.455  66.185  1.00  0.00    -0.282 OA 
HETATM   18  C   UNL     1     -10.627   9.610  69.420  1.00  0.00    -0.243 C  
HETATM   19  C   UNL     1      -8.122  10.696  66.077  1.00  0.00    -0.159 C  
HETATM   20  C   UNL     1     -12.655  10.947  69.604  1.00  0.00    -0.075 C  
HETATM   21  H   UNL     1     -10.800  13.873  65.428  1.00  0.00     0.000 HD 
HETATM   22  C   UNL     1     -11.281  10.884  68.937  1.00  0.00    -0.327 C  
HETATM   23  O   UNL     1      -7.459  10.248  65.128  1.00  0.00    -0.139 OA 
HETATM   24  C   UNL     1     -10.363  10.311  65.076  1.00  0.00    -0.174 C  
ENDROOT
BRANCH   9  25
HETATM   25  O   UNL     1      -7.639   8.774  67.646  1.00  0.00    -0.095 OA 
BRANCH  25  26
HETATM   26  C   UNL     1      -7.948   7.733  68.478  1.00  0.00    -0.122 C  
HETATM   27  O   UNL     1      -7.563   7.635  69.636  1.00  0.00    -0.089 OA 
BRANCH  26  28
HETATM   28  C   UNL     1      -8.897   6.736  67.896  1.00  0.00    -0.118 C  
HETATM   29  C   UNL     1     -10.453   6.239  69.886  1.00  0.00    -0.284 C  
HETATM   30  C   UNL     1      -9.929   6.115  68.501  1.00  0.00    -0.173 C  
HETATM   31  C   UNL     1      -8.690   6.474  66.419  1.00  0.00    -0.142 C  
ENDBRANCH  26  28
ENDBRANCH  25  26
ENDBRANCH   9  25
BRANCH  16  32
HETATM   32  C   UNL     1     -10.202  12.213  63.475  1.00  0.00    -0.424 C  
HETATM   33  H   UNL     1     -11.642  12.926  62.381  1.00  0.00     0.000 HD 
HETATM   34  O   UNL     1     -11.575  12.531  63.242  1.00  0.00    -0.468 OA 
ENDBRANCH  16  32
TORSDOF 4
ENDMDL
MODEL       48
REMARK 921   NORMALIZED FREE ENERGY PREDICTED BY IDOCK:   -4.86 KCAL/MOL
REMARK 922        TOTAL FREE ENERGY PREDICTED BY IDOCK:   -7.13 KCAL/MOL
REMARK 923 INTER-LIGAND FREE ENERGY PREDICTED BY IDOCK:   -5.83 KCAL/MOL
REMARK 924 INTRA-LIGAND FREE ENERGY PREDICTED BY IDOCK:   -1.30 KCAL/MOL
REMARK 927      BINDING AFFINITY PREDICTED BY RF-SCORE:    0.00 PKD
ROOT
HETATM    1  C   UNL     1      -9.041   9.485  69.023  1.00  0.00    -0.144 C  
HETATM    2  C   UNL     1      -9.760   8.653  67.706  1.00  0.00    -0.202 C  
HETATM    3  C   UNL     1     -10.793   7.181  67.887  1.00  0.00    -0.219 C  
HETATM    4  C   UNL     1     -10.698   6.342  66.597  1.00  0.00    -0.286 C  
HETATM    5  C   UNL     1     -10.599   6.212  69.353  1.00  0.00    -0.349 C  
HETATM    6  C   UNL     1     -10.231   4.788  69.113  1.00  0.00    -0.124 C  
HETATM    7  C   UNL     1      -9.014   4.514  69.594  1.00  0.00    -0.146 C  
HETATM    8  C   UNL     1      -8.193   3.335  69.212  1.00  0.00    -0.076 C  
HETATM    9  C   UNL     1      -8.483   5.735  70.322  1.00  0.00    -0.128 C  
HETATM   10  C   UNL     1      -9.580   8.042  71.706  1.00  0.00    -0.231 C  
HETATM   11  C   UNL     1      -9.495   7.082  69.663  1.00  0.00    -0.147 C  
HETATM   12  C   UNL     1     -11.160   8.237  69.983  1.00  0.00    -0.147 C  
HETATM   13  C   UNL     1      -9.038   9.356  70.632  1.00  0.00    -0.292 C  
HETATM   14  O   UNL     1      -8.590   7.048  68.477  1.00  0.00    -0.123 OA 
HETATM   15  H   UNL     1      -7.862   7.622  68.681  1.00  0.00     0.000 HD 
HETATM   16  C   UNL     1     -11.672   8.746  71.423  1.00  0.00    -0.369 C  
HETATM   17  O   UNL     1     -11.482   9.409  69.204  1.00  0.00    -0.437 OA 
HETATM   18  C   UNL     1      -6.730   8.465  70.556  1.00  0.00    -0.037 C  
HETATM   19  C   UNL     1     -10.547   6.533  71.128  1.00  0.00    -0.229 C  
HETATM   20  C   UNL     1      -6.897  10.740  69.702  1.00  0.00    -0.133 C  
HETATM   21  H   UNL     1     -12.253   9.943  69.353  1.00  0.00     0.000 HD 
HETATM   22  C   UNL     1      -7.679   9.441  69.899  1.00  0.00    -0.114 C  
HETATM   23  O   UNL     1     -11.221   5.848  71.913  1.00  0.00    -0.268 OA 
HETATM   24  C   UNL     1     -10.741   8.676  72.371  1.00  0.00    -0.311 C  
ENDROOT
BRANCH   9  25
HETATM   25  O   UNL     1      -8.324   5.491  71.733  1.00  0.00    -0.117 OA 
BRANCH  25  26
HETATM   26  C   UNL     1      -7.029   5.330  72.139  1.00  0.00    -0.082 C  
HETATM   27  O   UNL     1      -6.074   5.232  71.379  1.00  0.00    -0.026 OA 
BRANCH  26  28
HETATM   28  C   UNL     1      -6.832   5.381  73.619  1.00  0.00    -0.083 C  
HETATM   29  C   UNL     1      -6.405   7.885  74.028  1.00  0.00    -0.101 C  
HETATM   30  C   UNL     1      -6.562   6.453  74.389  1.00  0.00    -0.077 C  
HETATM   31  C   UNL     1      -7.048   4.054  74.316  1.00  0.00    -0.061 C  
ENDBRANCH  26  28
ENDBRANCH  25  26
ENDBRANCH   9  25
BRANCH  16  32
HETATM   32  C   UNL     1     -13.102   9.093  71.694  1.00  0.00    -0.369 C  
HETATM   33  H   UNL     1     -14.128  10.735  71.855  1.00  0.00     0.000 HD 
HETATM   34  O   UNL     1     -13.220  10.516  71.683  1.00  0.00    -0.401 OA 
ENDBRANCH  16  32
TORSDOF 4
ENDMDL
MODEL       49
REMARK 921   NORMALIZED FREE ENERGY PREDICTED BY IDOCK:   -4.86 KCAL/MOL
REMARK 922        TOTAL FREE ENERGY PREDICTED BY IDOCK:   -7.13 KCAL/MOL
REMARK 923 INTER-LIGAND FREE ENERGY PREDICTED BY IDOCK:   -5.97 KCAL/MOL
REMARK 924 INTRA-LIGAND FREE ENERGY PREDICTED BY IDOCK:   -1.16 KCAL/MOL
REMARK 927      BINDING AFFINITY PREDICTED BY RF-SCORE:    0.00 PKD
ROOT
HETATM    1  C   UNL     1     -11.194  13.449  69.557  1.00  0.00    -0.181 C  
HETATM    2  C   UNL     1     -11.763  12.570  68.197  1.00  0.00    -0.400 C  
HETATM    3  C   UNL     1     -10.947  12.570  66.585  1.00  0.00    -0.303 C  
HETATM    4  C   UNL     1     -12.000  12.290  65.493  1.00  0.00    -0.387 C  
HETATM    5  C   UNL     1      -9.897  13.936  66.191  1.00  0.00    -0.316 C  
HETATM    6  C   UNL     1     -10.282  14.683  64.959  1.00  0.00    -0.395 C  
HETATM    7  C   UNL     1     -10.654  15.934  65.248  1.00  0.00    -0.441 C  
HETATM    8  C   UNL     1     -11.436  16.819  64.345  1.00  0.00     0.474 C  
HETATM    9  C   UNL     1     -10.439  16.186  66.728  1.00  0.00    -0.294 C  
HETATM   10  C   UNL     1      -8.723  15.169  68.842  1.00  0.00    -0.205 C  
HETATM   11  C   UNL     1     -10.358  14.518  67.424  1.00  0.00    -0.252 C  
HETATM   12  C   UNL     1      -9.100  13.008  68.011  1.00  0.00    -0.210 C  
HETATM   13  C   UNL     1      -9.931  14.394  69.898  1.00  0.00     0.548 C  
HETATM   14  O   UNL     1     -11.848  14.524  67.353  1.00  0.00    -0.389 OA 
HETATM   15  H   UNL     1     -12.152  14.908  68.167  1.00  0.00     0.000 HD 
HETATM   16  C   UNL     1      -7.664  13.217  68.712  1.00  0.00    -0.006 C  
HETATM   17  O   UNL     1      -9.537  11.842  68.741  1.00  0.00    -0.347 OA 
HETATM   18  C   UNL     1     -11.402  16.384  69.829  1.00  0.00    -0.176 C  
HETATM   19  C   UNL     1      -8.544  14.814  67.001  1.00  0.00    -0.234 C  
HETATM   20  C   UNL     1     -12.018  14.809  71.582  1.00  0.00    -0.411 C  
HETATM   21  H   UNL     1      -8.954  11.142  69.012  1.00  0.00     0.000 HD 
HETATM   22  C   UNL     1     -11.351  14.923  70.211  1.00  0.00    -0.296 C  
HETATM   23  O   UNL     1      -7.495  15.063  66.386  1.00  0.00     0.466 OA 
HETATM   24  C   UNL     1      -7.497  14.434  69.222  1.00  0.00    -0.060 C  
ENDROOT
BRANCH   9  25
HETATM   25  O   UNL     1      -9.425  17.183  66.961  1.00  0.00    -0.240 OA 
BRANCH  25  26
HETATM   26  C   UNL     1      -9.909  18.411  67.317  1.00  0.00    -0.317 C  
HETATM   27  O   UNL     1     -10.979  18.869  66.938  1.00  0.00    -0.330 OA 
BRANCH  26  28
HETATM   28  C   UNL     1      -9.065  19.147  68.307  1.00  0.00    -0.385 C  
HETATM   29  C   UNL     1      -6.729  18.156  67.876  1.00  0.00    -0.203 C  
HETATM   30  C   UNL     1      -7.743  19.019  68.534  1.00  0.00    -0.368 C  
HETATM   31  C   UNL     1      -9.809  20.215  69.080  1.00  0.00    -0.105 C  
ENDBRANCH  26  28
ENDBRANCH  25  26
ENDBRANCH   9  25
BRANCH  16  32
HETATM   32  C   UNL     1      -6.572  12.197  68.633  1.00  0.00    -0.077 C  
HETATM   33  H   UNL     1      -6.144  10.544  69.562  1.00  0.00     0.000 HD 
HETATM   34  O   UNL     1      -6.837  11.192  69.612  1.00  0.00    -0.128 OA 
ENDBRANCH  16  32
TORSDOF 4
ENDMDL
MODEL       50
REMARK 921   NORMALIZED FREE ENERGY PREDICTED BY IDOCK:   -4.86 KCAL/MOL
REMARK 922        TOTAL FREE ENERGY PREDICTED BY IDOCK:   -7.12 KCAL/MOL
REMARK 923 INTER-LIGAND FREE ENERGY PREDICTED BY IDOCK:   -6.00 KCAL/MOL
REMARK 924 INTRA-LIGAND FREE ENERGY PREDICTED BY IDOCK:   -1.13 KCAL/MOL
REMARK 927      BINDING AFFINITY PREDICTED BY RF-SCORE:    0.00 PKD
ROOT
HETATM    1  C   UNL     1     -10.894   8.402  72.170  1.00  0.00    -0.407 C  
HETATM    2  C   UNL     1     -11.357   6.923  72.908  1.00  0.00    -0.199 C  
HETATM    3  C   UNL     1     -10.282   5.476  73.024  1.00  0.00    -0.214 C  
HETATM    4  C   UNL     1     -11.157   4.208  73.092  1.00  0.00    -0.269 C  
HETATM    5  C   UNL     1      -8.958   5.335  71.861  1.00  0.00    -0.146 C  
HETATM    6  C   UNL     1      -8.984   4.094  71.035  1.00  0.00    -0.163 C  
HETATM    7  C   UNL     1      -9.179   4.377  69.743  1.00  0.00    -0.199 C  
HETATM    8  C   UNL     1      -9.625   3.399  68.716  1.00  0.00    -0.120 C  
HETATM    9  C   UNL     1      -9.189   5.883  69.560  1.00  0.00    -0.135 C  
HETATM   10  C   UNL     1      -8.076   8.205  70.908  1.00  0.00    -0.098 C  
HETATM   11  C   UNL     1      -9.522   6.499  71.229  1.00  0.00    -0.166 C  
HETATM   12  C   UNL     1      -8.668   7.216  72.951  1.00  0.00    -0.122 C  
HETATM   13  C   UNL     1      -9.567   9.000  71.473  1.00  0.00    -0.340 C  
HETATM   14  O   UNL     1     -10.953   6.175  70.955  1.00  0.00    -0.267 OA 
HETATM   15  H   UNL     1     -11.325   6.943  70.539  1.00  0.00     0.000 HD 
HETATM   16  C   UNL     1      -7.364   8.161  73.015  1.00  0.00    -0.161 C  
HETATM   17  O   UNL     1      -9.422   7.802  74.033  1.00  0.00    -0.388 OA 
HETATM   18  C   UNL     1     -10.637   8.780  69.251  1.00  0.00    -0.210 C  
HETATM   19  C   UNL     1      -7.639   6.407  71.255  1.00  0.00    -0.094 C  
HETATM   20  C   UNL     1     -11.816  10.322  70.723  1.00  0.00    -0.459 C  
HETATM   21  H   UNL     1      -9.026   8.134  74.831  1.00  0.00     0.000 HD 
HETATM   22  C   UNL     1     -10.907   9.092  70.705  1.00  0.00    -0.321 C  
HETATM   23  O   UNL     1      -6.471   5.993  71.186  1.00  0.00    -0.045 OA 
HETATM   24  C   UNL     1      -7.082   8.752  71.857  1.00  0.00    -0.057 C  
ENDROOT
BRANCH   9  25
HETATM   25  O   UNL     1      -8.076   6.335  68.766  1.00  0.00    -0.107 OA 
BRANCH  25  26
HETATM   26  C   UNL     1      -8.414   6.788  67.521  1.00  0.00    -0.121 C  
HETATM   27  O   UNL     1      -9.283   6.289  66.816  1.00  0.00    -0.129 OA 
BRANCH  26  28
HETATM   28  C   UNL     1      -7.700   8.031  67.099  1.00  0.00    -0.101 C  
HETATM   29  C   UNL     1      -9.512   9.270  65.755  1.00  0.00    -0.329 C  
HETATM   30  C   UNL     1      -8.170   9.050  66.353  1.00  0.00    -0.111 C  
HETATM   31  C   UNL     1      -6.301   8.162  67.663  1.00  0.00    -0.053 C  
ENDBRANCH  26  28
ENDBRANCH  25  26
ENDBRANCH   9  25
BRANCH  16  32
HETATM   32  C   UNL     1      -6.469   8.219  74.212  1.00  0.00    -0.125 C  
HETATM   33  H   UNL     1      -5.472   9.609  75.137  1.00  0.00     0.000 HD 
HETATM   34  O   UNL     1      -6.041   9.572  74.377  1.00  0.00    -0.342 OA 
ENDBRANCH  16  32
TORSDOF 4
ENDMDL
MODEL       51
REMARK 921   NORMALIZED FREE ENERGY PREDICTED BY IDOCK:   -4.85 KCAL/MOL
REMARK 922        TOTAL FREE ENERGY PREDICTED BY IDOCK:   -7.12 KCAL/MOL
REMARK 923 INTER-LIGAND FREE ENERGY PREDICTED BY IDOCK:   -5.64 KCAL/MOL
REMARK 924 INTRA-LIGAND FREE ENERGY PREDICTED BY IDOCK:   -1.48 KCAL/MOL
REMARK 927      BINDING AFFINITY PREDICTED BY RF-SCORE:    0.00 PKD
ROOT
HETATM    1  C   UNL     1      -6.497   7.196  70.160  1.00  0.00    -0.042 C  
HETATM    2  C   UNL     1      -6.217   5.544  70.528  1.00  0.00    -0.026 C  
HETATM    3  C   UNL     1      -7.424   4.229  70.246  1.00  0.00    -0.046 C  
HETATM    4  C   UNL     1      -7.164   3.088  71.250  1.00  0.00    -0.033 C  
HETATM    5  C   UNL     1      -9.131   4.682  70.149  1.00  0.00    -0.154 C  
HETATM    6  C   UNL     1     -10.012   4.006  71.143  1.00  0.00    -0.197 C  
HETATM    7  C   UNL     1     -10.534   4.885  72.004  1.00  0.00    -0.245 C  
HETATM    8  C   UNL     1     -11.137   4.535  73.317  1.00  0.00    -0.389 C  
HETATM    9  C   UNL     1     -10.130   6.287  71.588  1.00  0.00    -0.188 C  
HETATM   10  C   UNL     1      -9.381   7.655  69.136  1.00  0.00    -0.147 C  
HETATM   11  C   UNL     1      -8.698   6.004  70.519  1.00  0.00    -0.138 C  
HETATM   12  C   UNL     1      -8.074   5.788  68.577  1.00  0.00    -0.108 C  
HETATM   13  C   UNL     1      -7.685   8.064  69.495  1.00  0.00    -0.103 C  
HETATM   14  O   UNL     1      -7.914   5.850  71.780  1.00  0.00    -0.108 OA 
HETATM   15  H   UNL     1      -7.628   6.723  72.023  1.00  0.00     0.000 HD 
HETATM   16  C   UNL     1      -8.681   6.586  67.314  1.00  0.00    -0.110 C  
HETATM   17  O   UNL     1      -6.687   5.765  68.181  1.00  0.00    -0.053 OA 
HETATM   18  C   UNL     1      -8.278   8.958  71.727  1.00  0.00    -0.057 C  
HETATM   19  C   UNL     1     -10.101   5.919  69.262  1.00  0.00    -0.194 C  
HETATM   20  C   UNL     1      -6.029   9.575  71.024  1.00  0.00    -0.076 C  
HETATM   21  H   UNL     1      -6.398   5.665  67.281  1.00  0.00     0.000 HD 
HETATM   22  C   UNL     1      -7.120   8.516  70.863  1.00  0.00    -0.063 C  
HETATM   23  O   UNL     1     -11.139   5.596  68.664  1.00  0.00    -0.140 OA 
HETATM   24  C   UNL     1      -9.372   7.670  67.656  1.00  0.00    -0.158 C  
ENDROOT
BRANCH   9  25
HETATM   25  O   UNL     1     -11.267   7.075  71.184  1.00  0.00    -0.253 OA 
BRANCH  25  26
HETATM   26  C   UNL     1     -11.716   7.950  72.133  1.00  0.00    -0.333 C  
HETATM   27  O   UNL     1     -11.276   8.020  73.273  1.00  0.00    -0.262 OA 
BRANCH  26  28
HETATM   28  C   UNL     1     -12.749   8.914  71.647  1.00  0.00    -0.403 C  
HETATM   29  C   UNL     1     -11.331  10.625  70.349  1.00  0.00    -0.389 C  
HETATM   30  C   UNL     1     -12.569  10.031  70.913  1.00  0.00    -0.424 C  
HETATM   31  C   UNL     1     -14.172   8.512  71.973  1.00  0.00    -0.535 C  
ENDBRANCH  26  28
ENDBRANCH  25  26
ENDBRANCH   9  25
BRANCH  16  32
HETATM   32  C   UNL     1      -8.616   6.053  65.918  1.00  0.00    -0.150 C  
HETATM   33  H   UNL     1      -8.331   4.309  65.107  1.00  0.00     0.000 HD 
HETATM   34  O   UNL     1      -8.371   4.648  65.994  1.00  0.00    -0.113 OA 
ENDBRANCH  16  32
TORSDOF 4
ENDMDL
MODEL       52
REMARK 921   NORMALIZED FREE ENERGY PREDICTED BY IDOCK:   -4.78 KCAL/MOL
REMARK 922        TOTAL FREE ENERGY PREDICTED BY IDOCK:   -7.02 KCAL/MOL
REMARK 923 INTER-LIGAND FREE ENERGY PREDICTED BY IDOCK:   -5.64 KCAL/MOL
REMARK 924 INTRA-LIGAND FREE ENERGY PREDICTED BY IDOCK:   -1.38 KCAL/MOL
REMARK 927      BINDING AFFINITY PREDICTED BY RF-SCORE:    0.00 PKD
ROOT
HETATM    1  C   UNL     1      -6.529   9.150  68.305  1.00  0.00    -0.055 C  
HETATM    2  C   UNL     1      -5.932   7.721  67.568  1.00  0.00    -0.045 C  
HETATM    3  C   UNL     1      -6.978   6.505  66.734  1.00  0.00    -0.067 C  
HETATM    4  C   UNL     1      -6.293   5.125  66.805  1.00  0.00    -0.040 C  
HETATM    5  C   UNL     1      -8.688   6.446  67.176  1.00  0.00    -0.110 C  
HETATM    6  C   UNL     1      -9.155   5.125  67.684  1.00  0.00    -0.117 C  
HETATM    7  C   UNL     1      -9.532   5.203  68.964  1.00  0.00    -0.186 C  
HETATM    8  C   UNL     1      -9.690   4.040  69.877  1.00  0.00    -0.263 C  
HETATM    9  C   UNL     1      -9.457   6.649  69.415  1.00  0.00    -0.146 C  
HETATM   10  C   UNL     1      -9.619   9.280  68.191  1.00  0.00    -0.159 C  
HETATM   11  C   UNL     1      -8.355   7.406  68.196  1.00  0.00    -0.124 C  
HETATM   12  C   UNL     1      -8.276   8.472  66.445  1.00  0.00    -0.108 C  
HETATM   13  C   UNL     1      -7.963   9.874  68.473  1.00  0.00    -0.086 C  
HETATM   14  O   UNL     1      -7.238   6.810  68.984  1.00  0.00    -0.085 OA 
HETATM   15  H   UNL     1      -7.018   7.444  69.656  1.00  0.00     0.000 HD 
HETATM   16  C   UNL     1      -9.314   9.627  66.014  1.00  0.00    -0.263 C  
HETATM   17  O   UNL     1      -7.064   9.053  65.917  1.00  0.00    -0.086 OA 
HETATM   18  C   UNL     1      -8.026   9.193  70.852  1.00  0.00    -0.192 C  
HETATM   19  C   UNL     1     -10.028   7.642  67.357  1.00  0.00    -0.192 C  
HETATM   20  C   UNL     1      -6.169  10.685  70.341  1.00  0.00    -0.129 C  
HETATM   21  H   UNL     1      -7.028   9.547  65.106  1.00  0.00     0.000 HD 
HETATM   22  C   UNL     1      -7.105   9.636  69.739  1.00  0.00    -0.084 C  
HETATM   23  O   UNL     1     -11.138   7.428  66.843  1.00  0.00    -0.236 OA 
HETATM   24  C   UNL     1     -10.025  10.105  67.032  1.00  0.00    -0.249 C  
ENDROOT
BRANCH   9  25
HETATM   25  O   UNL     1     -10.759   7.180  69.732  1.00  0.00    -0.228 OA 
BRANCH  25  26
HETATM   26  C   UNL     1     -11.064   7.175  71.065  1.00  0.00    -0.260 C  
HETATM   27  O   UNL     1     -10.346   6.701  71.937  1.00  0.00    -0.198 OA 
BRANCH  26  28
HETATM   28  C   UNL     1     -12.327   7.893  71.414  1.00  0.00    -0.334 C  
HETATM   29  C   UNL     1     -11.691  10.351  70.994  1.00  0.00    -0.430 C  
HETATM   30  C   UNL     1     -12.567   9.219  71.390  1.00  0.00    -0.411 C  
HETATM   31  C   UNL     1     -13.482   6.978  71.761  1.00  0.00    -0.307 C  
ENDBRANCH  26  28
ENDBRANCH  25  26
ENDBRANCH   9  25
BRANCH  16  32
HETATM   32  C   UNL     1      -9.570   9.989  64.585  1.00  0.00    -0.297 C  
HETATM   33  H   UNL     1      -8.596  10.937  63.196  1.00  0.00     0.000 HD 
HETATM   34  O   UNL     1      -8.434  10.708  64.103  1.00  0.00    -0.154 OA 
ENDBRANCH  16  32
TORSDOF 4
ENDMDL
MODEL       53
REMARK 921   NORMALIZED FREE ENERGY PREDICTED BY IDOCK:   -4.51 KCAL/MOL
REMARK 922        TOTAL FREE ENERGY PREDICTED BY IDOCK:   -6.70 KCAL/MOL
REMARK 923 INTER-LIGAND FREE ENERGY PREDICTED BY IDOCK:   -5.75 KCAL/MOL
REMARK 924 INTRA-LIGAND FREE ENERGY PREDICTED BY IDOCK:   -0.94 KCAL/MOL
REMARK 927      BINDING AFFINITY PREDICTED BY RF-SCORE:    0.00 PKD
ROOT
HETATM    1  C   UNL     1      -8.808   8.361  66.720  1.00  0.00    -0.156 C  
HETATM    2  C   UNL     1      -7.138   8.044  66.951  1.00  0.00    -0.081 C  
HETATM    3  C   UNL     1      -6.481   6.453  67.503  1.00  0.00    -0.049 C  
HETATM    4  C   UNL     1      -5.142   6.692  68.230  1.00  0.00    -0.008 C  
HETATM    5  C   UNL     1      -7.564   5.378  68.396  1.00  0.00    -0.080 C  
HETATM    6  C   UNL     1      -7.084   4.997  69.754  1.00  0.00    -0.055 C  
HETATM    7  C   UNL     1      -7.891   5.478  70.706  1.00  0.00    -0.092 C  
HETATM    8  C   UNL     1      -7.528   5.613  72.141  1.00  0.00    -0.099 C  
HETATM    9  C   UNL     1      -9.083   6.150  70.052  1.00  0.00    -0.147 C  
HETATM   10  C   UNL     1     -10.547   5.939  67.549  1.00  0.00    -0.347 C  
HETATM   11  C   UNL     1      -8.507   6.466  68.366  1.00  0.00    -0.116 C  
HETATM   12  C   UNL     1      -8.487   5.755  66.442  1.00  0.00    -0.122 C  
HETATM   13  C   UNL     1     -10.186   7.527  66.826  1.00  0.00    -0.324 C  
HETATM   14  O   UNL     1      -7.799   7.649  68.937  1.00  0.00    -0.117 OA 
HETATM   15  H   UNL     1      -8.421   8.366  68.917  1.00  0.00     0.000 HD 
HETATM   16  C   UNL     1      -9.705   4.978  65.728  1.00  0.00    -0.158 C  
HETATM   17  O   UNL     1      -8.017   6.520  65.312  1.00  0.00    -0.106 OA 
HETATM   18  C   UNL     1     -10.741   8.713  68.927  1.00  0.00    -0.109 C  
HETATM   19  C   UNL     1      -9.237   4.738  68.172  1.00  0.00    -0.124 C  
HETATM   20  C   UNL     1     -10.581  10.206  67.009  1.00  0.00    -0.290 C  
HETATM   21  H   UNL     1      -8.008   6.190  64.420  1.00  0.00     0.000 HD 
HETATM   22  C   UNL     1     -10.083   8.876  67.576  1.00  0.00    -0.285 C  
HETATM   23  O   UNL     1      -9.473   3.528  68.314  1.00  0.00    -0.175 OA 
HETATM   24  C   UNL     1     -10.872   5.143  66.345  1.00  0.00    -0.174 C  
ENDROOT
BRANCH   9  25
HETATM   25  O   UNL     1     -10.314   5.459  70.342  1.00  0.00    -0.248 OA 
BRANCH  25  26
HETATM   26  C   UNL     1     -11.214   6.186  71.071  1.00  0.00    -0.296 C  
HETATM   27  O   UNL     1     -12.266   6.629  70.627  1.00  0.00    -0.377 OA 
BRANCH  26  28
HETATM   28  C   UNL     1     -10.868   6.332  72.517  1.00  0.00    -0.273 C  
HETATM   29  C   UNL     1     -11.048   3.910  73.368  1.00  0.00    -0.329 C  
HETATM   30  C   UNL     1     -10.814   5.374  73.463  1.00  0.00    -0.342 C  
HETATM   31  C   UNL     1     -10.457   7.734  72.916  1.00  0.00    -0.412 C  
ENDBRANCH  26  28
ENDBRANCH  25  26
ENDBRANCH   9  25
BRANCH  16  32
HETATM   32  C   UNL     1      -9.499   4.028  64.591  1.00  0.00    -0.169 C  
HETATM   33  H   UNL     1      -8.172   2.687  64.123  1.00  0.00     0.000 HD 
HETATM   34  O   UNL     1      -8.303   3.290  64.844  1.00  0.00    -0.093 OA 
ENDBRANCH  16  32
TORSDOF 4
ENDMDL
MODEL       54
REMARK 921   NORMALIZED FREE ENERGY PREDICTED BY IDOCK:   -4.51 KCAL/MOL
REMARK 922        TOTAL FREE ENERGY PREDICTED BY IDOCK:   -6.69 KCAL/MOL
REMARK 923 INTER-LIGAND FREE ENERGY PREDICTED BY IDOCK:   -5.41 KCAL/MOL
REMARK 924 INTRA-LIGAND FREE ENERGY PREDICTED BY IDOCK:   -1.28 KCAL/MOL
REMARK 927      BINDING AFFINITY PREDICTED BY RF-SCORE:    0.00 PKD
ROOT
HETATM    1  C   UNL     1     -11.056   6.640  69.138  1.00  0.00    -0.332 C  
HETATM    2  C   UNL     1     -11.395   6.584  70.819  1.00  0.00    -0.399 C  
HETATM    3  C   UNL     1     -10.610   7.660  72.041  1.00  0.00    -0.264 C  
HETATM    4  C   UNL     1     -10.598   6.940  73.405  1.00  0.00    -0.372 C  
HETATM    5  C   UNL     1      -9.047   8.375  71.628  1.00  0.00    -0.268 C  
HETATM    6  C   UNL     1      -7.943   8.048  72.575  1.00  0.00    -0.174 C  
HETATM    7  C   UNL     1      -6.995   7.318  71.981  1.00  0.00    -0.063 C  
HETATM    8  C   UNL     1      -5.965   6.516  72.693  1.00  0.00    -0.042 C  
HETATM    9  C   UNL     1      -7.328   7.177  70.507  1.00  0.00    -0.075 C  
HETATM   10  C   UNL     1      -8.809   8.670  68.501  1.00  0.00    -0.142 C  
HETATM   11  C   UNL     1      -9.097   7.556  70.446  1.00  0.00    -0.153 C  
HETATM   12  C   UNL     1     -10.483   9.029  70.105  1.00  0.00    -0.214 C  
HETATM   13  C   UNL     1     -10.133   7.528  68.156  1.00  0.00    -0.215 C  
HETATM   14  O   UNL     1      -9.310   6.155  70.915  1.00  0.00    -0.156 OA 
HETATM   15  H   UNL     1      -9.343   5.615  70.135  1.00  0.00     0.000 HD 
HETATM   16  C   UNL     1     -10.338  10.203  69.011  1.00  0.00    -0.230 C  
HETATM   17  O   UNL     1     -11.899   8.780  69.979  1.00  0.00    -0.444 OA 
HETATM   18  C   UNL     1      -8.559   5.631  67.923  1.00  0.00    -0.101 C  
HETATM   19  C   UNL     1      -8.358   9.277  70.225  1.00  0.00    -0.186 C  
HETATM   20  C   UNL     1     -10.785   5.126  67.073  1.00  0.00    -0.103 C  
HETATM   21  H   UNL     1     -12.541   9.463  69.821  1.00  0.00     0.000 HD 
HETATM   22  C   UNL     1     -10.019   5.987  68.079  1.00  0.00    -0.162 C  
HETATM   23  O   UNL     1      -7.712  10.322  70.403  1.00  0.00    -0.194 OA 
HETATM   24  C   UNL     1      -9.420   9.951  68.082  1.00  0.00    -0.149 C  
ENDROOT
BRANCH   9  25
HETATM   25  O   UNL     1      -6.356   7.836  69.672  1.00  0.00    -0.030 OA 
BRANCH  25  26
HETATM   26  C   UNL     1      -5.591   6.991  68.917  1.00  0.00    -0.018 C  
HETATM   27  O   UNL     1      -5.185   5.900  69.298  1.00  0.00    -0.004 OA 
BRANCH  26  28
HETATM   28  C   UNL     1      -5.355   7.453  67.516  1.00  0.00    -0.025 C  
HETATM   29  C   UNL     1      -5.371   5.241  66.200  1.00  0.00    -0.013 C  
HETATM   30  C   UNL     1      -5.255   6.709  66.397  1.00  0.00    -0.017 C  
HETATM   31  C   UNL     1      -5.304   8.959  67.363  1.00  0.00    -0.034 C  
ENDBRANCH  26  28
ENDBRANCH  25  26
ENDBRANCH   9  25
BRANCH  16  32
HETATM   32  C   UNL     1     -11.043  11.517  69.141  1.00  0.00    -0.259 C  
HETATM   33  H   UNL     1     -12.720  12.263  68.503  1.00  0.00     0.000 HD 
HETATM   34  O   UNL     1     -12.272  11.430  68.420  1.00  0.00    -0.571 OA 
ENDBRANCH  16  32
TORSDOF 4
ENDMDL
MODEL       55
REMARK 921   NORMALIZED FREE ENERGY PREDICTED BY IDOCK:   -4.46 KCAL/MOL
REMARK 922        TOTAL FREE ENERGY PREDICTED BY IDOCK:   -6.64 KCAL/MOL
REMARK 923 INTER-LIGAND FREE ENERGY PREDICTED BY IDOCK:   -5.76 KCAL/MOL
REMARK 924 INTRA-LIGAND FREE ENERGY PREDICTED BY IDOCK:   -0.88 KCAL/MOL
REMARK 927      BINDING AFFINITY PREDICTED BY RF-SCORE:    0.00 PKD
ROOT
HETATM    1  C   UNL     1      -6.408   6.950  69.363  1.00  0.00    -0.039 C  
HETATM    2  C   UNL     1      -7.005   5.343  69.451  1.00  0.00    -0.059 C  
HETATM    3  C   UNL     1      -8.568   4.808  68.719  1.00  0.00    -0.098 C  
HETATM    4  C   UNL     1      -9.104   3.601  69.515  1.00  0.00    -0.201 C  
HETATM    5  C   UNL     1      -9.804   6.037  68.422  1.00  0.00    -0.152 C  
HETATM    6  C   UNL     1     -11.107   5.789  69.102  1.00  0.00    -0.218 C  
HETATM    7  C   UNL     1     -11.364   6.731  70.014  1.00  0.00    -0.396 C  
HETATM    8  C   UNL     1     -12.357   6.603  71.113  1.00  0.00    -0.310 C  
HETATM    9  C   UNL     1     -10.283   7.792  69.950  1.00  0.00    -0.213 C  
HETATM   10  C   UNL     1      -8.428   8.835  67.970  1.00  0.00    -0.126 C  
HETATM   11  C   UNL     1      -8.923   6.946  69.107  1.00  0.00    -0.133 C  
HETATM   12  C   UNL     1      -8.017   6.626  67.295  1.00  0.00    -0.117 C  
HETATM   13  C   UNL     1      -6.873   8.339  68.685  1.00  0.00    -0.063 C  
HETATM   14  O   UNL     1      -8.624   6.323  70.429  1.00  0.00    -0.138 OA 
HETATM   15  H   UNL     1      -8.043   6.922  70.881  1.00  0.00     0.000 HD 
HETATM   16  C   UNL     1      -7.871   7.724  66.124  1.00  0.00    -0.095 C  
HETATM   17  O   UNL     1      -6.741   5.969  67.144  1.00  0.00    -0.057 OA 
HETATM   18  C   UNL     1      -7.516   9.209  70.912  1.00  0.00    -0.136 C  
HETATM   19  C   UNL     1      -9.862   7.661  67.636  1.00  0.00    -0.164 C  
HETATM   20  C   UNL     1      -5.137   8.719  70.736  1.00  0.00    -0.021 C  
HETATM   21  H   UNL     1      -6.322   5.821  66.304  1.00  0.00     0.000 HD 
HETATM   22  C   UNL     1      -6.514   8.339  70.190  1.00  0.00    -0.035 C  
HETATM   23  O   UNL     1     -10.755   7.935  66.819  1.00  0.00    -0.304 OA 
HETATM   24  C   UNL     1      -8.056   8.973  66.544  1.00  0.00    -0.111 C  
ENDROOT
BRANCH   9  25
HETATM   25  O   UNL     1     -10.803   9.064  69.516  1.00  0.00    -0.229 OA 
BRANCH  25  26
HETATM   26  C   UNL     1     -11.215   9.883  70.530  1.00  0.00    -0.330 C  
HETATM   27  O   UNL     1     -10.974   9.692  71.715  1.00  0.00    -0.259 OA 
BRANCH  26  28
HETATM   28  C   UNL     1     -11.920  11.121  70.079  1.00  0.00    -0.447 C  
HETATM   29  C   UNL     1     -11.239  11.264  67.601  1.00  0.00    -0.357 C  
HETATM   30  C   UNL     1     -11.910  11.689  68.857  1.00  0.00    -0.392 C  
HETATM   31  C   UNL     1     -12.809  11.746  71.134  1.00  0.00    -0.365 C  
ENDBRANCH  26  28
ENDBRANCH  25  26
ENDBRANCH   9  25
BRANCH  16  32
HETATM   32  C   UNL     1      -7.721   7.351  64.683  1.00  0.00    -0.118 C  
HETATM   33  H   UNL     1      -7.560   5.690  63.687  1.00  0.00     0.000 HD 
HETATM   34  O   UNL     1      -7.656   5.927  64.602  1.00  0.00    -0.077 OA 
ENDBRANCH  16  32
TORSDOF 4
ENDMDL
MODEL       56
REMARK 921   NORMALIZED FREE ENERGY PREDICTED BY IDOCK:   -4.45 KCAL/MOL
REMARK 922        TOTAL FREE ENERGY PREDICTED BY IDOCK:   -6.62 KCAL/MOL
REMARK 923 INTER-LIGAND FREE ENERGY PREDICTED BY IDOCK:   -5.60 KCAL/MOL
REMARK 924 INTRA-LIGAND FREE ENERGY PREDICTED BY IDOCK:   -1.02 KCAL/MOL
REMARK 927      BINDING AFFINITY PREDICTED BY RF-SCORE:    0.00 PKD
ROOT
HETATM    1  C   UNL     1      -9.176   9.717  70.289  1.00  0.00    -0.285 C  
HETATM    2  C   UNL     1      -7.469   9.857  70.178  1.00  0.00    -0.178 C  
HETATM    3  C   UNL     1      -6.564   9.925  68.615  1.00  0.00    -0.050 C  
HETATM    4  C   UNL     1      -5.139   9.378  68.839  1.00  0.00    -0.037 C  
HETATM    5  C   UNL     1      -7.342   9.246  67.180  1.00  0.00    -0.091 C  
HETATM    6  C   UNL     1      -6.572   8.160  66.509  1.00  0.00    -0.055 C  
HETATM    7  C   UNL     1      -7.222   6.994  66.573  1.00  0.00    -0.082 C  
HETATM    8  C   UNL     1      -6.603   5.661  66.351  1.00  0.00    -0.055 C  
HETATM    9  C   UNL     1      -8.580   7.218  67.212  1.00  0.00    -0.121 C  
HETATM   10  C   UNL     1     -10.472   9.406  67.497  1.00  0.00    -0.343 C  
HETATM   11  C   UNL     1      -8.375   8.796  68.076  1.00  0.00    -0.119 C  
HETATM   12  C   UNL     1      -8.658  10.823  67.948  1.00  0.00    -0.125 C  
HETATM   13  C   UNL     1     -10.418   9.657  69.260  1.00  0.00    -0.232 C  
HETATM   14  O   UNL     1      -7.691   8.008  69.142  1.00  0.00    -0.096 OA 
HETATM   15  H   UNL     1      -8.372   7.711  69.733  1.00  0.00     0.000 HD 
HETATM   16  C   UNL     1      -9.909  11.541  67.229  1.00  0.00    -0.208 C  
HETATM   17  O   UNL     1      -8.495  11.725  69.064  1.00  0.00    -0.367 OA 
HETATM   18  C   UNL     1     -10.669   7.235  69.706  1.00  0.00    -0.253 C  
HETATM   19  C   UNL     1      -8.955   9.391  66.383  1.00  0.00    -0.152 C  
HETATM   20  C   UNL     1     -11.033   8.607  71.685  1.00  0.00    -0.378 C  
HETATM   21  H   UNL     1      -8.626  12.664  69.004  1.00  0.00     0.000 HD 
HETATM   22  C   UNL     1     -10.305   8.557  70.341  1.00  0.00    -0.222 C  
HETATM   23  O   UNL     1      -9.038   9.590  65.160  1.00  0.00    -0.201 OA 
HETATM   24  C   UNL     1     -10.944  10.729  67.033  1.00  0.00    -0.292 C  
ENDROOT
BRANCH   9  25
HETATM   25  O   UNL     1      -9.656   6.964  66.289  1.00  0.00    -0.135 OA 
BRANCH  25  26
HETATM   26  C   UNL     1     -10.499   5.956  66.665  1.00  0.00    -0.249 C  
HETATM   27  O   UNL     1     -11.630   6.126  67.101  1.00  0.00     0.148 OA 
BRANCH  26  28
HETATM   28  C   UNL     1      -9.972   4.581  66.410  1.00  0.00    -0.267 C  
HETATM   29  C   UNL     1      -9.437   3.753  68.788  1.00  0.00    -0.220 C  
HETATM   30  C   UNL     1      -9.523   3.680  67.307  1.00  0.00    -0.235 C  
HETATM   31  C   UNL     1     -10.038   4.152  64.960  1.00  0.00    -0.220 C  
ENDBRANCH  26  28
ENDBRANCH  25  26
ENDBRANCH   9  25
BRANCH  16  32
HETATM   32  C   UNL     1      -9.834  12.932  66.681  1.00  0.00    -0.250 C  
HETATM   33  H   UNL     1     -10.337  14.702  67.308  1.00  0.00     0.000 HD 
HETATM   34  O   UNL     1     -10.384  13.819  67.656  1.00  0.00    -0.235 OA 
ENDBRANCH  16  32
TORSDOF 4
ENDMDL
MODEL       57
REMARK 921   NORMALIZED FREE ENERGY PREDICTED BY IDOCK:   -4.41 KCAL/MOL
REMARK 922        TOTAL FREE ENERGY PREDICTED BY IDOCK:   -6.57 KCAL/MOL
REMARK 923 INTER-LIGAND FREE ENERGY PREDICTED BY IDOCK:   -7.18 KCAL/MOL
REMARK 924 INTRA-LIGAND FREE ENERGY PREDICTED BY IDOCK:    0.61 KCAL/MOL
REMARK 927      BINDING AFFINITY PREDICTED BY RF-SCORE:    0.00 PKD
ROOT
HETATM    1  C   UNL     1      -7.868   9.475  67.189  1.00  0.00    -0.095 C  
HETATM    2  C   UNL     1      -6.755  10.570  67.901  1.00  0.00    -0.065 C  
HETATM    3  C   UNL     1      -7.243  11.987  68.912  1.00  0.00    -0.089 C  
HETATM    4  C   UNL     1      -6.152  13.072  68.810  1.00  0.00    -0.075 C  
HETATM    5  C   UNL     1      -8.875  12.632  68.697  1.00  0.00     0.050 C  
HETATM    6  C   UNL     1      -8.930  14.070  68.309  1.00  0.00    -0.190 C  
HETATM    7  C   UNL     1      -9.448  14.222  67.087  1.00  0.00    -0.229 C  
HETATM    8  C   UNL     1      -9.310  15.443  66.250  1.00  0.00    -0.351 C  
HETATM    9  C   UNL     1      -9.906  12.871  66.570  1.00  0.00    -0.254 C  
HETATM   10  C   UNL     1     -10.795  10.343  67.696  1.00  0.00    -0.361 C  
HETATM   11  C   UNL     1      -8.991  11.701  67.605  1.00  0.00    -0.166 C  
HETATM   12  C   UNL     1      -9.079  10.528  69.285  1.00  0.00    -0.145 C  
HETATM   13  C   UNL     1      -9.469   9.271  67.178  1.00  0.00    -0.191 C  
HETATM   14  O   UNL     1      -7.831  11.966  66.704  1.00  0.00    -0.321 OA 
HETATM   15  H   UNL     1      -7.908  11.352  65.984  1.00  0.00     0.000 HD 
HETATM   16  C   UNL     1     -10.388   9.740  69.799  1.00  0.00    -0.274 C  
HETATM   17  O   UNL     1      -8.079   9.546  69.627  1.00  0.00    -0.101 OA 
HETATM   18  C   UNL     1      -9.561  10.127  64.857  1.00  0.00    -0.369 C  
HETATM   19  C   UNL     1     -10.546  11.952  68.642  1.00  0.00    -0.234 C  
HETATM   20  C   UNL     1      -8.260   8.078  65.061  1.00  0.00    -0.144 C  
HETATM   21  H   UNL     1      -8.120   9.003  70.406  1.00  0.00     0.000 HD 
HETATM   22  C   UNL     1      -8.725   9.321  65.822  1.00  0.00    -0.182 C  
HETATM   23  O   UNL     1     -11.460  12.470  69.303  1.00  0.00    -0.273 OA 
HETATM   24  C   UNL     1     -11.323   9.602  68.862  1.00  0.00     0.074 C  
ENDROOT
BRANCH   9  25
HETATM   25  O   UNL     1     -11.336  12.817  66.402  1.00  0.00    -0.292 OA 
BRANCH  25  26
HETATM   26  C   UNL     1     -11.909  14.005  66.042  1.00  0.00    -0.388 C  
HETATM   27  O   UNL     1     -12.350  14.828  66.834  1.00  0.00    -0.141 OA 
BRANCH  26  28
HETATM   28  C   UNL     1     -11.877  14.289  64.576  1.00  0.00    -0.456 C  
HETATM   29  C   UNL     1     -12.521  12.012  63.564  1.00  0.00    -0.654 C  
HETATM   30  C   UNL     1     -12.124  13.443  63.556  1.00  0.00    -0.497 C  
HETATM   31  C   UNL     1     -11.605  15.738  64.233  1.00  0.00    -0.192 C  
ENDBRANCH  26  28
ENDBRANCH  25  26
ENDBRANCH   9  25
BRANCH  16  32
HETATM   32  C   UNL     1     -10.592   9.365  71.232  1.00  0.00    -0.330 C  
HETATM   33  H   UNL     1     -11.166   7.770  72.184  1.00  0.00     0.000 HD 
HETATM   34  O   UNL     1     -11.037   8.009  71.274  1.00  0.00    -0.239 OA 
ENDBRANCH  16  32
TORSDOF 4
ENDMDL
MODEL       58
REMARK 921   NORMALIZED FREE ENERGY PREDICTED BY IDOCK:   -4.41 KCAL/MOL
REMARK 922        TOTAL FREE ENERGY PREDICTED BY IDOCK:   -6.57 KCAL/MOL
REMARK 923 INTER-LIGAND FREE ENERGY PREDICTED BY IDOCK:   -5.26 KCAL/MOL
REMARK 924 INTRA-LIGAND FREE ENERGY PREDICTED BY IDOCK:   -1.31 KCAL/MOL
REMARK 927      BINDING AFFINITY PREDICTED BY RF-SCORE:    0.00 PKD
ROOT
HETATM    1  C   UNL     1      -9.901  11.443  68.454  1.00  0.00    -0.205 C  
HETATM    2  C   UNL     1      -8.447  12.353  68.429  1.00  0.00    -0.131 C  
HETATM    3  C   UNL     1      -6.840  11.672  67.962  1.00  0.00    -0.072 C  
HETATM    4  C   UNL     1      -5.731  12.478  68.669  1.00  0.00    -0.054 C  
HETATM    5  C   UNL     1      -6.612   9.924  68.102  1.00  0.00    -0.056 C  
HETATM    6  C   UNL     1      -5.489   9.511  68.990  1.00  0.00    -0.036 C  
HETATM    7  C   UNL     1      -5.936   8.848  70.061  1.00  0.00    -0.030 C  
HETATM    8  C   UNL     1      -5.160   8.624  71.309  1.00  0.00    -0.029 C  
HETATM    9  C   UNL     1      -7.435   8.650  69.931  1.00  0.00    -0.056 C  
HETATM   10  C   UNL     1      -9.387   8.466  67.786  1.00  0.00    -0.150 C  
HETATM   11  C   UNL     1      -7.914   9.904  68.717  1.00  0.00    -0.093 C  
HETATM   12  C   UNL     1      -8.293  10.253  66.731  1.00  0.00    -0.124 C  
HETATM   13  C   UNL     1     -10.348   9.934  68.091  1.00  0.00    -0.232 C  
HETATM   14  O   UNL     1      -7.857  10.876  69.847  1.00  0.00    -0.346 OA 
HETATM   15  H   UNL     1      -8.716  10.863  70.253  1.00  0.00     0.000 HD 
HETATM   16  C   UNL     1      -9.001   9.212  65.726  1.00  0.00    -0.237 C  
HETATM   17  O   UNL     1      -8.873  11.476  66.231  1.00  0.00    -0.194 OA 
HETATM   18  C   UNL     1     -10.545   9.415  70.504  1.00  0.00    -0.331 C  
HETATM   19  C   UNL     1      -7.515   8.448  67.586  1.00  0.00    -0.094 C  
HETATM   20  C   UNL     1     -12.090  11.152  69.778  1.00  0.00    -0.414 C  
HETATM   21  H   UNL     1      -9.049  11.637  65.311  1.00  0.00     0.000 HD 
HETATM   22  C   UNL     1     -10.738  10.505  69.476  1.00  0.00    -0.291 C  
HETATM   23  O   UNL     1      -6.926   7.516  67.016  1.00  0.00    -0.077 OA 
HETATM   24  C   UNL     1      -9.659   8.238  66.349  1.00  0.00    -0.300 C  
ENDROOT
BRANCH   9  25
HETATM   25  O   UNL     1      -7.783   7.258  69.800  1.00  0.00    -0.102 OA 
BRANCH  25  26
HETATM   26  C   UNL     1      -8.215   6.671  70.956  1.00  0.00    -0.120 C  
HETATM   27  O   UNL     1      -8.218   7.218  72.051  1.00  0.00    -0.101 OA 
BRANCH  26  28
HETATM   28  C   UNL     1      -8.795   5.305  70.777  1.00  0.00    -0.151 C  
HETATM   29  C   UNL     1     -10.881   5.780  69.346  1.00  0.00    -0.393 C  
HETATM   30  C   UNL     1      -9.913   4.953  70.112  1.00  0.00    -0.325 C  
HETATM   31  C   UNL     1      -7.951   4.194  71.366  1.00  0.00    -0.077 C  
ENDBRANCH  26  28
ENDBRANCH  25  26
ENDBRANCH   9  25
BRANCH  16  32
HETATM   32  C   UNL     1      -8.783   9.245  64.246  1.00  0.00    -0.175 C  
HETATM   33  H   UNL     1      -9.278  10.441  62.795  1.00  0.00     0.000 HD 
HETATM   34  O   UNL     1      -9.416  10.419  63.734  1.00  0.00    -0.262 OA 
ENDBRANCH  16  32
TORSDOF 4
ENDMDL
MODEL       59
REMARK 921   NORMALIZED FREE ENERGY PREDICTED BY IDOCK:   -4.41 KCAL/MOL
REMARK 922        TOTAL FREE ENERGY PREDICTED BY IDOCK:   -6.57 KCAL/MOL
REMARK 923 INTER-LIGAND FREE ENERGY PREDICTED BY IDOCK:   -5.60 KCAL/MOL
REMARK 924 INTRA-LIGAND FREE ENERGY PREDICTED BY IDOCK:   -0.97 KCAL/MOL
REMARK 927      BINDING AFFINITY PREDICTED BY RF-SCORE:    0.00 PKD
ROOT
HETATM    1  C   UNL     1      -9.705   7.456  67.639  1.00  0.00    -0.178 C  
HETATM    2  C   UNL     1     -10.655   8.883  67.699  1.00  0.00    -0.292 C  
HETATM    3  C   UNL     1     -10.666  10.029  69.097  1.00  0.00    -0.244 C  
HETATM    4  C   UNL     1     -12.027  10.753  69.139  1.00  0.00    -0.302 C  
HETATM    5  C   UNL     1     -10.170   9.408  70.677  1.00  0.00    -0.353 C  
HETATM    6  C   UNL     1     -11.195   9.547  71.750  1.00  0.00    -0.263 C  
HETATM    7  C   UNL     1     -11.616   8.352  72.176  1.00  0.00    -0.442 C  
HETATM    8  C   UNL     1     -12.865   8.115  72.946  1.00  0.00     0.290 C  
HETATM    9  C   UNL     1     -10.808   7.268  71.488  1.00  0.00    -0.224 C  
HETATM   10  C   UNL     1      -8.174   7.001  70.290  1.00  0.00    -0.128 C  
HETATM   11  C   UNL     1     -10.124   8.116  70.043  1.00  0.00    -0.196 C  
HETATM   12  C   UNL     1      -8.488   9.106  69.302  1.00  0.00    -0.132 C  
HETATM   13  C   UNL     1      -8.617   6.730  68.585  1.00  0.00    -0.122 C  
HETATM   14  O   UNL     1     -11.461   7.910  69.414  1.00  0.00    -0.373 OA 
HETATM   15  H   UNL     1     -11.431   7.058  68.996  1.00  0.00     0.000 HD 
HETATM   16  C   UNL     1      -6.954   8.744  69.639  1.00  0.00    -0.050 C  
HETATM   17  O   UNL     1      -8.332   9.465  67.913  1.00  0.00    -0.115 OA 
HETATM   18  C   UNL     1     -10.294   5.015  69.198  1.00  0.00    -0.174 C  
HETATM   19  C   UNL     1      -8.780   8.454  71.322  1.00  0.00    -0.162 C  
HETATM   20  C   UNL     1      -9.761   5.015  66.821  1.00  0.00    -0.188 C  
HETATM   21  H   UNL     1      -7.574   9.923  67.570  1.00  0.00     0.000 HD 
HETATM   22  C   UNL     1      -9.814   5.897  68.069  1.00  0.00    -0.144 C  
HETATM   23  O   UNL     1      -8.184   8.824  72.346  1.00  0.00    -0.377 OA 
HETATM   24  C   UNL     1      -6.797   7.525  70.148  1.00  0.00    -0.051 C  
ENDROOT
BRANCH   9  25
HETATM   25  O   UNL     1      -9.996   6.530  72.422  1.00  0.00    -0.170 OA 
BRANCH  25  26
HETATM   26  C   UNL     1     -10.544   5.349  72.840  1.00  0.00    -0.229 C  
HETATM   27  O   UNL     1     -11.712   5.211  73.178  1.00  0.00    -0.298 OA 
BRANCH  26  28
HETATM   28  C   UNL     1      -9.621   4.177  72.765  1.00  0.00    -0.170 C  
HETATM   29  C   UNL     1      -7.472   5.105  73.837  1.00  0.00    -0.087 C  
HETATM   30  C   UNL     1      -8.339   4.096  73.175  1.00  0.00    -0.090 C  
HETATM   31  C   UNL     1     -10.264   2.917  72.225  1.00  0.00    -0.180 C  
ENDBRANCH  26  28
ENDBRANCH  25  26
ENDBRANCH   9  25
BRANCH  16  32
HETATM   32  C   UNL     1      -5.850   9.751  69.552  1.00  0.00    -0.033 C  
HETATM   33  H   UNL     1      -5.271  11.274  70.611  1.00  0.00     0.000 HD 
HETATM   34  O   UNL     1      -5.972  10.635  70.666  1.00  0.00    -0.120 OA 
ENDBRANCH  16  32
TORSDOF 4
ENDMDL
MODEL       60
REMARK 921   NORMALIZED FREE ENERGY PREDICTED BY IDOCK:   -4.39 KCAL/MOL
REMARK 922        TOTAL FREE ENERGY PREDICTED BY IDOCK:   -6.55 KCAL/MOL
REMARK 923 INTER-LIGAND FREE ENERGY PREDICTED BY IDOCK:   -5.75 KCAL/MOL
REMARK 924 INTRA-LIGAND FREE ENERGY PREDICTED BY IDOCK:   -0.80 KCAL/MOL
REMARK 927      BINDING AFFINITY PREDICTED BY RF-SCORE:    0.00 PKD
ROOT
HETATM    1  C   UNL     1      -7.034  11.101  67.240  1.00  0.00    -0.096 C  
HETATM    2  C   UNL     1      -7.122  10.026  65.906  1.00  0.00    -0.114 C  
HETATM    3  C   UNL     1      -8.638   9.194  65.380  1.00  0.00    -0.192 C  
HETATM    4  C   UNL     1      -8.265   7.876  64.673  1.00  0.00    -0.094 C  
HETATM    5  C   UNL     1      -9.925   8.991  66.576  1.00  0.00    -0.355 C  
HETATM    6  C   UNL     1     -10.336   7.579  66.815  1.00  0.00    -0.332 C  
HETATM    7  C   UNL     1     -10.052   7.196  68.064  1.00  0.00    -0.201 C  
HETATM    8  C   UNL     1      -9.977   5.786  68.526  1.00  0.00    -0.197 C  
HETATM    9  C   UNL     1      -9.512   8.385  68.836  1.00  0.00    -0.147 C  
HETATM   10  C   UNL     1      -9.739  11.281  68.731  1.00  0.00    -0.184 C  
HETATM   11  C   UNL     1      -8.986   9.522  67.529  1.00  0.00    -0.124 C  
HETATM   12  C   UNL     1      -9.536  11.143  66.398  1.00  0.00    -0.200 C  
HETATM   13  C   UNL     1      -8.065  11.725  68.314  1.00  0.00    -0.154 C  
HETATM   14  O   UNL     1      -7.761   8.677  67.426  1.00  0.00    -0.096 OA 
HETATM   15  H   UNL     1      -7.142   9.027  68.055  1.00  0.00     0.000 HD 
HETATM   16  C   UNL     1     -10.424  12.381  66.923  1.00  0.00    -0.243 C  
HETATM   17  O   UNL     1      -8.626  11.867  65.544  1.00  0.00    -0.359 OA 
HETATM   18  C   UNL     1      -7.138  10.239  70.064  1.00  0.00    -0.161 C  
HETATM   19  C   UNL     1     -10.782  10.052  67.758  1.00  0.00    -0.280 C  
HETATM   20  C   UNL     1      -5.494  11.804  69.180  1.00  0.00    -0.048 C  
HETATM   21  H   UNL     1      -8.881  12.617  65.020  1.00  0.00     0.000 HD 
HETATM   22  C   UNL     1      -6.777  11.046  68.839  1.00  0.00    -0.074 C  
HETATM   23  O   UNL     1     -12.021  10.042  67.831  1.00  0.00     0.415 OA 
HETATM   24  C   UNL     1     -10.479  12.469  68.249  1.00  0.00    -0.243 C  
ENDROOT
BRANCH   9  25
HETATM   25  O   UNL     1     -10.395   8.776  69.906  1.00  0.00    -0.195 OA 
BRANCH  25  26
HETATM   26  C   UNL     1     -10.222   8.076  71.067  1.00  0.00    -0.190 C  
HETATM   27  O   UNL     1      -9.331   8.293  71.879  1.00  0.00    -0.172 OA 
BRANCH  26  28
HETATM   28  C   UNL     1     -11.280   7.058  71.341  1.00  0.00    -0.283 C  
HETATM   29  C   UNL     1      -9.936   5.150  72.427  1.00  0.00    -0.225 C  
HETATM   30  C   UNL     1     -11.142   5.838  71.898  1.00  0.00    -0.308 C  
HETATM   31  C   UNL     1     -12.683   7.520  71.008  1.00  0.00    -0.201 C  
ENDBRANCH  26  28
ENDBRANCH  25  26
ENDBRANCH   9  25
BRANCH  16  32
HETATM   32  C   UNL     1     -11.244  13.231  66.004  1.00  0.00    -0.297 C  
HETATM   33  H   UNL     1     -12.845  14.320  66.176  1.00  0.00     0.000 HD 
HETATM   34  O   UNL     1     -12.325  13.780  66.759  1.00  0.00    -0.403 OA 
ENDBRANCH  16  32
TORSDOF 4
ENDMDL
MODEL       61
REMARK 921   NORMALIZED FREE ENERGY PREDICTED BY IDOCK:   -4.36 KCAL/MOL
REMARK 922        TOTAL FREE ENERGY PREDICTED BY IDOCK:   -6.51 KCAL/MOL
REMARK 923 INTER-LIGAND FREE ENERGY PREDICTED BY IDOCK:   -5.40 KCAL/MOL
REMARK 924 INTRA-LIGAND FREE ENERGY PREDICTED BY IDOCK:   -1.11 KCAL/MOL
REMARK 927      BINDING AFFINITY PREDICTED BY RF-SCORE:    0.00 PKD
ROOT
HETATM    1  C   UNL     1     -11.466   9.238  69.615  1.00  0.00     0.122 C  
HETATM    2  C   UNL     1     -10.907  10.477  68.568  1.00  0.00    -0.275 C  
HETATM    3  C   UNL     1      -9.342  10.405  67.667  1.00  0.00    -0.161 C  
HETATM    4  C   UNL     1      -8.848  11.842  67.407  1.00  0.00    -0.171 C  
HETATM    5  C   UNL     1      -8.074   9.347  68.298  1.00  0.00    -0.109 C  
HETATM    6  C   UNL     1      -6.791  10.034  68.617  1.00  0.00    -0.054 C  
HETATM    7  C   UNL     1      -6.529   9.990  69.927  1.00  0.00    -0.077 C  
HETATM    8  C   UNL     1      -5.561  10.870  70.631  1.00  0.00    -0.125 C  
HETATM    9  C   UNL     1      -7.586   9.147  70.615  1.00  0.00    -0.133 C  
HETATM   10  C   UNL     1      -9.379   6.972  69.906  1.00  0.00    -0.150 C  
HETATM   11  C   UNL     1      -8.948   9.137  69.423  1.00  0.00    -0.147 C  
HETATM   12  C   UNL     1      -9.826   8.091  67.893  1.00  0.00    -0.167 C  
HETATM   13  C   UNL     1     -10.958   7.780  70.083  1.00  0.00    -0.246 C  
HETATM   14  O   UNL     1      -9.285  10.492  69.949  1.00  0.00    -0.398 OA 
HETATM   15  H   UNL     1      -9.862  10.354  70.691  1.00  0.00     0.000 HD 
HETATM   16  C   UNL     1      -9.925   6.485  67.805  1.00  0.00    -0.154 C  
HETATM   17  O   UNL     1     -11.114   8.425  67.332  1.00  0.00    -0.441 OA 
HETATM   18  C   UNL     1     -10.338   8.707  72.293  1.00  0.00    -0.376 C  
HETATM   19  C   UNL     1      -7.966   7.632  68.852  1.00  0.00    -0.125 C  
HETATM   20  C   UNL     1     -12.724   8.870  71.831  1.00  0.00    -0.436 C  
HETATM   21  H   UNL     1     -11.520   7.940  66.623  1.00  0.00     0.000 HD 
HETATM   22  C   UNL     1     -11.346   8.808  71.172  1.00  0.00    -0.345 C  
HETATM   23  O   UNL     1      -7.051   6.896  68.449  1.00  0.00    -0.080 OA 
HETATM   24  C   UNL     1      -9.721   5.877  68.971  1.00  0.00    -0.170 C  
ENDROOT
BRANCH   9  25
HETATM   25  O   UNL     1      -7.029   7.944  71.179  1.00  0.00    -0.047 OA 
BRANCH  25  26
HETATM   26  C   UNL     1      -6.971   7.932  72.545  1.00  0.00    -0.080 C  
HETATM   27  O   UNL     1      -6.739   8.916  73.235  1.00  0.00    -0.324 OA 
BRANCH  26  28
HETATM   28  C   UNL     1      -7.315   6.618  73.168  1.00  0.00    -0.084 C  
HETATM   29  C   UNL     1      -6.371   4.940  71.461  1.00  0.00    -0.026 C  
HETATM   30  C   UNL     1      -7.067   5.380  72.696  1.00  0.00    -0.088 C  
HETATM   31  C   UNL     1      -7.954   6.732  74.536  1.00  0.00    -0.143 C  
ENDBRANCH  26  28
ENDBRANCH  25  26
ENDBRANCH   9  25
BRANCH  16  32
HETATM   32  C   UNL     1     -10.057   5.755  66.506  1.00  0.00    -0.171 C  
HETATM   33  H   UNL     1     -10.133   3.891  65.959  1.00  0.00     0.000 HD 
HETATM   34  O   UNL     1     -10.049   4.354  66.784  1.00  0.00    -0.221 OA 
ENDBRANCH  16  32
TORSDOF 4
ENDMDL
MODEL       62
REMARK 921   NORMALIZED FREE ENERGY PREDICTED BY IDOCK:   -4.36 KCAL/MOL
REMARK 922        TOTAL FREE ENERGY PREDICTED BY IDOCK:   -6.51 KCAL/MOL
REMARK 923 INTER-LIGAND FREE ENERGY PREDICTED BY IDOCK:   -5.37 KCAL/MOL
REMARK 924 INTRA-LIGAND FREE ENERGY PREDICTED BY IDOCK:   -1.14 KCAL/MOL
REMARK 927      BINDING AFFINITY PREDICTED BY RF-SCORE:    0.00 PKD
ROOT
HETATM    1  C   UNL     1     -10.845   8.245  72.375  1.00  0.00    -0.421 C  
HETATM    2  C   UNL     1     -11.226   6.719  73.059  1.00  0.00    -0.193 C  
HETATM    3  C   UNL     1     -10.093   5.310  73.074  1.00  0.00    -0.203 C  
HETATM    4  C   UNL     1     -10.918   4.007  73.111  1.00  0.00    -0.261 C  
HETATM    5  C   UNL     1      -8.806   5.273  71.862  1.00  0.00    -0.142 C  
HETATM    6  C   UNL     1      -8.814   4.071  70.981  1.00  0.00    -0.135 C  
HETATM    7  C   UNL     1      -9.063   4.403  69.711  1.00  0.00    -0.174 C  
HETATM    8  C   UNL     1      -9.507   3.455  68.655  1.00  0.00    -0.205 C  
HETATM    9  C   UNL     1      -9.136   5.913  69.598  1.00  0.00    -0.137 C  
HETATM   10  C   UNL     1      -8.066   8.216  71.013  1.00  0.00    -0.103 C  
HETATM   11  C   UNL     1      -9.435   6.441  71.303  1.00  0.00    -0.166 C  
HETATM   12  C   UNL     1      -8.550   7.114  73.027  1.00  0.00    -0.121 C  
HETATM   13  C   UNL     1      -9.565   8.926  71.663  1.00  0.00    -0.363 C  
HETATM   14  O   UNL     1     -10.861   6.074  71.061  1.00  0.00    -0.257 OA 
HETATM   15  H   UNL     1     -11.275   6.845  70.693  1.00  0.00     0.000 HD 
HETATM   16  C   UNL     1      -7.281   8.106  73.092  1.00  0.00    -0.157 C  
HETATM   17  O   UNL     1      -9.288   7.621  74.159  1.00  0.00    -0.401 OA 
HETATM   18  C   UNL     1     -10.701   8.763  69.469  1.00  0.00    -0.196 C  
HETATM   19  C   UNL     1      -7.549   6.422  71.263  1.00  0.00    -0.094 C  
HETATM   20  C   UNL     1     -11.886  10.190  71.048  1.00  0.00    -0.475 C  
HETATM   21  H   UNL     1      -8.877   7.932  74.958  1.00  0.00     0.000 HD 
HETATM   22  C   UNL     1     -10.933   8.999  70.944  1.00  0.00    -0.332 C  
HETATM   23  O   UNL     1      -6.370   6.057  71.138  1.00  0.00    -0.041 OA 
HETATM   24  C   UNL     1      -7.061   8.758  71.954  1.00  0.00    -0.057 C  
ENDROOT
BRANCH   9  25
HETATM   25  O   UNL     1      -8.068   6.444  68.789  1.00  0.00    -0.111 OA 
BRANCH  25  26
HETATM   26  C   UNL     1      -8.372   6.572  67.463  1.00  0.00    -0.121 C  
HETATM   27  O   UNL     1      -9.499   6.775  67.028  1.00  0.00    -0.135 OA 
BRANCH  26  28
HETATM   28  C   UNL     1      -7.189   6.546  66.550  1.00  0.00    -0.073 C  
HETATM   29  C   UNL     1      -6.304   4.151  66.875  1.00  0.00    -0.040 C  
HETATM   30  C   UNL     1      -6.331   5.531  66.326  1.00  0.00    -0.035 C  
HETATM   31  C   UNL     1      -7.009   7.809  65.735  1.00  0.00    -0.057 C  
ENDBRANCH  26  28
ENDBRANCH  25  26
ENDBRANCH   9  25
BRANCH  16  32
HETATM   32  C   UNL     1      -6.348   8.145  74.261  1.00  0.00    -0.116 C  
HETATM   33  H   UNL     1      -4.605   7.391  74.674  1.00  0.00     0.000 HD 
HETATM   34  O   UNL     1      -5.198   7.366  73.933  1.00  0.00    -0.045 OA 
ENDBRANCH  16  32
TORSDOF 4
ENDMDL
MODEL       63
REMARK 921   NORMALIZED FREE ENERGY PREDICTED BY IDOCK:   -4.33 KCAL/MOL
REMARK 922        TOTAL FREE ENERGY PREDICTED BY IDOCK:   -6.47 KCAL/MOL
REMARK 923 INTER-LIGAND FREE ENERGY PREDICTED BY IDOCK:   -5.22 KCAL/MOL
REMARK 924 INTRA-LIGAND FREE ENERGY PREDICTED BY IDOCK:   -1.25 KCAL/MOL
REMARK 927      BINDING AFFINITY PREDICTED BY RF-SCORE:    0.00 PKD
ROOT
HETATM    1  C   UNL     1      -7.574   8.449  70.016  1.00  0.00    -0.068 C  
HETATM    2  C   UNL     1      -8.242  10.009  69.768  1.00  0.00    -0.191 C  
HETATM    3  C   UNL     1      -9.727  10.326  68.788  1.00  0.00    -0.178 C  
HETATM    4  C   UNL     1      -9.656  11.758  68.221  1.00  0.00    -0.199 C  
HETATM    5  C   UNL     1     -10.182   9.128  67.570  1.00  0.00    -0.304 C  
HETATM    6  C   UNL     1     -10.278   9.658  66.180  1.00  0.00    -0.276 C  
HETATM    7  C   UNL     1      -9.354   9.107  65.387  1.00  0.00    -0.258 C  
HETATM    8  C   UNL     1      -8.922   9.656  64.075  1.00  0.00    -0.261 C  
HETATM    9  C   UNL     1      -8.604   8.042  66.164  1.00  0.00    -0.148 C  
HETATM   10  C   UNL     1      -9.117   6.289  68.425  1.00  0.00    -0.114 C  
HETATM   11  C   UNL     1      -8.939   8.477  67.889  1.00  0.00    -0.137 C  
HETATM   12  C   UNL     1     -10.141   8.101  69.508  1.00  0.00    -0.193 C  
HETATM   13  C   UNL     1      -7.950   6.933  69.608  1.00  0.00    -0.125 C  
HETATM   14  O   UNL     1      -7.873   9.509  67.730  1.00  0.00    -0.094 OA 
HETATM   15  H   UNL     1      -7.053   9.080  67.941  1.00  0.00     0.000 HD 
HETATM   16  C   UNL     1     -10.738   6.657  69.904  1.00  0.00    -0.297 C  
HETATM   17  O   UNL     1      -9.877   8.605  70.834  1.00  0.00    -0.182 OA 
HETATM   18  C   UNL     1      -6.119   6.927  67.943  1.00  0.00    -0.033 C  
HETATM   19  C   UNL     1     -10.395   7.336  67.522  1.00  0.00    -0.242 C  
HETATM   20  C   UNL     1      -5.323   7.216  70.227  1.00  0.00    -0.023 C  
HETATM   21  H   UNL     1     -10.434   8.431  71.584  1.00  0.00     0.000 HD 
HETATM   22  C   UNL     1      -6.522   7.443  69.305  1.00  0.00    -0.036 C  
HETATM   23  O   UNL     1     -11.410   6.835  67.013  1.00  0.00    -0.337 OA 
HETATM   24  C   UNL     1     -10.104   5.644  69.319  1.00  0.00    -0.281 C  
ENDROOT
BRANCH   9  25
HETATM   25  O   UNL     1      -8.835   6.724  65.629  1.00  0.00    -0.125 OA 
BRANCH  25  26
HETATM   26  C   UNL     1      -7.880   6.293  64.752  1.00  0.00    -0.110 C  
HETATM   27  O   UNL     1      -6.931   6.969  64.376  1.00  0.00    -0.051 OA 
BRANCH  26  28
HETATM   28  C   UNL     1      -8.017   4.863  64.339  1.00  0.00    -0.104 C  
HETATM   29  C   UNL     1      -7.183   3.611  66.428  1.00  0.00    -0.064 C  
HETATM   30  C   UNL     1      -7.711   3.758  65.047  1.00  0.00    -0.085 C  
HETATM   31  C   UNL     1      -8.655   4.671  62.980  1.00  0.00    -0.115 C  
ENDBRANCH  26  28
ENDBRANCH  25  26
ENDBRANCH   9  25
BRANCH  16  32
HETATM   32  C   UNL     1     -11.989   6.495  70.709  1.00  0.00    -0.287 C  
HETATM   33  H   UNL     1     -12.409   5.998  72.540  1.00  0.00     0.000 HD 
HETATM   34  O   UNL     1     -11.615   6.100  72.029  1.00  0.00    -0.302 OA 
ENDBRANCH  16  32
TORSDOF 4
ENDMDL
MODEL       64
REMARK 921   NORMALIZED FREE ENERGY PREDICTED BY IDOCK:   -4.32 KCAL/MOL
REMARK 922        TOTAL FREE ENERGY PREDICTED BY IDOCK:   -6.45 KCAL/MOL
REMARK 923 INTER-LIGAND FREE ENERGY PREDICTED BY IDOCK:   -5.73 KCAL/MOL
REMARK 924 INTRA-LIGAND FREE ENERGY PREDICTED BY IDOCK:   -0.73 KCAL/MOL
REMARK 927      BINDING AFFINITY PREDICTED BY RF-SCORE:    0.00 PKD
ROOT
HETATM    1  C   UNL     1      -9.991   9.858  69.295  1.00  0.00    -0.217 C  
HETATM    2  C   UNL     1      -9.238   8.343  69.010  1.00  0.00    -0.147 C  
HETATM    3  C   UNL     1      -7.782   8.121  67.962  1.00  0.00    -0.114 C  
HETATM    4  C   UNL     1      -7.790   6.688  67.393  1.00  0.00    -0.113 C  
HETATM    5  C   UNL     1      -7.458   9.347  66.730  1.00  0.00    -0.094 C  
HETATM    6  C   UNL     1      -7.393   8.826  65.335  1.00  0.00    -0.085 C  
HETATM    7  C   UNL     1      -8.384   9.319  64.587  1.00  0.00    -0.167 C  
HETATM    8  C   UNL     1      -8.841   8.746  63.293  1.00  0.00     0.142 C  
HETATM    9  C   UNL     1      -9.163  10.334  65.402  1.00  0.00    -0.193 C  
HETATM   10  C   UNL     1      -8.659  12.112  67.645  1.00  0.00    -0.166 C  
HETATM   11  C   UNL     1      -8.725   9.918  67.108  1.00  0.00    -0.131 C  
HETATM   12  C   UNL     1      -7.476  10.367  68.672  1.00  0.00    -0.088 C  
HETATM   13  C   UNL     1      -9.728  11.395  68.877  1.00  0.00    -0.105 C  
HETATM   14  O   UNL     1      -9.730   8.822  66.993  1.00  0.00    -0.167 OA 
HETATM   15  H   UNL     1     -10.565   9.199  67.242  1.00  0.00     0.000 HD 
HETATM   16  C   UNL     1      -6.953  11.844  69.047  1.00  0.00    -0.098 C  
HETATM   17  O   UNL     1      -7.648   9.845  70.007  1.00  0.00    -0.142 OA 
HETATM   18  C   UNL     1     -11.630  11.288  67.296  1.00  0.00    -0.171 C  
HETATM   19  C   UNL     1      -7.360  11.149  66.681  1.00  0.00    -0.145 C  
HETATM   20  C   UNL     1     -12.302  10.947  69.612  1.00  0.00    -0.290 C  
HETATM   21  H   UNL     1      -7.069  10.053  70.731  1.00  0.00     0.000 HD 
HETATM   22  C   UNL     1     -11.135  10.797  68.636  1.00  0.00    -0.312 C  
HETATM   23  O   UNL     1      -6.403  11.713  66.128  1.00  0.00     0.034 OA 
HETATM   24  C   UNL     1      -7.674  12.816  68.495  1.00  0.00    -0.113 C  
ENDROOT
BRANCH   9  25
HETATM   25  O   UNL     1      -9.040  11.664  64.863  1.00  0.00    -0.015 OA 
BRANCH  25  26
HETATM   26  C   UNL     1      -9.876  11.932  63.815  1.00  0.00    -0.285 C  
HETATM   27  O   UNL     1      -9.687  11.554  62.666  1.00  0.00    -0.263 OA 
BRANCH  26  28
HETATM   28  C   UNL     1     -11.128  12.656  64.191  1.00  0.00    -0.428 C  
HETATM   29  C   UNL     1     -10.214  14.724  65.420  1.00  0.00    -0.415 C  
HETATM   30  C   UNL     1     -11.250  13.814  64.870  1.00  0.00    -0.352 C  
HETATM   31  C   UNL     1     -12.394  12.019  63.658  1.00  0.00    -0.648 C  
ENDBRANCH  26  28
ENDBRANCH  25  26
ENDBRANCH   9  25
BRANCH  16  32
HETATM   32  C   UNL     1      -5.679  12.083  69.795  1.00  0.00    -0.110 C  
HETATM   33  H   UNL     1      -4.933  11.498  71.492  1.00  0.00     0.000 HD 
HETATM   34  O   UNL     1      -5.742  11.347  71.018  1.00  0.00    -0.329 OA 
ENDBRANCH  16  32
TORSDOF 4
ENDMDL
MODEL       65
REMARK 921   NORMALIZED FREE ENERGY PREDICTED BY IDOCK:   -4.26 KCAL/MOL
REMARK 922        TOTAL FREE ENERGY PREDICTED BY IDOCK:   -6.39 KCAL/MOL
REMARK 923 INTER-LIGAND FREE ENERGY PREDICTED BY IDOCK:   -5.29 KCAL/MOL
REMARK 924 INTRA-LIGAND FREE ENERGY PREDICTED BY IDOCK:   -1.10 KCAL/MOL
REMARK 927      BINDING AFFINITY PREDICTED BY RF-SCORE:    0.00 PKD
ROOT
HETATM    1  C   UNL     1      -9.803   4.336  71.099  1.00  0.00    -0.250 C  
HETATM    2  C   UNL     1      -9.190   4.580  72.683  1.00  0.00    -0.145 C  
HETATM    3  C   UNL     1      -9.149   6.186  73.511  1.00  0.00    -0.128 C  
HETATM    4  C   UNL     1      -7.995   6.190  74.534  1.00  0.00    -0.101 C  
HETATM    5  C   UNL     1      -9.174   7.636  72.500  1.00  0.00    -0.208 C  
HETATM    6  C   UNL     1      -8.011   8.549  72.690  1.00  0.00    -0.093 C  
HETATM    7  C   UNL     1      -7.266   8.622  71.583  1.00  0.00    -0.109 C  
HETATM    8  C   UNL     1      -5.867   9.122  71.530  1.00  0.00    -0.069 C  
HETATM    9  C   UNL     1      -7.941   7.831  70.478  1.00  0.00    -0.098 C  
HETATM   10  C   UNL     1     -10.641   7.009  69.783  1.00  0.00    -0.253 C  
HETATM   11  C   UNL     1      -9.066   6.737  71.381  1.00  0.00    -0.142 C  
HETATM   12  C   UNL     1     -10.991   6.495  72.045  1.00  0.00    -0.247 C  
HETATM   13  C   UNL     1     -10.499   5.241  69.957  1.00  0.00    -0.351 C  
HETATM   14  O   UNL     1      -7.868   5.887  71.642  1.00  0.00    -0.103 OA 
HETATM   15  H   UNL     1      -7.797   5.294  70.903  1.00  0.00     0.000 HD 
HETATM   16  C   UNL     1     -12.313   6.964  71.250  1.00  0.00    -0.422 C  
HETATM   17  O   UNL     1     -11.494   5.264  72.606  1.00  0.00    -0.262 OA 
HETATM   18  C   UNL     1      -8.404   5.188  68.639  1.00  0.00    -0.088 C  
HETATM   19  C   UNL     1     -10.169   8.245  71.122  1.00  0.00    -0.198 C  
HETATM   20  C   UNL     1      -9.386   2.980  68.949  1.00  0.00    -0.228 C  
HETATM   21  H   UNL     1     -12.386   5.152  72.914  1.00  0.00     0.000 HD 
HETATM   22  C   UNL     1      -9.277   4.375  69.566  1.00  0.00    -0.196 C  
HETATM   23  O   UNL     1     -10.615   9.404  71.130  1.00  0.00    -0.295 OA 
HETATM   24  C   UNL     1     -12.098   7.197  69.958  1.00  0.00     0.131 C  
ENDROOT
BRANCH   9  25
HETATM   25  O   UNL     1      -8.373   8.680  69.398  1.00  0.00    -0.111 OA 
BRANCH  25  26
HETATM   26  C   UNL     1      -7.640   8.555  68.250  1.00  0.00    -0.097 C  
HETATM   27  O   UNL     1      -6.536   8.028  68.189  1.00  0.00    -0.053 OA 
BRANCH  26  28
HETATM   28  C   UNL     1      -8.334   9.031  67.016  1.00  0.00    -0.116 C  
HETATM   29  C   UNL     1      -8.444  11.574  67.399  1.00  0.00    -0.147 C  
HETATM   30  C   UNL     1      -8.671  10.293  66.683  1.00  0.00    -0.134 C  
HETATM   31  C   UNL     1      -8.608   7.942  66.002  1.00  0.00    -0.166 C  
ENDBRANCH  26  28
ENDBRANCH  25  26
ENDBRANCH   9  25
BRANCH  16  32
HETATM   32  C   UNL     1     -13.602   7.275  71.943  1.00  0.00    -0.216 C  
HETATM   33  H   UNL     1     -14.657   8.876  72.263  1.00  0.00     0.000 HD 
HETATM   34  O   UNL     1     -13.839   8.678  71.824  1.00  0.00    -0.388 OA 
ENDBRANCH  16  32
TORSDOF 4
ENDMDL
MODEL       66
REMARK 921   NORMALIZED FREE ENERGY PREDICTED BY IDOCK:   -4.24 KCAL/MOL
REMARK 922        TOTAL FREE ENERGY PREDICTED BY IDOCK:   -6.36 KCAL/MOL
REMARK 923 INTER-LIGAND FREE ENERGY PREDICTED BY IDOCK:   -5.25 KCAL/MOL
REMARK 924 INTRA-LIGAND FREE ENERGY PREDICTED BY IDOCK:   -1.12 KCAL/MOL
REMARK 927      BINDING AFFINITY PREDICTED BY RF-SCORE:    0.00 PKD
ROOT
HETATM    1  C   UNL     1     -10.701  16.450  67.244  1.00  0.00    -0.257 C  
HETATM    2  C   UNL     1     -11.615  15.938  68.603  1.00  0.00    -0.383 C  
HETATM    3  C   UNL     1     -11.103  14.613  69.721  1.00  0.00    -0.268 C  
HETATM    4  C   UNL     1     -12.359  13.977  70.350  1.00  0.00    -0.429 C  
HETATM    5  C   UNL     1      -9.960  13.411  69.107  1.00  0.00     0.287 C  
HETATM    6  C   UNL     1     -10.448  12.004  69.158  1.00  0.00    -0.005 C  
HETATM    7  C   UNL     1     -10.587  11.495  67.930  1.00  0.00    -0.224 C  
HETATM    8  C   UNL     1     -11.387  10.287  67.596  1.00  0.00    -0.088 C  
HETATM    9  C   UNL     1     -10.084  12.503  66.915  1.00  0.00    -0.225 C  
HETATM   10  C   UNL     1      -8.180  14.699  66.848  1.00  0.00    -0.110 C  
HETATM   11  C   UNL     1     -10.112  14.063  67.833  1.00  0.00    -0.237 C  
HETATM   12  C   UNL     1      -8.991  15.373  68.944  1.00  0.00    -0.208 C  
HETATM   13  C   UNL     1      -9.279  16.075  66.578  1.00  0.00    -0.307 C  
HETATM   14  O   UNL     1     -11.577  14.087  67.548  1.00  0.00    -0.325 OA 
HETATM   15  H   UNL     1     -11.677  14.517  66.707  1.00  0.00     0.000 HD 
HETATM   16  C   UNL     1      -7.440  15.720  68.681  1.00  0.00    -0.151 C  
HETATM   17  O   UNL     1      -9.450  16.684  69.337  1.00  0.00    -0.173 OA 
HETATM   18  C   UNL     1     -10.451  14.897  64.743  1.00  0.00    -0.296 C  
HETATM   19  C   UNL     1      -8.378  13.445  68.239  1.00  0.00    -0.160 C  
HETATM   20  C   UNL     1     -10.961  17.278  64.820  1.00  0.00     0.530 C  
HETATM   21  H   UNL     1      -8.930  17.290  69.852  1.00  0.00     0.000 HD 
HETATM   22  C   UNL     1     -10.535  16.083  65.675  1.00  0.00    -0.416 C  
HETATM   23  O   UNL     1      -7.429  12.746  68.630  1.00  0.00    -0.116 OA 
HETATM   24  C   UNL     1      -7.019  15.376  67.466  1.00  0.00    -0.223 C  
ENDROOT
BRANCH   9  25
HETATM   25  O   UNL     1      -8.917  12.026  66.218  1.00  0.00    -0.200 OA 
BRANCH  25  26
HETATM   26  C   UNL     1      -9.182  11.139  65.211  1.00  0.00    -0.198 C  
HETATM   27  O   UNL     1     -10.068  11.283  64.379  1.00  0.00    -0.257 OA 
BRANCH  26  28
HETATM   28  C   UNL     1      -8.228   9.992  65.129  1.00  0.00    -0.146 C  
HETATM   29  C   UNL     1      -7.847   9.780  62.592  1.00  0.00    -0.126 C  
HETATM   30  C   UNL     1      -7.690   9.431  64.027  1.00  0.00    -0.121 C  
HETATM   31  C   UNL     1      -7.771   9.470  66.475  1.00  0.00    -0.097 C  
ENDBRANCH  26  28
ENDBRANCH  25  26
ENDBRANCH   9  25
BRANCH  16  32
HETATM   32  C   UNL     1      -6.530  16.214  69.761  1.00  0.00    -0.159 C  
HETATM   33  H   UNL     1      -6.027  17.954  70.467  1.00  0.00     0.000 HD 
HETATM   34  O   UNL     1      -6.604  17.640  69.781  1.00  0.00    -0.158 OA 
ENDBRANCH  16  32
TORSDOF 4
ENDMDL
MODEL       67
REMARK 921   NORMALIZED FREE ENERGY PREDICTED BY IDOCK:   -4.20 KCAL/MOL
REMARK 922        TOTAL FREE ENERGY PREDICTED BY IDOCK:   -6.31 KCAL/MOL
REMARK 923 INTER-LIGAND FREE ENERGY PREDICTED BY IDOCK:   -5.30 KCAL/MOL
REMARK 924 INTRA-LIGAND FREE ENERGY PREDICTED BY IDOCK:   -1.01 KCAL/MOL
REMARK 927      BINDING AFFINITY PREDICTED BY RF-SCORE:    0.00 PKD
ROOT
HETATM    1  C   UNL     1     -10.926   7.550  68.064  1.00  0.00     0.004 C  
HETATM    2  C   UNL     1     -10.853   7.861  69.750  1.00  0.00    -0.202 C  
HETATM    3  C   UNL     1      -9.892   9.204  70.486  1.00  0.00    -0.285 C  
HETATM    4  C   UNL     1      -9.499   8.807  71.923  1.00  0.00    -0.362 C  
HETATM    5  C   UNL     1      -8.535   9.853  69.558  1.00  0.00    -0.184 C  
HETATM    6  C   UNL     1      -7.215   9.776  70.247  1.00  0.00    -0.154 C  
HETATM    7  C   UNL     1      -6.378   8.959  69.602  1.00  0.00    -0.042 C  
HETATM    8  C   UNL     1      -5.147   8.366  70.188  1.00  0.00    -0.022 C  
HETATM    9  C   UNL     1      -7.037   8.484  68.321  1.00  0.00    -0.085 C  
HETATM   10  C   UNL     1      -9.068   9.450  66.479  1.00  0.00    -0.188 C  
HETATM   11  C   UNL     1      -8.795   8.790  68.623  1.00  0.00    -0.138 C  
HETATM   12  C   UNL     1     -10.339  10.110  68.337  1.00  0.00    -0.183 C  
HETATM   13  C   UNL     1     -10.337   8.223  66.720  1.00  0.00    -0.361 C  
HETATM   14  O   UNL     1      -8.776   7.524  69.412  1.00  0.00    -0.136 OA 
HETATM   15  H   UNL     1      -8.948   6.823  68.795  1.00  0.00     0.000 HD 
HETATM   16  C   UNL     1     -10.553  11.015  67.021  1.00  0.00    -0.303 C  
HETATM   17  O   UNL     1     -11.719   9.799  68.622  1.00  0.00    -0.382 OA 
HETATM   18  C   UNL     1      -8.713   6.367  66.505  1.00  0.00    -0.133 C  
HETATM   19  C   UNL     1      -8.273  10.439  67.871  1.00  0.00    -0.106 C  
HETATM   20  C   UNL     1     -11.027   5.624  66.359  1.00  0.00    -0.083 C  
HETATM   21  H   UNL     1     -12.434  10.412  68.489  1.00  0.00     0.000 HD 
HETATM   22  C   UNL     1     -10.119   6.707  66.941  1.00  0.00    -0.258 C  
HETATM   23  O   UNL     1      -7.692  11.515  67.660  1.00  0.00    -0.112 OA 
HETATM   24  C   UNL     1      -9.863  10.588  65.967  1.00  0.00    -0.277 C  
ENDROOT
BRANCH   9  25
HETATM   25  O   UNL     1      -6.347   8.968  67.152  1.00  0.00    -0.058 OA 
BRANCH  25  26
HETATM   26  C   UNL     1      -5.668   8.006  66.456  1.00  0.00    -0.040 C  
HETATM   27  O   UNL     1      -5.243   6.969  66.947  1.00  0.00    -0.016 OA 
BRANCH  26  28
HETATM   28  C   UNL     1      -5.556   8.265  64.989  1.00  0.00    -0.044 C  
HETATM   29  C   UNL     1      -5.442  10.835  64.895  1.00  0.00    -0.078 C  
HETATM   30  C   UNL     1      -5.474   9.452  64.355  1.00  0.00    -0.060 C  
HETATM   31  C   UNL     1      -5.447   7.012  64.147  1.00  0.00    -0.032 C  
ENDBRANCH  26  28
ENDBRANCH  25  26
ENDBRANCH   9  25
BRANCH  16  32
HETATM   32  C   UNL     1     -11.313  12.304  67.044  1.00  0.00    -0.334 C  
HETATM   33  H   UNL     1     -12.743  13.094  65.992  1.00  0.00     0.000 HD 
HETATM   34  O   UNL     1     -12.261  12.276  65.977  1.00  0.00    -0.646 OA 
ENDBRANCH  16  32
TORSDOF 4
ENDMDL
MODEL       68
REMARK 921   NORMALIZED FREE ENERGY PREDICTED BY IDOCK:   -4.18 KCAL/MOL
REMARK 922        TOTAL FREE ENERGY PREDICTED BY IDOCK:   -6.29 KCAL/MOL
REMARK 923 INTER-LIGAND FREE ENERGY PREDICTED BY IDOCK:   -4.96 KCAL/MOL
REMARK 924 INTRA-LIGAND FREE ENERGY PREDICTED BY IDOCK:   -1.33 KCAL/MOL
REMARK 927      BINDING AFFINITY PREDICTED BY RF-SCORE:    0.00 PKD
ROOT
HETATM    1  C   UNL     1     -11.409   6.572  68.962  1.00  0.00    -0.296 C  
HETATM    2  C   UNL     1     -10.942   7.300  67.480  1.00  0.00    -0.221 C  
HETATM    3  C   UNL     1      -9.289   7.157  66.763  1.00  0.00    -0.199 C  
HETATM    4  C   UNL     1      -9.015   8.396  65.887  1.00  0.00    -0.223 C  
HETATM    5  C   UNL     1      -7.948   6.775  67.851  1.00  0.00    -0.114 C  
HETATM    6  C   UNL     1      -6.847   7.779  67.858  1.00  0.00    -0.068 C  
HETATM    7  C   UNL     1      -6.743   8.377  69.049  1.00  0.00    -0.052 C  
HETATM    8  C   UNL     1      -6.029   9.656  69.300  1.00  0.00    -0.034 C  
HETATM    9  C   UNL     1      -7.719   7.732  70.014  1.00  0.00    -0.091 C  
HETATM   10  C   UNL     1      -9.023   5.153  70.329  1.00  0.00    -0.156 C  
HETATM   11  C   UNL     1      -8.905   6.914  68.918  1.00  0.00    -0.129 C  
HETATM   12  C   UNL     1      -9.402   5.141  68.014  1.00  0.00    -0.121 C  
HETATM   13  C   UNL     1     -10.724   5.613  70.065  1.00  0.00    -0.390 C  
HETATM   14  O   UNL     1      -9.526   8.260  68.750  1.00  0.00    -0.147 OA 
HETATM   15  H   UNL     1     -10.157   8.351  69.454  1.00  0.00     0.000 HD 
HETATM   16  C   UNL     1      -9.219   3.681  68.672  1.00  0.00    -0.221 C  
HETATM   17  O   UNL     1     -10.649   4.919  67.322  1.00  0.00    -0.102 OA 
HETATM   18  C   UNL     1     -10.543   7.532  71.618  1.00  0.00    -0.232 C  
HETATM   19  C   UNL     1      -7.622   5.549  69.134  1.00  0.00    -0.086 C  
HETATM   20  C   UNL     1     -12.848   6.979  71.058  1.00  0.00    -0.258 C  
HETATM   21  H   UNL     1     -10.879   4.098  66.903  1.00  0.00     0.000 HD 
HETATM   22  C   UNL     1     -11.409   6.914  70.545  1.00  0.00    -0.374 C  
HETATM   23  O   UNL     1      -6.555   4.915  69.145  1.00  0.00    -0.041 OA 
HETATM   24  C   UNL     1      -9.060   3.713  69.992  1.00  0.00    -0.197 C  
ENDROOT
BRANCH   9  25
HETATM   25  O   UNL     1      -7.042   7.048  71.085  1.00  0.00    -0.071 OA 
BRANCH  25  26
HETATM   26  C   UNL     1      -7.172   7.642  72.310  1.00  0.00    -0.076 C  
HETATM   27  O   UNL     1      -7.182   8.853  72.492  1.00  0.00    -0.335 OA 
BRANCH  26  28
HETATM   28  C   UNL     1      -7.405   6.692  73.439  1.00  0.00    -0.080 C  
HETATM   29  C   UNL     1      -5.831   4.744  72.846  1.00  0.00    -0.016 C  
HETATM   30  C   UNL     1      -6.845   5.482  73.640  1.00  0.00    -0.080 C  
HETATM   31  C   UNL     1      -8.334   7.221  74.510  1.00  0.00    -0.233 C  
ENDBRANCH  26  28
ENDBRANCH  25  26
ENDBRANCH   9  25
BRANCH  16  32
HETATM   32  C   UNL     1      -9.068   2.440  67.851  1.00  0.00    -0.184 C  
HETATM   33  H   UNL     1      -8.750   2.045  65.974  1.00  0.00     0.000 HD 
HETATM   34  O   UNL     1      -8.847   2.833  66.495  1.00  0.00    -0.132 OA 
ENDBRANCH  16  32
TORSDOF 4
ENDMDL
MODEL       69
REMARK 921   NORMALIZED FREE ENERGY PREDICTED BY IDOCK:   -4.10 KCAL/MOL
REMARK 922        TOTAL FREE ENERGY PREDICTED BY IDOCK:   -6.19 KCAL/MOL
REMARK 923 INTER-LIGAND FREE ENERGY PREDICTED BY IDOCK:   -6.64 KCAL/MOL
REMARK 924 INTRA-LIGAND FREE ENERGY PREDICTED BY IDOCK:    0.46 KCAL/MOL
REMARK 927      BINDING AFFINITY PREDICTED BY RF-SCORE:    0.00 PKD
ROOT
HETATM    1  C   UNL     1     -11.557  16.183  69.059  1.00  0.00    -0.298 C  
HETATM    2  C   UNL     1     -10.098  17.058  68.833  1.00  0.00    -0.307 C  
HETATM    3  C   UNL     1      -8.763  16.524  67.739  1.00  0.00    -0.197 C  
HETATM    4  C   UNL     1      -7.430  17.099  68.260  1.00  0.00    -0.217 C  
HETATM    5  C   UNL     1      -8.660  14.805  67.339  1.00  0.00    -0.210 C  
HETATM    6  C   UNL     1      -7.368  14.157  67.704  1.00  0.00    -0.191 C  
HETATM    7  C   UNL     1      -7.542  13.226  68.647  1.00  0.00    -0.094 C  
HETATM    8  C   UNL     1      -6.459  12.662  69.495  1.00  0.00    -0.078 C  
HETATM    9  C   UNL     1      -9.024  13.079  68.931  1.00  0.00     0.326 C  
HETATM   10  C   UNL     1     -11.524  13.504  67.511  1.00  0.00    -0.361 C  
HETATM   11  C   UNL     1      -9.723  14.622  68.293  1.00  0.00    -0.215 C  
HETATM   12  C   UNL     1     -10.630  15.508  66.681  1.00  0.00    -0.307 C  
HETATM   13  C   UNL     1     -12.221  14.836  68.467  1.00  0.00    -0.114 C  
HETATM   14  O   UNL     1      -9.255  15.243  69.566  1.00  0.00    -0.319 OA 
HETATM   15  H   UNL     1      -9.956  15.123  70.195  1.00  0.00     0.000 HD 
HETATM   16  C   UNL     1     -11.690  14.789  65.702  1.00  0.00    -0.257 C  
HETATM   17  O   UNL     1     -11.221  16.825  66.720  1.00  0.00     0.152 OA 
HETATM   18  C   UNL     1     -11.753  13.670  70.601  1.00  0.00    -0.104 C  
HETATM   19  C   UNL     1      -9.800  13.534  66.754  1.00  0.00    -0.267 C  
HETATM   20  C   UNL     1     -13.283  15.548  70.861  1.00  0.00    -0.474 C  
HETATM   21  H   UNL     1     -11.641  17.235  65.973  1.00  0.00     0.000 HD 
HETATM   22  C   UNL     1     -12.140  15.003  70.003  1.00  0.00    -0.382 C  
HETATM   23  O   UNL     1      -9.487  12.793  65.809  1.00  0.00    -0.154 OA 
HETATM   24  C   UNL     1     -12.222  13.685  66.218  1.00  0.00    -0.484 C  
ENDROOT
BRANCH   9  25
HETATM   25  O   UNL     1      -9.517  11.780  68.552  1.00  0.00    -0.200 OA 
BRANCH  25  26
HETATM   26  C   UNL     1      -8.571  10.792  68.552  1.00  0.00    -0.148 C  
HETATM   27  O   UNL     1      -8.049  10.336  69.562  1.00  0.00    -0.155 OA 
BRANCH  26  28
HETATM   28  C   UNL     1      -8.275  10.217  67.206  1.00  0.00    -0.121 C  
HETATM   29  C   UNL     1      -5.808  10.870  66.865  1.00  0.00    -0.072 C  
HETATM   30  C   UNL     1      -7.120  10.269  66.512  1.00  0.00    -0.108 C  
HETATM   31  C   UNL     1      -9.414   9.418  66.610  1.00  0.00    -0.230 C  
ENDBRANCH  26  28
ENDBRANCH  25  26
ENDBRANCH   9  25
BRANCH  16  32
HETATM   32  C   UNL     1     -11.910  15.230  64.289  1.00  0.00    -0.225 C  
HETATM   33  H   UNL     1     -12.730  14.459  62.704  1.00  0.00     0.000 HD 
HETATM   34  O   UNL     1     -12.590  14.179  63.601  1.00  0.00    -0.831 OA 
ENDBRANCH  16  32
TORSDOF 4
ENDMDL
MODEL       70
REMARK 921   NORMALIZED FREE ENERGY PREDICTED BY IDOCK:   -4.09 KCAL/MOL
REMARK 922        TOTAL FREE ENERGY PREDICTED BY IDOCK:   -6.18 KCAL/MOL
REMARK 923 INTER-LIGAND FREE ENERGY PREDICTED BY IDOCK:   -5.06 KCAL/MOL
REMARK 924 INTRA-LIGAND FREE ENERGY PREDICTED BY IDOCK:   -1.11 KCAL/MOL
REMARK 927      BINDING AFFINITY PREDICTED BY RF-SCORE:    0.00 PKD
ROOT
HETATM    1  C   UNL     1     -10.216   8.432  70.701  1.00  0.00    -0.222 C  
HETATM    2  C   UNL     1      -8.677   8.850  71.333  1.00  0.00    -0.262 C  
HETATM    3  C   UNL     1      -7.203   9.095  70.316  1.00  0.00    -0.075 C  
HETATM    4  C   UNL     1      -5.953   8.782  71.165  1.00  0.00    -0.045 C  
HETATM    5  C   UNL     1      -7.161   8.327  68.724  1.00  0.00    -0.071 C  
HETATM    6  C   UNL     1      -6.018   7.394  68.512  1.00  0.00    -0.027 C  
HETATM    7  C   UNL     1      -6.442   6.137  68.350  1.00  0.00    -0.053 C  
HETATM    8  C   UNL     1      -5.590   4.927  68.490  1.00  0.00    -0.016 C  
HETATM    9  C   UNL     1      -7.958   6.125  68.325  1.00  0.00    -0.107 C  
HETATM   10  C   UNL     1     -10.099   7.970  67.643  1.00  0.00    -0.269 C  
HETATM   11  C   UNL     1      -8.398   7.697  69.106  1.00  0.00    -0.131 C  
HETATM   12  C   UNL     1      -8.907   9.654  68.760  1.00  0.00    -0.130 C  
HETATM   13  C   UNL     1     -10.859   8.192  69.239  1.00  0.00    -0.064 C  
HETATM   14  O   UNL     1      -8.135   7.011  70.404  1.00  0.00    -0.115 OA 
HETATM   15  H   UNL     1      -8.951   6.595  70.656  1.00  0.00     0.000 HD 
HETATM   16  C   UNL     1      -9.813  10.173  67.532  1.00  0.00    -0.211 C  
HETATM   17  O   UNL     1      -9.388  10.548  69.786  1.00  0.00    -0.418 OA 
HETATM   18  C   UNL     1     -10.902   5.753  69.660  1.00  0.00    -0.418 C  
HETATM   19  C   UNL     1      -8.265   8.224  67.300  1.00  0.00    -0.120 C  
HETATM   20  C   UNL     1     -12.300   7.008  71.210  1.00  0.00    -0.426 C  
HETATM   21  H   UNL     1      -9.624  11.454  69.626  1.00  0.00     0.000 HD 
HETATM   22  C   UNL     1     -11.061   7.103  70.320  1.00  0.00    -0.303 C  
HETATM   23  O   UNL     1      -7.836   8.431  66.154  1.00  0.00    -0.097 OA 
HETATM   24  C   UNL     1     -10.519   9.208  66.951  1.00  0.00    -0.287 C  
ENDROOT
BRANCH   9  25
HETATM   25  O   UNL     1      -8.470   5.718  67.041  1.00  0.00    -0.108 OA 
BRANCH  25  26
HETATM   26  C   UNL     1      -8.817   4.397  66.962  1.00  0.00    -0.114 C  
HETATM   27  O   UNL     1      -9.344   3.765  67.868  1.00  0.00    -0.161 OA 
BRANCH  26  28
HETATM   28  C   UNL     1      -8.592   3.777  65.621  1.00  0.00    -0.112 C  
HETATM   29  C   UNL     1     -10.900   4.027  64.510  1.00  0.00    -0.142 C  
HETATM   30  C   UNL     1      -9.475   3.621  64.615  1.00  0.00    -0.159 C  
HETATM   31  C   UNL     1      -7.161   3.352  65.369  1.00  0.00    -0.062 C  
ENDBRANCH  26  28
ENDBRANCH  25  26
ENDBRANCH   9  25
BRANCH  16  32
HETATM   32  C   UNL     1      -9.723  11.568  66.998  1.00  0.00    -0.184 C  
HETATM   33  H   UNL     1      -8.409  13.000  67.064  1.00  0.00     0.000 HD 
HETATM   34  O   UNL     1      -8.467  12.115  67.403  1.00  0.00    -0.156 OA 
ENDBRANCH  16  32
TORSDOF 4
ENDMDL
MODEL       71
REMARK 921   NORMALIZED FREE ENERGY PREDICTED BY IDOCK:   -4.08 KCAL/MOL
REMARK 922        TOTAL FREE ENERGY PREDICTED BY IDOCK:   -6.17 KCAL/MOL
REMARK 923 INTER-LIGAND FREE ENERGY PREDICTED BY IDOCK:   -5.38 KCAL/MOL
REMARK 924 INTRA-LIGAND FREE ENERGY PREDICTED BY IDOCK:   -0.78 KCAL/MOL
REMARK 927      BINDING AFFINITY PREDICTED BY RF-SCORE:    0.00 PKD
ROOT
HETATM    1  C   UNL     1      -9.384   5.260  71.488  1.00  0.00    -0.182 C  
HETATM    2  C   UNL     1      -8.271   6.199  72.395  1.00  0.00    -0.108 C  
HETATM    3  C   UNL     1      -8.255   8.006  72.410  1.00  0.00    -0.193 C  
HETATM    4  C   UNL     1      -6.824   8.490  72.720  1.00  0.00    -0.065 C  
HETATM    5  C   UNL     1      -8.982   8.850  71.037  1.00  0.00    -0.298 C  
HETATM    6  C   UNL     1      -8.061   9.773  70.314  1.00  0.00    -0.181 C  
HETATM    7  C   UNL     1      -7.841   9.356  69.063  1.00  0.00    -0.079 C  
HETATM    8  C   UNL     1      -6.715   9.805  68.203  1.00  0.00    -0.061 C  
HETATM    9  C   UNL     1      -8.706   8.142  68.785  1.00  0.00    -0.138 C  
HETATM   10  C   UNL     1     -11.220   7.044  69.748  1.00  0.00    -0.257 C  
HETATM   11  C   UNL     1      -9.129   7.547  70.442  1.00  0.00    -0.153 C  
HETATM   12  C   UNL     1     -10.543   7.592  71.927  1.00  0.00    -0.211 C  
HETATM   13  C   UNL     1     -10.646   5.545  70.522  1.00  0.00    -0.339 C  
HETATM   14  O   UNL     1      -7.772   6.926  70.455  1.00  0.00    -0.093 OA 
HETATM   15  H   UNL     1      -7.869   6.066  70.063  1.00  0.00     0.000 HD 
HETATM   16  C   UNL     1     -12.136   7.630  71.689  1.00  0.00    -0.336 C  
HETATM   17  O   UNL     1     -10.511   6.733  73.087  1.00  0.00    -0.225 OA 
HETATM   18  C   UNL     1      -9.271   4.946  68.552  1.00  0.00    -0.157 C  
HETATM   19  C   UNL     1     -10.540   8.758  70.130  1.00  0.00    -0.221 C  
HETATM   20  C   UNL     1      -9.558   3.094  70.107  1.00  0.00    -0.172 C  
HETATM   21  H   UNL     1     -11.167   6.754  73.775  1.00  0.00     0.000 HD 
HETATM   22  C   UNL     1      -9.519   4.619  70.006  1.00  0.00    -0.242 C  
HETATM   23  O   UNL     1     -11.184   9.789  69.878  1.00  0.00    -0.241 OA 
HETATM   24  C   UNL     1     -12.497   7.264  70.462  1.00  0.00     0.006 C  
ENDROOT
BRANCH   9  25
HETATM   25  O   UNL     1      -9.696   8.409  67.773  1.00  0.00    -0.152 OA 
BRANCH  25  26
HETATM   26  C   UNL     1      -9.631   7.583  66.685  1.00  0.00    -0.200 C  
HETATM   27  O   UNL     1     -10.458   6.719  66.422  1.00  0.00    -0.075 OA 
BRANCH  26  28
HETATM   28  C   UNL     1      -8.500   7.874  65.753  1.00  0.00    -0.152 C  
HETATM   29  C   UNL     1      -9.075  10.240  64.919  1.00  0.00    -0.250 C  
HETATM   30  C   UNL     1      -8.290   8.983  65.016  1.00  0.00    -0.174 C  
HETATM   31  C   UNL     1      -7.436   6.797  65.717  1.00  0.00    -0.085 C  
ENDBRANCH  26  28
ENDBRANCH  25  26
ENDBRANCH   9  25
BRANCH  16  32
HETATM   32  C   UNL     1     -13.088   8.194  72.696  1.00  0.00     0.095 C  
HETATM   33  H   UNL     1     -13.893   9.932  73.029  1.00  0.00     0.000 HD 
HETATM   34  O   UNL     1     -13.288   9.574  72.389  1.00  0.00    -0.446 OA 
ENDBRANCH  16  32
TORSDOF 4
ENDMDL
MODEL       72
REMARK 921   NORMALIZED FREE ENERGY PREDICTED BY IDOCK:   -4.06 KCAL/MOL
REMARK 922        TOTAL FREE ENERGY PREDICTED BY IDOCK:   -6.14 KCAL/MOL
REMARK 923 INTER-LIGAND FREE ENERGY PREDICTED BY IDOCK:   -4.95 KCAL/MOL
REMARK 924 INTRA-LIGAND FREE ENERGY PREDICTED BY IDOCK:   -1.19 KCAL/MOL
REMARK 927      BINDING AFFINITY PREDICTED BY RF-SCORE:    0.00 PKD
ROOT
HETATM    1  C   UNL     1      -8.343   9.411  70.777  1.00  0.00    -0.180 C  
HETATM    2  C   UNL     1      -8.841  10.569  69.613  1.00  0.00     0.042 C  
HETATM    3  C   UNL     1     -10.020  10.223  68.287  1.00  0.00    -0.166 C  
HETATM    4  C   UNL     1      -9.732  11.167  67.103  1.00  0.00    -0.199 C  
HETATM    5  C   UNL     1     -10.230   8.540  67.788  1.00  0.00    -0.283 C  
HETATM    6  C   UNL     1      -9.952   8.278  66.347  1.00  0.00    -0.264 C  
HETATM    7  C   UNL     1      -8.894   7.475  66.195  1.00  0.00    -0.185 C  
HETATM    8  C   UNL     1      -8.123   7.312  64.935  1.00  0.00    -0.108 C  
HETATM    9  C   UNL     1      -8.419   7.018  67.562  1.00  0.00    -0.122 C  
HETATM   10  C   UNL     1      -9.568   6.628  70.203  1.00  0.00    -0.168 C  
HETATM   11  C   UNL     1      -9.141   8.243  68.681  1.00  0.00    -0.140 C  
HETATM   12  C   UNL     1     -10.723   8.650  69.922  1.00  0.00    -0.225 C  
HETATM   13  C   UNL     1      -8.693   7.874  71.127  1.00  0.00    -0.146 C  
HETATM   14  O   UNL     1      -8.013   9.131  68.276  1.00  0.00    -0.102 OA 
HETATM   15  H   UNL     1      -7.295   8.936  68.866  1.00  0.00     0.000 HD 
HETATM   16  C   UNL     1     -11.479   7.568  70.847  1.00  0.00    -0.303 C  
HETATM   17  O   UNL     1     -10.764   9.779  70.821  1.00  0.00    -0.303 OA 
HETATM   18  C   UNL     1      -6.512   7.167  70.193  1.00  0.00    -0.042 C  
HETATM   19  C   UNL     1     -10.525   6.963  68.616  1.00  0.00    -0.195 C  
HETATM   20  C   UNL     1      -6.286   8.640  72.120  1.00  0.00    -0.073 C  
HETATM   21  H   UNL     1     -11.497   9.967  71.395  1.00  0.00     0.000 HD 
HETATM   22  C   UNL     1      -7.207   8.270  70.956  1.00  0.00    -0.061 C  
HETATM   23  O   UNL     1     -11.410   6.194  68.210  1.00  0.00    -0.253 OA 
HETATM   24  C   UNL     1     -10.779   6.452  71.034  1.00  0.00    -0.301 C  
ENDROOT
BRANCH   9  25
HETATM   25  O   UNL     1      -8.586   5.598  67.741  1.00  0.00    -0.103 OA 
BRANCH  25  26
HETATM   26  C   UNL     1      -7.500   4.850  67.379  1.00  0.00    -0.082 C  
HETATM   27  O   UNL     1      -6.384   5.308  67.170  1.00  0.00    -0.037 OA 
BRANCH  26  28
HETATM   28  C   UNL     1      -7.745   3.377  67.348  1.00  0.00    -0.078 C  
HETATM   29  C   UNL     1      -8.824   3.052  65.034  1.00  0.00    -0.125 C  
HETATM   30  C   UNL     1      -8.309   2.645  66.366  1.00  0.00    -0.091 C  
HETATM   31  C   UNL     1      -7.211   2.636  68.555  1.00  0.00    -0.048 C  
ENDBRANCH  26  28
ENDBRANCH  25  26
ENDBRANCH   9  25
BRANCH  16  32
HETATM   32  C   UNL     1     -12.896   7.740  71.294  1.00  0.00    -0.233 C  
HETATM   33  H   UNL     1     -13.801   8.752  72.686  1.00  0.00     0.000 HD 
HETATM   34  O   UNL     1     -12.902   8.642  72.401  1.00  0.00    -0.378 OA 
ENDBRANCH  16  32
TORSDOF 4
ENDMDL
MODEL       73
REMARK 921   NORMALIZED FREE ENERGY PREDICTED BY IDOCK:   -4.04 KCAL/MOL
REMARK 922        TOTAL FREE ENERGY PREDICTED BY IDOCK:   -6.11 KCAL/MOL
REMARK 923 INTER-LIGAND FREE ENERGY PREDICTED BY IDOCK:   -5.23 KCAL/MOL
REMARK 924 INTRA-LIGAND FREE ENERGY PREDICTED BY IDOCK:   -0.88 KCAL/MOL
REMARK 927      BINDING AFFINITY PREDICTED BY RF-SCORE:    0.00 PKD
ROOT
HETATM    1  C   UNL     1     -10.699  15.787  70.127  1.00  0.00    -0.354 C  
HETATM    2  C   UNL     1      -9.030  15.809  70.524  1.00  0.00     1.614 C  
HETATM    3  C   UNL     1      -7.703  15.845  69.298  1.00  0.00    -0.222 C  
HETATM    4  C   UNL     1      -6.443  15.194  69.905  1.00  0.00    -0.171 C  
HETATM    5  C   UNL     1      -8.065  15.252  67.672  1.00  0.00    -0.173 C  
HETATM    6  C   UNL     1      -7.200  14.129  67.211  1.00  0.00     0.011 C  
HETATM    7  C   UNL     1      -7.911  13.010  67.036  1.00  0.00     0.015 C  
HETATM    8  C   UNL     1      -7.337  11.642  66.951  1.00  0.00    -0.125 C  
HETATM    9  C   UNL     1      -9.380  13.316  67.260  1.00  0.00    -0.226 C  
HETATM   10  C   UNL     1     -11.134  15.626  67.068  1.00  0.00    -0.200 C  
HETATM   11  C   UNL     1      -9.341  14.857  68.208  1.00  0.00    -0.195 C  
HETATM   12  C   UNL     1      -9.449  16.902  68.085  1.00  0.00    -0.251 C  
HETATM   13  C   UNL     1     -11.585  15.837  68.778  1.00  0.00    -0.401 C  
HETATM   14  O   UNL     1      -9.050  14.002  69.396  1.00  0.00    -0.254 OA 
HETATM   15  H   UNL     1      -9.892  13.742  69.749  1.00  0.00     0.000 HD 
HETATM   16  C   UNL     1     -10.387  17.721  67.062  1.00  0.00    -0.344 C  
HETATM   17  O   UNL     1      -9.566  17.767  69.235  1.00  0.00    -0.104 OA 
HETATM   18  C   UNL     1     -12.105  13.430  69.034  1.00  0.00    -0.299 C  
HETATM   19  C   UNL     1      -9.360  15.526  66.445  1.00  0.00    -0.298 C  
HETATM   20  C   UNL     1     -12.949  14.783  70.875  1.00  0.00    -0.422 C  
HETATM   21  H   UNL     1      -9.616  18.714  69.178  1.00  0.00     0.000 HD 
HETATM   22  C   UNL     1     -11.863  14.709  69.801  1.00  0.00    -0.366 C  
HETATM   23  O   UNL     1      -9.068  15.756  65.261  1.00  0.00    -0.019 OA 
HETATM   24  C   UNL     1     -11.367  16.988  66.540  1.00  0.00     0.836 C  
ENDROOT
BRANCH   9  25
HETATM   25  O   UNL     1     -10.151  13.158  66.053  1.00  0.00    -0.277 OA 
BRANCH  25  26
HETATM   26  C   UNL     1     -11.041  12.121  66.082  1.00  0.00    -0.312 C  
HETATM   27  O   UNL     1     -12.255  12.254  66.171  1.00  0.00    -0.647 OA 
BRANCH  26  28
HETATM   28  C   UNL     1     -10.427  10.771  65.894  1.00  0.00    -0.270 C  
HETATM   29  C   UNL     1      -9.732  10.828  63.416  1.00  0.00    -0.394 C  
HETATM   30  C   UNL     1      -9.896  10.245  64.772  1.00  0.00    -0.403 C  
HETATM   31  C   UNL     1     -10.339   9.951  67.163  1.00  0.00    -0.304 C  
ENDBRANCH  26  28
ENDBRANCH  25  26
ENDBRANCH   9  25
BRANCH  16  32
HETATM   32  C   UNL     1     -10.069  19.114  66.616  1.00  0.00    -0.395 C  
HETATM   33  H   UNL     1      -8.458  20.191  66.464  1.00  0.00     0.000 HD 
HETATM   34  O   UNL     1      -8.660  19.307  66.747  1.00  0.00    -0.282 OA 
ENDBRANCH  16  32
TORSDOF 4
ENDMDL
MODEL       74
REMARK 921   NORMALIZED FREE ENERGY PREDICTED BY IDOCK:   -4.02 KCAL/MOL
REMARK 922        TOTAL FREE ENERGY PREDICTED BY IDOCK:   -6.09 KCAL/MOL
REMARK 923 INTER-LIGAND FREE ENERGY PREDICTED BY IDOCK:   -5.16 KCAL/MOL
REMARK 924 INTRA-LIGAND FREE ENERGY PREDICTED BY IDOCK:   -0.93 KCAL/MOL
REMARK 927      BINDING AFFINITY PREDICTED BY RF-SCORE:    0.00 PKD
ROOT
HETATM    1  C   UNL     1      -5.880   8.460  68.445  1.00  0.00    -0.041 C  
HETATM    2  C   UNL     1      -6.059   6.814  67.997  1.00  0.00    -0.032 C  
HETATM    3  C   UNL     1      -7.414   6.189  66.977  1.00  0.00    -0.087 C  
HETATM    4  C   UNL     1      -7.658   4.706  67.325  1.00  0.00    -0.086 C  
HETATM    5  C   UNL     1      -8.907   7.135  66.918  1.00  0.00    -0.132 C  
HETATM    6  C   UNL     1     -10.128   6.399  67.352  1.00  0.00    -0.198 C  
HETATM    7  C   UNL     1     -10.644   6.930  68.465  1.00  0.00    -0.247 C  
HETATM    8  C   UNL     1     -11.610   6.247  69.365  1.00  0.00    -0.172 C  
HETATM    9  C   UNL     1      -9.859   8.176  68.829  1.00  0.00    -0.176 C  
HETATM   10  C   UNL     1      -8.258  10.172  67.449  1.00  0.00    -0.114 C  
HETATM   11  C   UNL     1      -8.304   7.964  67.929  1.00  0.00    -0.126 C  
HETATM   12  C   UNL     1      -7.286   8.433  66.211  1.00  0.00    -0.086 C  
HETATM   13  C   UNL     1      -6.654   9.847  68.154  1.00  0.00    -0.056 C  
HETATM   14  O   UNL     1      -7.904   7.049  69.037  1.00  0.00    -0.110 OA 
HETATM   15  H   UNL     1      -7.506   7.596  69.704  1.00  0.00     0.000 HD 
HETATM   16  C   UNL     1      -7.380   9.841  65.432  1.00  0.00    -0.118 C  
HETATM   17  O   UNL     1      -5.882   8.162  66.014  1.00  0.00    -0.039 OA 
HETATM   18  C   UNL     1      -7.568   9.818  70.454  1.00  0.00    -0.165 C  
HETATM   19  C   UNL     1      -9.341   8.864  66.636  1.00  0.00    -0.185 C  
HETATM   20  C   UNL     1      -5.137   9.961  70.401  1.00  0.00    -0.037 C  
HETATM   21  H   UNL     1      -5.411   8.379  65.218  1.00  0.00     0.000 HD 
HETATM   22  C   UNL     1      -6.357   9.465  69.623  1.00  0.00    -0.040 C  
HETATM   23  O   UNL     1     -10.247   9.165  65.842  1.00  0.00    -0.209 OA 
HETATM   24  C   UNL     1      -7.885  10.823  66.174  1.00  0.00    -0.155 C  
ENDROOT
BRANCH   9  25
HETATM   25  O   UNL     1     -10.666   9.366  68.730  1.00  0.00    -0.220 OA 
BRANCH  25  26
HETATM   26  C   UNL     1     -11.003   9.925  69.931  1.00  0.00    -0.281 C  
HETATM   27  O   UNL     1     -10.789   9.405  71.019  1.00  0.00    -0.281 OA 
BRANCH  26  28
HETATM   28  C   UNL     1     -11.581  11.299  69.835  1.00  0.00    -0.413 C  
HETATM   29  C   UNL     1     -13.056  11.419  71.942  1.00  0.00    -0.505 C  
HETATM   30  C   UNL     1     -12.445  11.902  70.677  1.00  0.00    -0.347 C  
HETATM   31  C   UNL     1     -11.048  12.114  68.676  1.00  0.00    -0.297 C  
ENDBRANCH  26  28
ENDBRANCH  25  26
ENDBRANCH   9  25
BRANCH  16  32
HETATM   32  C   UNL     1      -7.092   9.974  63.970  1.00  0.00    -0.126 C  
HETATM   33  H   UNL     1      -5.558   9.653  62.820  1.00  0.00     0.000 HD 
HETATM   34  O   UNL     1      -5.741   9.569  63.748  1.00  0.00    -0.080 OA 
ENDBRANCH  16  32
TORSDOF 4
ENDMDL
MODEL       75
REMARK 921   NORMALIZED FREE ENERGY PREDICTED BY IDOCK:   -4.02 KCAL/MOL
REMARK 922        TOTAL FREE ENERGY PREDICTED BY IDOCK:   -6.09 KCAL/MOL
REMARK 923 INTER-LIGAND FREE ENERGY PREDICTED BY IDOCK:   -5.30 KCAL/MOL
REMARK 924 INTRA-LIGAND FREE ENERGY PREDICTED BY IDOCK:   -0.79 KCAL/MOL
REMARK 927      BINDING AFFINITY PREDICTED BY RF-SCORE:    0.00 PKD
ROOT
HETATM    1  C   UNL     1      -9.586   7.341  66.757  1.00  0.00    -0.240 C  
HETATM    2  C   UNL     1     -10.508   8.780  66.905  1.00  0.00    -0.319 C  
HETATM    3  C   UNL     1     -10.253  10.011  68.204  1.00  0.00    -0.205 C  
HETATM    4  C   UNL     1     -11.581  10.752  68.458  1.00  0.00    -0.325 C  
HETATM    5  C   UNL     1      -9.464   9.484  69.697  1.00  0.00    -0.213 C  
HETATM    6  C   UNL     1     -10.265   9.702  70.935  1.00  0.00    -0.303 C  
HETATM    7  C   UNL     1     -10.597   8.541  71.508  1.00  0.00    -0.333 C  
HETATM    8  C   UNL     1     -11.677   8.366  72.514  1.00  0.00    -0.429 C  
HETATM    9  C   UNL     1      -9.935   7.406  70.749  1.00  0.00    -0.182 C  
HETATM   10  C   UNL     1      -7.577   7.035  69.091  1.00  0.00    -0.100 C  
HETATM   11  C   UNL     1      -9.539   8.154  69.149  1.00  0.00    -0.157 C  
HETATM   12  C   UNL     1      -8.075   9.077  68.049  1.00  0.00    -0.105 C  
HETATM   13  C   UNL     1      -8.337   6.663  67.522  1.00  0.00    -0.121 C  
HETATM   14  O   UNL     1     -10.972   7.925  68.801  1.00  0.00    -0.419 OA 
HETATM   15  H   UNL     1     -11.021   7.049  68.440  1.00  0.00     0.000 HD 
HETATM   16  C   UNL     1      -6.504   8.720  68.111  1.00  0.00    -0.060 C  
HETATM   17  O   UNL     1      -8.187   9.347  66.636  1.00  0.00    -0.111 OA 
HETATM   18  C   UNL     1      -9.866   5.010  68.550  1.00  0.00    -0.216 C  
HETATM   19  C   UNL     1      -7.976   8.556  70.125  1.00  0.00    -0.105 C  
HETATM   20  C   UNL     1      -9.796   4.855  66.120  1.00  0.00    -0.222 C  
HETATM   21  H   UNL     1      -7.508   9.775  66.127  1.00  0.00     0.000 HD 
HETATM   22  C   UNL     1      -9.610   5.814  67.297  1.00  0.00    -0.122 C  
HETATM   23  O   UNL     1      -7.196   8.982  70.992  1.00  0.00    -0.091 OA 
HETATM   24  C   UNL     1      -6.253   7.533  68.657  1.00  0.00    -0.032 C  
ENDROOT
BRANCH   9  25
HETATM   25  O   UNL     1      -8.959   6.719  71.556  1.00  0.00    -0.138 OA 
BRANCH  25  26
HETATM   26  C   UNL     1      -9.366   5.498  72.019  1.00  0.00    -0.147 C  
HETATM   27  O   UNL     1     -10.466   5.007  71.801  1.00  0.00    -0.211 OA 
BRANCH  26  28
HETATM   28  C   UNL     1      -8.314   4.733  72.755  1.00  0.00    -0.111 C  
HETATM   29  C   UNL     1      -6.146   5.830  71.905  1.00  0.00    -0.035 C  
HETATM   30  C   UNL     1      -6.975   4.878  72.686  1.00  0.00    -0.076 C  
HETATM   31  C   UNL     1      -8.860   3.731  73.749  1.00  0.00    -0.088 C  
ENDBRANCH  26  28
ENDBRANCH  25  26
ENDBRANCH   9  25
BRANCH  16  32
HETATM   32  C   UNL     1      -5.438   9.706  67.751  1.00  0.00    -0.036 C  
HETATM   33  H   UNL     1      -4.841  10.573  66.117  1.00  0.00     0.000 HD 
HETATM   34  O   UNL     1      -5.517   9.947  66.346  1.00  0.00    -0.043 OA 
ENDBRANCH  16  32
TORSDOF 4
ENDMDL
MODEL       76
REMARK 921   NORMALIZED FREE ENERGY PREDICTED BY IDOCK:   -4.02 KCAL/MOL
REMARK 922        TOTAL FREE ENERGY PREDICTED BY IDOCK:   -6.09 KCAL/MOL
REMARK 923 INTER-LIGAND FREE ENERGY PREDICTED BY IDOCK:   -5.07 KCAL/MOL
REMARK 924 INTRA-LIGAND FREE ENERGY PREDICTED BY IDOCK:   -1.02 KCAL/MOL
REMARK 927      BINDING AFFINITY PREDICTED BY RF-SCORE:    0.00 PKD
ROOT
HETATM    1  C   UNL     1     -10.478  10.438  68.753  1.00  0.00    -0.219 C  
HETATM    2  C   UNL     1     -11.083   9.080  69.611  1.00  0.00    -0.080 C  
HETATM    3  C   UNL     1     -10.138   7.567  69.897  1.00  0.00    -0.193 C  
HETATM    4  C   UNL     1     -11.119   6.387  70.054  1.00  0.00    -0.442 C  
HETATM    5  C   UNL     1      -8.803   7.206  68.795  1.00  0.00    -0.130 C  
HETATM    6  C   UNL     1      -8.914   5.899  68.088  1.00  0.00    -0.115 C  
HETATM    7  C   UNL     1      -9.053   6.071  66.770  1.00  0.00    -0.134 C  
HETATM    8  C   UNL     1      -9.555   5.040  65.824  1.00  0.00    -0.162 C  
HETATM    9  C   UNL     1      -8.930   7.548  66.447  1.00  0.00    -0.167 C  
HETATM   10  C   UNL     1      -7.657   9.890  67.607  1.00  0.00    -0.091 C  
HETATM   11  C   UNL     1      -9.250   8.347  68.039  1.00  0.00    -0.136 C  
HETATM   12  C   UNL     1      -8.381   9.153  69.713  1.00  0.00    -0.136 C  
HETATM   13  C   UNL     1      -9.088  10.855  68.047  1.00  0.00    -0.152 C  
HETATM   14  O   UNL     1     -10.696   8.117  67.750  1.00  0.00    -0.422 OA 
HETATM   15  H   UNL     1     -10.991   8.870  67.252  1.00  0.00     0.000 HD 
HETATM   16  C   UNL     1      -7.003   9.990  69.731  1.00  0.00    -0.107 C  
HETATM   17  O   UNL     1      -9.108   9.900  70.711  1.00  0.00    -0.340 OA 
HETATM   18  C   UNL     1     -10.118  10.512  65.822  1.00  0.00    -0.329 C  
HETATM   19  C   UNL     1      -7.383   8.103  68.134  1.00  0.00    -0.096 C  
HETATM   20  C   UNL     1     -11.197  12.280  67.104  1.00  0.00    -0.365 C  
HETATM   21  H   UNL     1      -8.705  10.273  71.486  1.00  0.00     0.000 HD 
HETATM   22  C   UNL     1     -10.396  10.983  67.230  1.00  0.00    -0.249 C  
HETATM   23  O   UNL     1      -6.253   7.589  68.143  1.00  0.00    -0.037 OA 
HETATM   24  C   UNL     1      -6.643  10.442  68.533  1.00  0.00    -0.052 C  
ENDROOT
BRANCH   9  25
HETATM   25  O   UNL     1      -7.763   7.829  65.650  1.00  0.00    -0.091 OA 
BRANCH  25  26
HETATM   26  C   UNL     1      -7.986   7.838  64.301  1.00  0.00    -0.120 C  
HETATM   27  O   UNL     1      -8.383   6.874  63.660  1.00  0.00     0.036 OA 
BRANCH  26  28
HETATM   28  C   UNL     1      -7.801   9.171  63.652  1.00  0.00    -0.136 C  
HETATM   29  C   UNL     1      -5.570   9.964  64.660  1.00  0.00    -0.088 C  
HETATM   30  C   UNL     1      -6.793  10.049  63.821  1.00  0.00    -0.126 C  
HETATM   31  C   UNL     1      -8.859   9.509  62.623  1.00  0.00    -0.249 C  
ENDBRANCH  26  28
ENDBRANCH  25  26
ENDBRANCH   9  25
BRANCH  16  32
HETATM   32  C   UNL     1      -6.136  10.088  70.946  1.00  0.00    -0.069 C  
HETATM   33  H   UNL     1      -5.838   9.006  72.533  1.00  0.00     0.000 HD 
HETATM   34  O   UNL     1      -6.389   8.944  71.762  1.00  0.00    -0.074 OA 
ENDBRANCH  16  32
TORSDOF 4
ENDMDL
MODEL       77
REMARK 921   NORMALIZED FREE ENERGY PREDICTED BY IDOCK:   -4.01 KCAL/MOL
REMARK 922        TOTAL FREE ENERGY PREDICTED BY IDOCK:   -6.08 KCAL/MOL
REMARK 923 INTER-LIGAND FREE ENERGY PREDICTED BY IDOCK:   -5.26 KCAL/MOL
REMARK 924 INTRA-LIGAND FREE ENERGY PREDICTED BY IDOCK:   -0.82 KCAL/MOL
REMARK 927      BINDING AFFINITY PREDICTED BY RF-SCORE:    0.00 PKD
ROOT
HETATM    1  C   UNL     1     -10.028   5.565  68.695  1.00  0.00    -0.222 C  
HETATM    2  C   UNL     1     -11.409   5.983  69.623  1.00  0.00    -0.328 C  
HETATM    3  C   UNL     1     -11.583   7.538  70.527  1.00  0.00    -0.224 C  
HETATM    4  C   UNL     1     -12.534   7.318  71.721  1.00  0.00    -0.378 C  
HETATM    5  C   UNL     1     -10.106   8.401  70.976  1.00  0.00    -0.242 C  
HETATM    6  C   UNL     1      -9.947   8.644  72.438  1.00  0.00    -0.320 C  
HETATM    7  C   UNL     1      -8.892   7.983  72.926  1.00  0.00    -0.287 C  
HETATM    8  C   UNL     1      -8.659   7.697  74.366  1.00  0.00    -0.237 C  
HETATM    9  C   UNL     1      -8.159   7.307  71.784  1.00  0.00    -0.100 C  
HETATM   10  C   UNL     1      -7.814   7.715  68.927  1.00  0.00    -0.123 C  
HETATM   11  C   UNL     1      -9.401   7.254  70.468  1.00  0.00    -0.158 C  
HETATM   12  C   UNL     1     -10.105   8.203  68.792  1.00  0.00    -0.199 C  
HETATM   13  C   UNL     1      -8.631   6.266  68.289  1.00  0.00    -0.117 C  
HETATM   14  O   UNL     1      -9.960   6.069  71.182  1.00  0.00    -0.179 OA 
HETATM   15  H   UNL     1      -9.494   5.312  70.847  1.00  0.00     0.000 HD 
HETATM   16  C   UNL     1      -9.191   8.964  67.704  1.00  0.00    -0.151 C  
HETATM   17  O   UNL     1     -11.082   7.627  67.899  1.00  0.00    -0.475 OA 
HETATM   18  C   UNL     1      -7.430   4.782  69.865  1.00  0.00    -0.055 C  
HETATM   19  C   UNL     1      -8.600   8.928  70.133  1.00  0.00    -0.155 C  
HETATM   20  C   UNL     1      -8.535   3.563  68.069  1.00  0.00    -0.109 C  
HETATM   21  H   UNL     1     -11.408   8.067  67.122  1.00  0.00     0.000 HD 
HETATM   22  C   UNL     1      -8.591   4.845  68.900  1.00  0.00    -0.092 C  
HETATM   23  O   UNL     1      -8.177  10.088  70.264  1.00  0.00    -0.153 OA 
HETATM   24  C   UNL     1      -7.905   8.629  67.767  1.00  0.00    -0.103 C  
ENDROOT
BRANCH   9  25
HETATM   25  O   UNL     1      -6.839   7.854  71.594  1.00  0.00    -0.051 OA 
BRANCH  25  26
HETATM   26  C   UNL     1      -5.820   6.990  71.886  1.00  0.00    -0.037 C  
HETATM   27  O   UNL     1      -5.150   6.403  71.045  1.00  0.00    -0.017 OA 
BRANCH  26  28
HETATM   28  C   UNL     1      -5.500   6.877  73.341  1.00  0.00    -0.045 C  
HETATM   29  C   UNL     1      -5.135   9.335  74.012  1.00  0.00    -0.116 C  
HETATM   30  C   UNL     1      -5.206   7.865  74.210  1.00  0.00    -0.057 C  
HETATM   31  C   UNL     1      -5.605   5.470  73.889  1.00  0.00    -0.031 C  
ENDBRANCH  26  28
ENDBRANCH  25  26
ENDBRANCH   9  25
BRANCH  16  32
HETATM   32  C   UNL     1      -9.717  10.064  66.837  1.00  0.00    -0.189 C  
HETATM   33  H   UNL     1     -10.220  10.241  64.968  1.00  0.00     0.000 HD 
HETATM   34  O   UNL     1      -9.885   9.543  65.518  1.00  0.00    -0.306 OA 
ENDBRANCH  16  32
TORSDOF 4
ENDMDL
MODEL       78
REMARK 921   NORMALIZED FREE ENERGY PREDICTED BY IDOCK:   -3.98 KCAL/MOL
REMARK 922        TOTAL FREE ENERGY PREDICTED BY IDOCK:   -6.04 KCAL/MOL
REMARK 923 INTER-LIGAND FREE ENERGY PREDICTED BY IDOCK:   -4.75 KCAL/MOL
REMARK 924 INTRA-LIGAND FREE ENERGY PREDICTED BY IDOCK:   -1.29 KCAL/MOL
REMARK 927      BINDING AFFINITY PREDICTED BY RF-SCORE:    0.00 PKD
ROOT
HETATM    1  C   UNL     1      -8.983  10.113  65.678  1.00  0.00    -0.199 C  
HETATM    2  C   UNL     1     -10.340  10.968  66.287  1.00  0.00    -0.304 C  
HETATM    3  C   UNL     1     -10.548  11.422  68.024  1.00  0.00    -0.224 C  
HETATM    4  C   UNL     1     -12.054  11.534  68.334  1.00  0.00    -0.119 C  
HETATM    5  C   UNL     1      -9.666  10.482  69.234  1.00  0.00    -0.215 C  
HETATM    6  C   UNL     1     -10.525   9.831  70.264  1.00  0.00    -0.345 C  
HETATM    7  C   UNL     1     -10.460   8.499  70.177  1.00  0.00    -0.226 C  
HETATM    8  C   UNL     1     -11.443   7.558  70.776  1.00  0.00    -0.305 C  
HETATM    9  C   UNL     1      -9.435   8.120  69.125  1.00  0.00    -0.155 C  
HETATM   10  C   UNL     1      -7.049   9.290  67.949  1.00  0.00    -0.078 C  
HETATM   11  C   UNL     1      -9.274   9.630  68.142  1.00  0.00    -0.125 C  
HETATM   12  C   UNL     1      -8.180  11.344  67.872  1.00  0.00    -0.132 C  
HETATM   13  C   UNL     1      -7.598   9.534  66.272  1.00  0.00    -0.097 C  
HETATM   14  O   UNL     1     -10.536   9.206  67.468  1.00  0.00    -0.245 OA 
HETATM   15  H   UNL     1     -10.277   8.645  66.747  1.00  0.00     0.000 HD 
HETATM   16  C   UNL     1      -6.583  11.463  68.055  1.00  0.00    -0.058 C  
HETATM   17  O   UNL     1      -8.340  12.225  66.739  1.00  0.00    -0.295 OA 
HETATM   18  C   UNL     1      -8.504   7.234  66.137  1.00  0.00    -0.144 C  
HETATM   19  C   UNL     1      -7.964   9.928  69.465  1.00  0.00    -0.148 C  
HETATM   20  C   UNL     1      -8.324   8.312  63.960  1.00  0.00    -0.038 C  
HETATM   21  H   UNL     1      -7.833  13.019  66.615  1.00  0.00     0.000 HD 
HETATM   22  C   UNL     1      -8.503   8.582  65.454  1.00  0.00    -0.190 C  
HETATM   23  O   UNL     1      -7.395  10.077  70.558  1.00  0.00    -0.261 OA 
HETATM   24  C   UNL     1      -5.960  10.287  68.042  1.00  0.00    -0.044 C  
ENDROOT
BRANCH   9  25
HETATM   25  O   UNL     1      -8.305   7.434  69.699  1.00  0.00    -0.128 OA 
BRANCH  25  26
HETATM   26  C   UNL     1      -8.478   6.087  69.853  1.00  0.00    -0.130 C  
HETATM   27  O   UNL     1      -9.044   5.365  69.043  1.00  0.00    -0.112 OA 
BRANCH  26  28
HETATM   28  C   UNL     1      -7.826   5.513  71.069  1.00  0.00    -0.105 C  
HETATM   29  C   UNL     1      -5.711   4.421  70.091  1.00  0.00    -0.013 C  
HETATM   30  C   UNL     1      -6.678   4.812  71.148  1.00  0.00    -0.031 C  
HETATM   31  C   UNL     1      -8.532   5.849  72.366  1.00  0.00    -0.117 C  
ENDBRANCH  26  28
ENDBRANCH  25  26
ENDBRANCH   9  25
BRANCH  16  32
HETATM   32  C   UNL     1      -5.903  12.754  68.385  1.00  0.00    -0.061 C  
HETATM   33  H   UNL     1      -6.423  14.418  69.247  1.00  0.00     0.000 HD 
HETATM   34  O   UNL     1      -6.854  13.598  69.037  1.00  0.00    -0.107 OA 
ENDBRANCH  16  32
TORSDOF 4
ENDMDL
MODEL       79
REMARK 921   NORMALIZED FREE ENERGY PREDICTED BY IDOCK:   -3.96 KCAL/MOL
REMARK 922        TOTAL FREE ENERGY PREDICTED BY IDOCK:   -6.02 KCAL/MOL
REMARK 923 INTER-LIGAND FREE ENERGY PREDICTED BY IDOCK:   -4.90 KCAL/MOL
REMARK 924 INTRA-LIGAND FREE ENERGY PREDICTED BY IDOCK:   -1.12 KCAL/MOL
REMARK 927      BINDING AFFINITY PREDICTED BY RF-SCORE:    0.00 PKD
ROOT
HETATM    1  C   UNL     1     -10.456   9.117  69.921  1.00  0.00    -0.239 C  
HETATM    2  C   UNL     1     -11.011   7.980  71.080  1.00  0.00    -0.263 C  
HETATM    3  C   UNL     1     -10.045   6.557  71.638  1.00  0.00    -0.202 C  
HETATM    4  C   UNL     1     -11.012   5.446  72.094  1.00  0.00    -0.265 C  
HETATM    5  C   UNL     1      -8.765   5.960  70.574  1.00  0.00    -0.140 C  
HETATM    6  C   UNL     1      -8.906   4.531  70.172  1.00  0.00    -0.129 C  
HETATM    7  C   UNL     1      -9.111   4.416  68.856  1.00  0.00    -0.175 C  
HETATM    8  C   UNL     1      -9.655   3.208  68.182  1.00  0.00    -0.139 C  
HETATM    9  C   UNL     1      -9.012   5.788  68.217  1.00  0.00    -0.115 C  
HETATM   10  C   UNL     1      -7.693   8.317  68.780  1.00  0.00    -0.114 C  
HETATM   11  C   UNL     1      -9.256   6.914  69.614  1.00  0.00    -0.146 C  
HETATM   12  C   UNL     1      -8.307   8.056  71.029  1.00  0.00    -0.116 C  
HETATM   13  C   UNL     1      -9.105   9.363  69.072  1.00  0.00    -0.142 C  
HETATM   14  O   UNL     1     -10.713   6.636  69.454  1.00  0.00    -0.219 OA 
HETATM   15  H   UNL     1     -11.036   7.265  68.820  1.00  0.00     0.000 HD 
HETATM   16  C   UNL     1      -6.934   8.868  70.797  1.00  0.00    -0.074 C  
HETATM   17  O   UNL     1      -8.987   9.005  71.877  1.00  0.00    -0.364 OA 
HETATM   18  C   UNL     1     -10.243   8.555  67.028  1.00  0.00    -0.371 C  
HETATM   19  C   UNL     1      -7.384   6.684  69.666  1.00  0.00    -0.083 C  
HETATM   20  C   UNL     1     -11.265  10.564  67.951  1.00  0.00    -0.358 C  
HETATM   21  H   UNL     1      -8.548   9.534  72.533  1.00  0.00     0.000 HD 
HETATM   22  C   UNL     1     -10.453   9.320  68.313  1.00  0.00    -0.260 C  
HETATM   23  O   UNL     1      -6.253   6.177  69.729  1.00  0.00    -0.025 OA 
HETATM   24  C   UNL     1      -6.637   9.049  69.513  1.00  0.00    -0.043 C  
ENDROOT
BRANCH   9  25
HETATM   25  O   UNL     1      -7.887   5.883  67.322  1.00  0.00    -0.100 OA 
BRANCH  25  26
HETATM   26  C   UNL     1      -8.210   5.798  65.996  1.00  0.00    -0.114 C  
HETATM   27  O   UNL     1      -9.305   5.452  65.571  1.00  0.00    -0.136 OA 
BRANCH  26  28
HETATM   28  C   UNL     1      -7.136   6.261  65.066  1.00  0.00    -0.060 C  
HETATM   29  C   UNL     1      -7.127   8.804  65.466  1.00  0.00    -0.083 C  
HETATM   30  C   UNL     1      -6.705   7.520  64.849  1.00  0.00    -0.047 C  
HETATM   31  C   UNL     1      -6.412   5.140  64.351  1.00  0.00    -0.038 C  
ENDBRANCH  26  28
ENDBRANCH  25  26
ENDBRANCH   9  25
BRANCH  16  32
HETATM   32  C   UNL     1      -6.008   9.221  71.918  1.00  0.00    -0.021 C  
HETATM   33  H   UNL     1      -5.091  10.829  72.510  1.00  0.00     0.000 HD 
HETATM   34  O   UNL     1      -5.679  10.605  71.798  1.00  0.00    -0.317 OA 
ENDBRANCH  16  32
TORSDOF 4
ENDMDL
MODEL       80
REMARK 921   NORMALIZED FREE ENERGY PREDICTED BY IDOCK:   -3.87 KCAL/MOL
REMARK 922        TOTAL FREE ENERGY PREDICTED BY IDOCK:   -5.91 KCAL/MOL
REMARK 923 INTER-LIGAND FREE ENERGY PREDICTED BY IDOCK:   -4.75 KCAL/MOL
REMARK 924 INTRA-LIGAND FREE ENERGY PREDICTED BY IDOCK:   -1.16 KCAL/MOL
REMARK 927      BINDING AFFINITY PREDICTED BY RF-SCORE:    0.00 PKD
ROOT
HETATM    1  C   UNL     1      -7.281   9.704  69.708  1.00  0.00    -0.094 C  
HETATM    2  C   UNL     1      -7.786  11.143  68.921  1.00  0.00    -0.137 C  
HETATM    3  C   UNL     1      -9.200  11.235  67.800  1.00  0.00    -0.156 C  
HETATM    4  C   UNL     1      -8.972  12.388  66.802  1.00  0.00    -0.205 C  
HETATM    5  C   UNL     1      -9.730   9.742  67.015  1.00  0.00    -0.233 C  
HETATM    6  C   UNL     1      -9.728   9.788  65.525  1.00  0.00    -0.382 C  
HETATM    7  C   UNL     1      -8.837   8.932  65.015  1.00  0.00    -0.183 C  
HETATM    8  C   UNL     1      -8.310   8.979  63.626  1.00  0.00    -0.178 C  
HETATM    9  C   UNL     1      -8.219   8.128  66.144  1.00  0.00    -0.117 C  
HETATM   10  C   UNL     1      -8.973   7.271  68.817  1.00  0.00    -0.129 C  
HETATM   11  C   UNL     1      -8.566   9.135  67.607  1.00  0.00    -0.117 C  
HETATM   12  C   UNL     1      -9.852   9.416  69.180  1.00  0.00    -0.174 C  
HETATM   13  C   UNL     1      -7.789   8.174  69.795  1.00  0.00    -0.105 C  
HETATM   14  O   UNL     1      -7.401   9.967  67.187  1.00  0.00    -0.090 OA 
HETATM   15  H   UNL     1      -6.634   9.567  67.577  1.00  0.00     0.000 HD 
HETATM   16  C   UNL     1     -10.598   8.238  69.989  1.00  0.00    -0.235 C  
HETATM   17  O   UNL     1      -9.583  10.308  70.283  1.00  0.00    -0.376 OA 
HETATM   18  C   UNL     1      -5.913   7.469  68.342  1.00  0.00    -0.031 C  
HETATM   19  C   UNL     1     -10.114   8.059  67.542  1.00  0.00    -0.219 C  
HETATM   20  C   UNL     1      -5.169   8.433  70.451  1.00  0.00    -0.022 C  
HETATM   21  H   UNL     1     -10.179  10.437  71.011  1.00  0.00     0.000 HD 
HETATM   22  C   UNL     1      -6.308   8.438  69.432  1.00  0.00    -0.038 C  
HETATM   23  O   UNL     1     -11.155   7.501  67.162  1.00  0.00    -0.216 OA 
HETATM   24  C   UNL     1     -10.048   7.041  69.808  1.00  0.00    -0.197 C  
ENDROOT
BRANCH   9  25
HETATM   25  O   UNL     1      -8.559   6.731  66.056  1.00  0.00    -0.137 OA 
BRANCH  25  26
HETATM   26  C   UNL     1      -7.566   5.936  65.556  1.00  0.00    -0.084 C  
HETATM   27  O   UNL     1      -6.447   6.333  65.256  1.00  0.00    -0.037 OA 
BRANCH  26  28
HETATM   28  C   UNL     1      -7.910   4.483  65.486  1.00  0.00    -0.094 C  
HETATM   29  C   UNL     1      -7.800   4.018  62.957  1.00  0.00    -0.070 C  
HETATM   30  C   UNL     1      -8.014   3.702  64.393  1.00  0.00    -0.086 C  
HETATM   31  C   UNL     1      -8.081   3.823  66.838  1.00  0.00    -0.095 C  
ENDBRANCH  26  28
ENDBRANCH  25  26
ENDBRANCH   9  25
BRANCH  16  32
HETATM   32  C   UNL     1     -11.885   8.454  70.722  1.00  0.00    -0.163 C  
HETATM   33  H   UNL     1     -12.388   9.051  72.502  1.00  0.00     0.000 HD 
HETATM   34  O   UNL     1     -11.571   8.913  72.037  1.00  0.00    -0.351 OA 
ENDBRANCH  16  32
TORSDOF 4
ENDMDL
MODEL       81
REMARK 921   NORMALIZED FREE ENERGY PREDICTED BY IDOCK:   -3.87 KCAL/MOL
REMARK 922        TOTAL FREE ENERGY PREDICTED BY IDOCK:   -5.91 KCAL/MOL
REMARK 923 INTER-LIGAND FREE ENERGY PREDICTED BY IDOCK:   -4.44 KCAL/MOL
REMARK 924 INTRA-LIGAND FREE ENERGY PREDICTED BY IDOCK:   -1.47 KCAL/MOL
REMARK 927      BINDING AFFINITY PREDICTED BY RF-SCORE:    0.00 PKD
ROOT
HETATM    1  C   UNL     1     -10.898   7.347  69.455  1.00  0.00    -0.184 C  
HETATM    2  C   UNL     1      -9.826   8.526  68.820  1.00  0.00    -0.180 C  
HETATM    3  C   UNL     1      -8.124   8.177  68.321  1.00  0.00    -0.128 C  
HETATM    4  C   UNL     1      -7.289   9.466  68.458  1.00  0.00    -0.079 C  
HETATM    5  C   UNL     1      -7.330   6.765  69.029  1.00  0.00    -0.094 C  
HETATM    6  C   UNL     1      -6.069   7.064  69.767  1.00  0.00    -0.027 C  
HETATM    7  C   UNL     1      -6.194   6.794  71.069  1.00  0.00    -0.040 C  
HETATM    8  C   UNL     1      -5.295   7.308  72.136  1.00  0.00    -0.036 C  
HETATM    9  C   UNL     1      -7.552   6.163  71.317  1.00  0.00    -0.094 C  
HETATM   10  C   UNL     1      -9.493   4.612  69.810  1.00  0.00    -0.238 C  
HETATM   11  C   UNL     1      -8.503   6.643  69.854  1.00  0.00    -0.139 C  
HETATM   12  C   UNL     1      -9.124   6.048  67.992  1.00  0.00    -0.117 C  
HETATM   13  C   UNL     1     -10.854   5.761  69.752  1.00  0.00    -0.419 C  
HETATM   14  O   UNL     1      -8.682   7.963  70.527  1.00  0.00    -0.133 OA 
HETATM   15  H   UNL     1      -9.456   7.882  71.070  1.00  0.00     0.000 HD 
HETATM   16  C   UNL     1      -9.529   4.542  67.586  1.00  0.00    -0.196 C  
HETATM   17  O   UNL     1     -10.108   6.761  67.212  1.00  0.00    -0.151 OA 
HETATM   18  C   UNL     1     -10.688   6.221  72.179  1.00  0.00    -0.269 C  
HETATM   19  C   UNL     1      -7.739   5.023  69.264  1.00  0.00    -0.075 C  
HETATM   20  C   UNL     1     -12.766   7.033  71.199  1.00  0.00    -0.361 C  
HETATM   21  H   UNL     1     -10.395   6.485  66.349  1.00  0.00     0.000 HD 
HETATM   22  C   UNL     1     -11.304   6.710  70.888  1.00  0.00    -0.377 C  
HETATM   23  O   UNL     1      -6.923   4.137  68.962  1.00  0.00    -0.046 OA 
HETATM   24  C   UNL     1      -9.785   3.763  68.634  1.00  0.00    -0.089 C  
ENDROOT
BRANCH   9  25
HETATM   25  O   UNL     1      -7.436   4.798  71.764  1.00  0.00    -0.074 OA 
BRANCH  25  26
HETATM   26  C   UNL     1      -7.650   4.620  73.102  1.00  0.00    -0.087 C  
HETATM   27  O   UNL     1      -7.789   5.532  73.908  1.00  0.00    -0.103 OA 
BRANCH  26  28
HETATM   28  C   UNL     1      -7.803   3.194  73.521  1.00  0.00    -0.068 C  
HETATM   29  C   UNL     1     -10.243   2.694  72.871  1.00  0.00    -0.230 C  
HETATM   30  C   UNL     1      -8.895   2.410  73.427  1.00  0.00    -0.070 C  
HETATM   31  C   UNL     1      -6.529   2.561  74.040  1.00  0.00    -0.021 C  
ENDBRANCH  26  28
ENDBRANCH  25  26
ENDBRANCH   9  25
BRANCH  16  32
HETATM   32  C   UNL     1      -9.447   4.036  66.181  1.00  0.00    -0.186 C  
HETATM   33  H   UNL     1      -8.582   4.621  64.541  1.00  0.00     0.000 HD 
HETATM   34  O   UNL     1      -8.635   4.942  65.433  1.00  0.00    -0.127 OA 
ENDBRANCH  16  32
TORSDOF 4
ENDMDL
MODEL       82
REMARK 921   NORMALIZED FREE ENERGY PREDICTED BY IDOCK:   -3.75 KCAL/MOL
REMARK 922        TOTAL FREE ENERGY PREDICTED BY IDOCK:   -5.76 KCAL/MOL
REMARK 923 INTER-LIGAND FREE ENERGY PREDICTED BY IDOCK:   -5.37 KCAL/MOL
REMARK 924 INTRA-LIGAND FREE ENERGY PREDICTED BY IDOCK:   -0.39 KCAL/MOL
REMARK 927      BINDING AFFINITY PREDICTED BY RF-SCORE:    0.00 PKD
ROOT
HETATM    1  C   UNL     1      -6.264   7.481  69.295  1.00  0.00    -0.035 C  
HETATM    2  C   UNL     1      -6.294   6.330  70.568  1.00  0.00    -0.039 C  
HETATM    3  C   UNL     1      -7.721   5.290  70.953  1.00  0.00    -0.093 C  
HETATM    4  C   UNL     1      -7.680   4.920  72.449  1.00  0.00    -0.092 C  
HETATM    5  C   UNL     1      -9.314   5.848  70.427  1.00  0.00    -0.181 C  
HETATM    6  C   UNL     1     -10.310   6.013  71.524  1.00  0.00    -0.261 C  
HETATM    7  C   UNL     1     -10.666   7.293  71.667  1.00  0.00    -0.239 C  
HETATM    8  C   UNL     1     -11.329   7.863  72.869  1.00  0.00    -0.399 C  
HETATM    9  C   UNL     1     -10.009   8.115  70.574  1.00  0.00    -0.187 C  
HETATM   10  C   UNL     1      -9.009   7.678  67.880  1.00  0.00    -0.128 C  
HETATM   11  C   UNL     1      -8.647   7.058  70.023  1.00  0.00    -0.141 C  
HETATM   12  C   UNL     1      -8.065   5.667  68.633  1.00  0.00    -0.100 C  
HETATM   13  C   UNL     1      -7.268   7.965  68.128  1.00  0.00    -0.090 C  
HETATM   14  O   UNL     1      -7.912   7.551  71.224  1.00  0.00    -0.093 OA 
HETATM   15  H   UNL     1      -7.472   8.349  70.957  1.00  0.00     0.000 HD 
HETATM   16  C   UNL     1      -8.507   5.662  67.084  1.00  0.00    -0.110 C  
HETATM   17  O   UNL     1      -6.703   5.214  68.477  1.00  0.00    -0.047 OA 
HETATM   18  C   UNL     1      -7.698  10.063  69.371  1.00  0.00    -0.129 C  
HETATM   19  C   UNL     1     -10.036   6.466  68.892  1.00  0.00    -0.147 C  
HETATM   20  C   UNL     1      -5.370   9.820  68.696  1.00  0.00    -0.036 C  
HETATM   21  H   UNL     1      -6.433   4.569  67.834  1.00  0.00     0.000 HD 
HETATM   22  C   UNL     1      -6.636   9.038  69.047  1.00  0.00    -0.048 C  
HETATM   23  O   UNL     1     -11.113   6.013  68.474  1.00  0.00    -0.313 OA 
HETATM   24  C   UNL     1      -8.990   6.830  66.668  1.00  0.00    -0.154 C  
ENDROOT
BRANCH   9  25
HETATM   25  O   UNL     1     -10.979   8.678  69.670  1.00  0.00    -0.198 OA 
BRANCH  25  26
HETATM   26  C   UNL     1     -11.396   9.939  69.998  1.00  0.00    -0.249 C  
HETATM   27  O   UNL     1     -11.674  10.301  71.134  1.00  0.00    -0.358 OA 
BRANCH  26  28
HETATM   28  C   UNL     1     -11.398  10.907  68.860  1.00  0.00    -0.354 C  
HETATM   29  C   UNL     1     -11.732  13.159  70.060  1.00  0.00    -0.291 C  
HETATM   30  C   UNL     1     -11.550  12.245  68.903  1.00  0.00    -0.367 C  
HETATM   31  C   UNL     1     -11.113  10.277  67.513  1.00  0.00    -0.302 C  
ENDBRANCH  26  28
ENDBRANCH  25  26
ENDBRANCH   9  25
BRANCH  16  32
HETATM   32  C   UNL     1      -8.535   4.415  66.257  1.00  0.00    -0.112 C  
HETATM   33  H   UNL     1      -7.780   3.858  64.555  1.00  0.00     0.000 HD 
HETATM   34  O   UNL     1      -7.763   4.650  65.079  1.00  0.00    -0.076 OA 
ENDBRANCH  16  32
TORSDOF 4
ENDMDL
MODEL       83
REMARK 921   NORMALIZED FREE ENERGY PREDICTED BY IDOCK:   -3.53 KCAL/MOL
REMARK 922        TOTAL FREE ENERGY PREDICTED BY IDOCK:   -5.49 KCAL/MOL
REMARK 923 INTER-LIGAND FREE ENERGY PREDICTED BY IDOCK:   -4.56 KCAL/MOL
REMARK 924 INTRA-LIGAND FREE ENERGY PREDICTED BY IDOCK:   -0.93 KCAL/MOL
REMARK 927      BINDING AFFINITY PREDICTED BY RF-SCORE:    0.00 PKD
ROOT
HETATM    1  C   UNL     1     -12.408  13.256  68.434  1.00  0.00     0.107 C  
HETATM    2  C   UNL     1     -12.766  13.690  66.813  1.00  0.00     0.142 C  
HETATM    3  C   UNL     1     -11.530  13.785  65.499  1.00  0.00    -0.319 C  
HETATM    4  C   UNL     1     -12.005  14.799  64.438  1.00  0.00    -0.433 C  
HETATM    5  C   UNL     1      -9.842  14.024  65.969  1.00  0.00    -0.316 C  
HETATM    6  C   UNL     1      -9.200  15.238  65.389  1.00  0.00     0.398 C  
HETATM    7  C   UNL     1      -8.875  16.117  66.342  1.00  0.00    -0.355 C  
HETATM    8  C   UNL     1      -8.574  17.553  66.109  1.00  0.00    -0.168 C  
HETATM    9  C   UNL     1      -9.175  15.509  67.700  1.00  0.00    -0.190 C  
HETATM   10  C   UNL     1      -9.369  12.849  68.854  1.00  0.00     0.276 C  
HETATM   11  C   UNL     1     -10.342  14.182  67.310  1.00  0.00    -0.267 C  
HETATM   12  C   UNL     1     -10.528  12.175  66.928  1.00  0.00    -0.225 C  
HETATM   13  C   UNL     1     -11.102  12.797  69.265  1.00  0.00    -0.193 C  
HETATM   14  O   UNL     1     -11.381  15.250  67.246  1.00  0.00    -0.332 OA 
HETATM   15  H   UNL     1     -11.711  15.354  68.131  1.00  0.00     0.000 HD 
HETATM   16  C   UNL     1      -9.660  11.013  67.630  1.00  0.00    -0.181 C  
HETATM   17  O   UNL     1     -11.796  11.490  66.852  1.00  0.00    -0.542 OA 
HETATM   18  C   UNL     1     -11.007  15.023  70.344  1.00  0.00    -0.222 C  
HETATM   19  C   UNL     1      -8.699  13.270  67.145  1.00  0.00    -0.212 C  
HETATM   20  C   UNL     1     -13.048  13.801  70.868  1.00  0.00    -0.222 C  
HETATM   21  H   UNL     1     -11.882  10.560  66.675  1.00  0.00     0.000 HD 
HETATM   22  C   UNL     1     -11.950  13.967  69.816  1.00  0.00    -0.393 C  
HETATM   23  O   UNL     1      -7.556  12.940  66.791  1.00  0.00     0.114 OA 
HETATM   24  C   UNL     1      -9.056  11.406  68.749  1.00  0.00    -0.096 C  
ENDROOT
BRANCH   9  25
HETATM   25  O   UNL     1      -7.976  15.298  68.470  1.00  0.00    -0.129 OA 
BRANCH  25  26
HETATM   26  C   UNL     1      -7.659  16.322  69.318  1.00  0.00    -0.203 C  
HETATM   27  O   UNL     1      -8.386  17.279  69.548  1.00  0.00     0.237 OA 
BRANCH  26  28
HETATM   28  C   UNL     1      -6.364  16.147  70.044  1.00  0.00    -0.077 C  
HETATM   29  C   UNL     1      -5.931  13.623  69.786  1.00  0.00    -0.121 C  
HETATM   30  C   UNL     1      -5.664  15.012  70.239  1.00  0.00    -0.144 C  
HETATM   31  C   UNL     1      -5.756  17.441  70.543  1.00  0.00    -0.051 C  
ENDBRANCH  26  28
ENDBRANCH  25  26
ENDBRANCH   9  25
BRANCH  16  32
HETATM   32  C   UNL     1      -9.420   9.684  66.985  1.00  0.00    -0.154 C  
HETATM   33  H   UNL     1     -10.450   8.056  66.733  1.00  0.00     0.000 HD 
HETATM   34  O   UNL     1     -10.602   8.899  67.142  1.00  0.00    -0.286 OA 
ENDBRANCH  16  32
TORSDOF 4
ENDMDL
MODEL       84
REMARK 921   NORMALIZED FREE ENERGY PREDICTED BY IDOCK:   -3.46 KCAL/MOL
REMARK 922        TOTAL FREE ENERGY PREDICTED BY IDOCK:   -5.40 KCAL/MOL
REMARK 923 INTER-LIGAND FREE ENERGY PREDICTED BY IDOCK:   -5.54 KCAL/MOL
REMARK 924 INTRA-LIGAND FREE ENERGY PREDICTED BY IDOCK:    0.14 KCAL/MOL
REMARK 927      BINDING AFFINITY PREDICTED BY RF-SCORE:    0.00 PKD
ROOT
HETATM    1  C   UNL     1      -6.633  20.247  66.892  1.00  0.00    -0.269 C  
HETATM    2  C   UNL     1      -8.127  20.832  67.499  1.00  0.00    -0.203 C  
HETATM    3  C   UNL     1      -9.187  19.905  68.632  1.00  0.00    -0.215 C  
HETATM    4  C   UNL     1     -10.647  20.361  68.435  1.00  0.00    -0.004 C  
HETATM    5  C   UNL     1      -9.016  18.145  68.668  1.00  0.00    -0.289 C  
HETATM    6  C   UNL     1     -10.264  17.392  68.359  1.00  0.00    -0.362 C  
HETATM    7  C   UNL     1     -10.141  16.695  67.225  1.00  0.00    -0.279 C  
HETATM    8  C   UNL     1     -11.275  16.146  66.436  1.00  0.00     0.220 C  
HETATM    9  C   UNL     1      -8.720  16.830  66.712  1.00  0.00    -0.230 C  
HETATM   10  C   UNL     1      -6.086  17.348  67.828  1.00  0.00    -0.151 C  
HETATM   11  C   UNL     1      -8.113  18.310  67.559  1.00  0.00    -0.239 C  
HETATM   12  C   UNL     1      -7.061  18.999  69.179  1.00  0.00    -0.294 C  
HETATM   13  C   UNL     1      -5.723  18.927  67.087  1.00  0.00    -0.157 C  
HETATM   14  O   UNL     1      -8.859  19.085  66.524  1.00  0.00    -0.307 OA 
HETATM   15  H   UNL     1      -8.263  19.193  65.793  1.00  0.00     0.000 HD 
HETATM   16  C   UNL     1      -5.775  18.275  69.826  1.00  0.00    -0.235 C  
HETATM   17  O   UNL     1      -6.647  20.373  69.338  1.00  0.00    -0.249 OA 
HETATM   18  C   UNL     1      -6.399  18.132  64.842  1.00  0.00     0.404 C  
HETATM   19  C   UNL     1      -7.651  16.973  68.807  1.00  0.00    -0.243 C  
HETATM   20  C   UNL     1      -5.169  20.234  64.774  1.00  0.00    -0.197 C  
HETATM   21  H   UNL     1      -6.160  20.692  70.089  1.00  0.00     0.000 HD 
HETATM   22  C   UNL     1      -6.079  19.369  65.648  1.00  0.00    -0.224 C  
HETATM   23  O   UNL     1      -7.710  16.027  69.608  1.00  0.00    -0.152 OA 
HETATM   24  C   UNL     1      -5.209  17.382  69.019  1.00  0.00    -0.154 C  
ENDROOT
BRANCH   9  25
HETATM   25  O   UNL     1      -8.019  15.571  66.736  1.00  0.00    -0.233 OA 
BRANCH  25  26
HETATM   26  C   UNL     1      -8.797  14.484  66.447  1.00  0.00    -0.033 C  
HETATM   27  O   UNL     1      -9.467  14.365  65.429  1.00  0.00    -0.083 OA 
BRANCH  26  28
HETATM   28  C   UNL     1      -8.698  13.370  67.438  1.00  0.00    -0.209 C  
HETATM   29  C   UNL     1     -11.171  12.890  67.965  1.00  0.00    -0.305 C  
HETATM   30  C   UNL     1      -9.699  12.725  68.070  1.00  0.00    -0.220 C  
HETATM   31  C   UNL     1      -7.286  12.881  67.680  1.00  0.00    -0.145 C  
ENDBRANCH  26  28
ENDBRANCH  25  26
ENDBRANCH   9  25
BRANCH  16  32
HETATM   32  C   UNL     1      -5.376  18.466  71.256  1.00  0.00    -0.199 C  
HETATM   33  H   UNL     1      -5.012  19.991  72.405  1.00  0.00     0.000 HD 
HETATM   34  O   UNL     1      -5.265  19.869  71.497  1.00  0.00    -0.285 OA 
ENDBRANCH  16  32
TORSDOF 4
ENDMDL
MODEL       85
REMARK 921   NORMALIZED FREE ENERGY PREDICTED BY IDOCK:   -3.45 KCAL/MOL
REMARK 922        TOTAL FREE ENERGY PREDICTED BY IDOCK:   -5.39 KCAL/MOL
REMARK 923 INTER-LIGAND FREE ENERGY PREDICTED BY IDOCK:   -5.17 KCAL/MOL
REMARK 924 INTRA-LIGAND FREE ENERGY PREDICTED BY IDOCK:   -0.22 KCAL/MOL
REMARK 927      BINDING AFFINITY PREDICTED BY RF-SCORE:    0.00 PKD
ROOT
HETATM    1  C   UNL     1      -7.408   8.451  70.376  1.00  0.00    -0.056 C  
HETATM    2  C   UNL     1      -8.858   7.949  71.145  1.00  0.00    -0.150 C  
HETATM    3  C   UNL     1     -10.493   8.059  70.383  1.00  0.00    -0.218 C  
HETATM    4  C   UNL     1     -11.554   8.188  71.494  1.00  0.00    -0.315 C  
HETATM    5  C   UNL     1     -10.719   9.232  69.079  1.00  0.00    -0.189 C  
HETATM    6  C   UNL     1     -11.789  10.240  69.327  1.00  0.00    -0.081 C  
HETATM    7  C   UNL     1     -11.281  11.472  69.423  1.00  0.00    -0.324 C  
HETATM    8  C   UNL     1     -11.982  12.638  70.023  1.00  0.00    -0.377 C  
HETATM    9  C   UNL     1      -9.794  11.420  69.128  1.00  0.00     0.057 C  
HETATM   10  C   UNL     1      -7.973   9.732  67.617  1.00  0.00    -0.105 C  
HETATM   11  C   UNL     1      -9.383   9.676  69.382  1.00  0.00    -0.193 C  
HETATM   12  C   UNL     1      -9.121   7.865  68.454  1.00  0.00    -0.135 C  
HETATM   13  C   UNL     1      -6.990   9.049  68.936  1.00  0.00    -0.065 C  
HETATM   14  O   UNL     1      -9.368   9.995  70.839  1.00  0.00    -0.262 OA 
HETATM   15  H   UNL     1      -8.487  10.288  71.039  1.00  0.00     0.000 HD 
HETATM   16  C   UNL     1      -8.478   7.657  66.991  1.00  0.00    -0.125 C  
HETATM   17  O   UNL     1      -8.567   6.705  69.109  1.00  0.00    -0.129 OA 
HETATM   18  C   UNL     1      -6.652  11.277  69.961  1.00  0.00    -0.068 C  
HETATM   19  C   UNL     1      -9.854   9.667  67.556  1.00  0.00    -0.169 C  
HETATM   20  C   UNL     1      -5.146   9.583  70.854  1.00  0.00    -0.035 C  
HETATM   21  H   UNL     1      -8.446   5.866  68.679  1.00  0.00     0.000 HD 
HETATM   22  C   UNL     1      -6.516   9.792  70.207  1.00  0.00    -0.093 C  
HETATM   23  O   UNL     1     -10.480   9.800  66.492  1.00  0.00    -0.211 OA 
HETATM   24  C   UNL     1      -7.787   8.710  66.562  1.00  0.00    -0.099 C  
ENDROOT
BRANCH   9  25
HETATM   25  O   UNL     1      -9.460  12.137  67.924  1.00  0.00    -0.182 OA 
BRANCH  25  26
HETATM   26  C   UNL     1      -9.845  13.449  67.919  1.00  0.00    -0.237 C  
HETATM   27  O   UNL     1      -9.755  14.199  68.883  1.00  0.00    -0.184 OA 
BRANCH  26  28
HETATM   28  C   UNL     1     -10.308  13.954  66.591  1.00  0.00    -0.278 C  
HETATM   29  C   UNL     1     -12.222  12.328  66.027  1.00  0.00    -0.050 C  
HETATM   30  C   UNL     1     -11.294  13.468  65.811  1.00  0.00    -0.318 C  
HETATM   31  C   UNL     1      -9.611  15.217  66.134  1.00  0.00    -0.353 C  
ENDBRANCH  26  28
ENDBRANCH  25  26
ENDBRANCH   9  25
BRANCH  16  32
HETATM   32  C   UNL     1      -8.783   6.466  66.138  1.00  0.00    -0.146 C  
HETATM   33  H   UNL     1      -7.737   5.156  65.154  1.00  0.00     0.000 HD 
HETATM   34  O   UNL     1      -7.544   5.913  65.696  1.00  0.00    -0.079 OA 
ENDBRANCH  16  32
TORSDOF 4
ENDMDL
MODEL       86
REMARK 921   NORMALIZED FREE ENERGY PREDICTED BY IDOCK:   -3.38 KCAL/MOL
REMARK 922        TOTAL FREE ENERGY PREDICTED BY IDOCK:   -5.31 KCAL/MOL
REMARK 923 INTER-LIGAND FREE ENERGY PREDICTED BY IDOCK:   -4.12 KCAL/MOL
REMARK 924 INTRA-LIGAND FREE ENERGY PREDICTED BY IDOCK:   -1.18 KCAL/MOL
REMARK 927      BINDING AFFINITY PREDICTED BY RF-SCORE:    0.00 PKD
ROOT
HETATM    1  C   UNL     1     -10.060   5.416  70.147  1.00  0.00    -0.322 C  
HETATM    2  C   UNL     1      -9.769   4.536  68.703  1.00  0.00    -0.203 C  
HETATM    3  C   UNL     1      -8.471   4.949  67.515  1.00  0.00    -0.104 C  
HETATM    4  C   UNL     1      -8.897   4.455  66.118  1.00  0.00    -0.115 C  
HETATM    5  C   UNL     1      -7.863   6.609  67.501  1.00  0.00    -0.111 C  
HETATM    6  C   UNL     1      -7.996   7.309  66.191  1.00  0.00    -0.112 C  
HETATM    7  C   UNL     1      -8.838   8.344  66.278  1.00  0.00    -0.190 C  
HETATM    8  C   UNL     1      -9.482   9.017  65.120  1.00  0.00    -0.007 C  
HETATM    9  C   UNL     1      -9.274   8.509  67.722  1.00  0.00    -0.135 C  
HETATM   10  C   UNL     1      -8.214   7.891  70.357  1.00  0.00    -0.119 C  
HETATM   11  C   UNL     1      -8.906   6.894  68.451  1.00  0.00    -0.123 C  
HETATM   12  C   UNL     1      -7.527   5.812  69.516  1.00  0.00    -0.075 C  
HETATM   13  C   UNL     1      -9.395   6.676  70.907  1.00  0.00    -0.159 C  
HETATM   14  O   UNL     1     -10.180   6.433  67.825  1.00  0.00    -0.134 OA 
HETATM   15  H   UNL     1     -10.868   6.621  68.453  1.00  0.00     0.000 HD 
HETATM   16  C   UNL     1      -6.601   6.398  70.698  1.00  0.00    -0.052 C  
HETATM   17  O   UNL     1      -7.788   4.503  70.066  1.00  0.00    -0.056 OA 
HETATM   18  C   UNL     1     -11.308   8.093  70.226  1.00  0.00    -0.132 C  
HETATM   19  C   UNL     1      -7.270   7.789  68.731  1.00  0.00    -0.081 C  
HETATM   20  C   UNL     1     -11.964   6.244  71.670  1.00  0.00    -0.272 C  
HETATM   21  H   UNL     1      -7.149   4.003  70.559  1.00  0.00     0.000 HD 
HETATM   22  C   UNL     1     -10.921   6.694  70.647  1.00  0.00    -0.329 C  
HETATM   23  O   UNL     1      -6.215   8.415  68.547  1.00  0.00    -0.050 OA 
HETATM   24  C   UNL     1      -7.042   7.551  71.194  1.00  0.00    -0.058 C  
ENDROOT
BRANCH   9  25
HETATM   25  O   UNL     1      -8.804   9.749  68.286  1.00  0.00    -0.119 OA 
BRANCH  25  26
HETATM   26  C   UNL     1      -9.585  10.833  67.999  1.00  0.00    -0.163 C  
HETATM   27  O   UNL     1     -10.809  10.815  67.966  1.00  0.00    -0.213 OA 
BRANCH  26  28
HETATM   28  C   UNL     1      -8.830  12.110  67.817  1.00  0.00    -0.172 C  
HETATM   29  C   UNL     1      -6.704  11.317  66.603  1.00  0.00    -0.132 C  
HETATM   30  C   UNL     1      -7.625  12.291  67.242  1.00  0.00    -0.152 C  
HETATM   31  C   UNL     1      -9.579  13.342  68.279  1.00  0.00    -0.220 C  
ENDBRANCH  26  28
ENDBRANCH  25  26
ENDBRANCH   9  25
BRANCH  16  32
HETATM   32  C   UNL     1      -5.285   5.790  71.067  1.00  0.00    -0.009 C  
HETATM   33  H   UNL     1      -4.696   4.085  71.793  1.00  0.00     0.000 HD 
HETATM   34  O   UNL     1      -5.531   4.472  71.559  1.00  0.00    -0.003 OA 
ENDBRANCH  16  32
TORSDOF 4
ENDMDL
MODEL       87
REMARK 921   NORMALIZED FREE ENERGY PREDICTED BY IDOCK:   -3.35 KCAL/MOL
REMARK 922        TOTAL FREE ENERGY PREDICTED BY IDOCK:   -5.27 KCAL/MOL
REMARK 923 INTER-LIGAND FREE ENERGY PREDICTED BY IDOCK:   -4.11 KCAL/MOL
REMARK 924 INTRA-LIGAND FREE ENERGY PREDICTED BY IDOCK:   -1.16 KCAL/MOL
REMARK 927      BINDING AFFINITY PREDICTED BY RF-SCORE:    0.00 PKD
ROOT
HETATM    1  C   UNL     1      -8.119   3.936  68.627  1.00  0.00    -0.079 C  
HETATM    2  C   UNL     1      -9.628   4.438  69.272  1.00  0.00    -0.261 C  
HETATM    3  C   UNL     1     -10.643   5.752  68.556  1.00  0.00    -0.299 C  
HETATM    4  C   UNL     1     -11.500   6.384  69.671  1.00  0.00    -0.446 C  
HETATM    5  C   UNL     1      -9.839   6.956  67.542  1.00  0.00    -0.173 C  
HETATM    6  C   UNL     1      -9.991   8.364  68.006  1.00  0.00    -0.221 C  
HETATM    7  C   UNL     1      -8.815   8.885  68.369  1.00  0.00    -0.134 C  
HETATM    8  C   UNL     1      -8.644  10.097  69.211  1.00  0.00    -0.180 C  
HETATM    9  C   UNL     1      -7.715   7.884  68.066  1.00  0.00    -0.125 C  
HETATM   10  C   UNL     1      -7.278   5.685  66.217  1.00  0.00    -0.077 C  
HETATM   11  C   UNL     1      -8.609   6.316  67.930  1.00  0.00    -0.115 C  
HETATM   12  C   UNL     1      -9.482   4.994  66.628  1.00  0.00    -0.146 C  
HETATM   13  C   UNL     1      -7.204   4.314  67.352  1.00  0.00    -0.068 C  
HETATM   14  O   UNL     1      -8.600   6.298  69.422  1.00  0.00    -0.123 OA 
HETATM   15  H   UNL     1      -7.789   5.876  69.679  1.00  0.00     0.000 HD 
HETATM   16  C   UNL     1      -8.933   4.645  65.153  1.00  0.00    -0.150 C  
HETATM   17  O   UNL     1      -9.942   3.680  67.011  1.00  0.00    -0.331 OA 
HETATM   18  C   UNL     1      -5.629   5.511  68.839  1.00  0.00    -0.011 C  
HETATM   19  C   UNL     1      -8.692   6.927  66.148  1.00  0.00    -0.145 C  
HETATM   20  C   UNL     1      -5.778   3.131  69.335  1.00  0.00    -0.022 C  
HETATM   21  H   UNL     1     -10.346   3.068  66.408  1.00  0.00     0.000 HD 
HETATM   22  C   UNL     1      -6.550   4.317  68.754  1.00  0.00    -0.045 C  
HETATM   23  O   UNL     1      -8.906   7.619  65.141  1.00  0.00     0.024 OA 
HETATM   24  C   UNL     1      -7.665   4.999  64.964  1.00  0.00    -0.083 C  
ENDROOT
BRANCH   9  25
HETATM   25  O   UNL     1      -6.818   8.366  67.047  1.00  0.00    -0.068 OA 
BRANCH  25  26
HETATM   26  C   UNL     1      -5.860   9.230  67.497  1.00  0.00    -0.046 C  
HETATM   27  O   UNL     1      -5.175   9.045  68.495  1.00  0.00    -0.034 OA 
BRANCH  26  28
HETATM   28  C   UNL     1      -5.625  10.411  66.612  1.00  0.00    -0.054 C  
HETATM   29  C   UNL     1      -5.196   9.305  64.328  1.00  0.00    -0.058 C  
HETATM   30  C   UNL     1      -5.339  10.423  65.295  1.00  0.00    -0.110 C  
HETATM   31  C   UNL     1      -5.817  11.746  67.300  1.00  0.00    -0.119 C  
ENDBRANCH  26  28
ENDBRANCH  25  26
ENDBRANCH   9  25
BRANCH  16  32
HETATM   32  C   UNL     1      -9.822   4.139  64.061  1.00  0.00    -0.114 C  
HETATM   33  H   UNL     1     -11.709   3.705  63.894  1.00  0.00     0.000 HD 
HETATM   34  O   UNL     1     -11.145   4.026  64.587  1.00  0.00    -0.300 OA 
ENDBRANCH  16  32
TORSDOF 4
ENDMDL
MODEL       88
REMARK 921   NORMALIZED FREE ENERGY PREDICTED BY IDOCK:   -3.34 KCAL/MOL
REMARK 922        TOTAL FREE ENERGY PREDICTED BY IDOCK:   -5.25 KCAL/MOL
REMARK 923 INTER-LIGAND FREE ENERGY PREDICTED BY IDOCK:   -4.17 KCAL/MOL
REMARK 924 INTRA-LIGAND FREE ENERGY PREDICTED BY IDOCK:   -1.09 KCAL/MOL
REMARK 927      BINDING AFFINITY PREDICTED BY RF-SCORE:    0.00 PKD
ROOT
HETATM    1  C   UNL     1      -7.657   5.258  70.883  1.00  0.00    -0.088 C  
HETATM    2  C   UNL     1      -9.193   5.318  71.646  1.00  0.00    -0.170 C  
HETATM    3  C   UNL     1     -10.729   5.731  70.788  1.00  0.00    -0.342 C  
HETATM    4  C   UNL     1     -11.719   6.341  71.801  1.00  0.00    -0.355 C  
HETATM    5  C   UNL     1     -10.613   6.667  69.292  1.00  0.00    -0.276 C  
HETATM    6  C   UNL     1     -11.362   7.955  69.304  1.00  0.00     0.387 C  
HETATM    7  C   UNL     1     -10.532   8.999  69.216  1.00  0.00    -0.238 C  
HETATM    8  C   UNL     1     -10.884  10.399  69.568  1.00  0.00    -0.295 C  
HETATM    9  C   UNL     1      -9.116   8.491  69.016  1.00  0.00    -0.146 C  
HETATM   10  C   UNL     1      -7.830   6.127  67.918  1.00  0.00    -0.106 C  
HETATM   11  C   UNL     1      -9.208   6.776  69.587  1.00  0.00    -0.145 C  
HETATM   12  C   UNL     1      -9.456   4.827  68.999  1.00  0.00    -0.148 C  
HETATM   13  C   UNL     1      -7.082   5.450  69.387  1.00  0.00    -0.063 C  
HETATM   14  O   UNL     1      -9.112   7.335  70.967  1.00  0.00    -0.152 OA 
HETATM   15  H   UNL     1      -8.186   7.407  71.161  1.00  0.00     0.000 HD 
HETATM   16  C   UNL     1      -8.889   4.191  67.631  1.00  0.00    -0.128 C  
HETATM   17  O   UNL     1      -9.250   3.696  69.872  1.00  0.00    -0.112 OA 
HETATM   18  C   UNL     1      -6.143   7.648  70.032  1.00  0.00    -0.026 C  
HETATM   19  C   UNL     1      -9.654   6.568  67.766  1.00  0.00    -0.122 C  
HETATM   20  C   UNL     1      -5.172   5.797  71.283  1.00  0.00    -0.013 C  
HETATM   21  H   UNL     1      -9.365   2.793  69.599  1.00  0.00     0.000 HD 
HETATM   22  C   UNL     1      -6.426   6.252  70.536  1.00  0.00    -0.044 C  
HETATM   23  O   UNL     1     -10.213   6.673  66.663  1.00  0.00    -0.189 OA 
HETATM   24  C   UNL     1      -7.930   4.921  67.066  1.00  0.00    -0.103 C  
ENDROOT
BRANCH   9  25
HETATM   25  O   UNL     1      -8.590   8.860  67.727  1.00  0.00    -0.124 OA 
BRANCH  25  26
HETATM   26  C   UNL     1      -8.258  10.181  67.608  1.00  0.00    -0.110 C  
HETATM   27  O   UNL     1      -7.515  10.779  68.376  1.00  0.00    -0.087 OA 
BRANCH  26  28
HETATM   28  C   UNL     1      -8.799  10.849  66.385  1.00  0.00    -0.178 C  
HETATM   29  C   UNL     1      -8.424   9.058  64.575  1.00  0.00    -0.191 C  
HETATM   30  C   UNL     1      -8.850  10.370  65.126  1.00  0.00    -0.207 C  
HETATM   31  C   UNL     1      -9.431  12.200  66.647  1.00  0.00    -0.226 C  
ENDBRANCH  26  28
ENDBRANCH  25  26
ENDBRANCH   9  25
BRANCH  16  32
HETATM   32  C   UNL     1      -9.509   2.996  66.979  1.00  0.00    -0.063 C  
HETATM   33  H   UNL     1      -9.382   1.069  67.202  1.00  0.00     0.000 HD 
HETATM   34  O   UNL     1      -8.988   1.828  67.615  1.00  0.00    -0.111 OA 
ENDBRANCH  16  32
TORSDOF 4
ENDMDL
MODEL       89
REMARK 921   NORMALIZED FREE ENERGY PREDICTED BY IDOCK:   -3.29 KCAL/MOL
REMARK 922        TOTAL FREE ENERGY PREDICTED BY IDOCK:   -5.19 KCAL/MOL
REMARK 923 INTER-LIGAND FREE ENERGY PREDICTED BY IDOCK:   -4.39 KCAL/MOL
REMARK 924 INTRA-LIGAND FREE ENERGY PREDICTED BY IDOCK:   -0.79 KCAL/MOL
REMARK 927      BINDING AFFINITY PREDICTED BY RF-SCORE:    0.00 PKD
ROOT
HETATM    1  C   UNL     1     -10.981   6.416  67.964  1.00  0.00    -0.400 C  
HETATM    2  C   UNL     1     -11.745   6.498  69.498  1.00  0.00    -0.162 C  
HETATM    3  C   UNL     1     -10.967   7.190  70.975  1.00  0.00    -0.277 C  
HETATM    4  C   UNL     1     -11.584   6.525  72.222  1.00  0.00    -0.330 C  
HETATM    5  C   UNL     1      -9.201   7.246  71.029  1.00  0.00    -0.154 C  
HETATM    6  C   UNL     1      -8.590   6.520  72.179  1.00  0.00    -0.123 C  
HETATM    7  C   UNL     1      -7.862   5.479  71.763  1.00  0.00    -0.112 C  
HETATM    8  C   UNL     1      -7.432   4.344  72.622  1.00  0.00    -0.079 C  
HETATM    9  C   UNL     1      -7.823   5.475  70.247  1.00  0.00    -0.093 C  
HETATM   10  C   UNL     1      -8.057   7.420  68.099  1.00  0.00    -0.124 C  
HETATM   11  C   UNL     1      -9.239   6.507  69.794  1.00  0.00    -0.145 C  
HETATM   12  C   UNL     1      -9.834   8.400  69.275  1.00  0.00    -0.186 C  
HETATM   13  C   UNL     1      -9.569   6.877  67.330  1.00  0.00    -0.163 C  
HETATM   14  O   UNL     1     -10.075   5.299  70.055  1.00  0.00    -0.219 OA 
HETATM   15  H   UNL     1     -10.100   4.812  69.241  1.00  0.00     0.000 HD 
HETATM   16  C   UNL     1      -8.979   9.426  68.372  1.00  0.00    -0.128 C  
HETATM   17  O   UNL     1     -11.154   8.717  68.784  1.00  0.00    -0.435 OA 
HETATM   18  C   UNL     1      -8.815   4.519  67.300  1.00  0.00    -0.111 C  
HETATM   19  C   UNL     1      -7.882   7.809  69.933  1.00  0.00    -0.105 C  
HETATM   20  C   UNL     1     -10.759   4.911  65.887  1.00  0.00    -0.233 C  
HETATM   21  H   UNL     1     -11.429   9.594  68.543  1.00  0.00     0.000 HD 
HETATM   22  C   UNL     1     -10.022   5.411  67.130  1.00  0.00    -0.199 C  
HETATM   23  O   UNL     1      -6.965   8.524  70.366  1.00  0.00    -0.036 OA 
HETATM   24  C   UNL     1      -8.012   8.837  67.675  1.00  0.00    -0.106 C  
ENDROOT
BRANCH   9  25
HETATM   25  O   UNL     1      -6.493   5.706  69.744  1.00  0.00    -0.038 OA 
BRANCH  25  26
HETATM   26  C   UNL     1      -5.749   4.573  69.566  1.00  0.00    -0.017 C  
HETATM   27  O   UNL     1      -5.340   3.864  70.476  1.00  0.00    -0.004 OA 
BRANCH  26  28
HETATM   28  C   UNL     1      -5.542   4.186  68.137  1.00  0.00    -0.017 C  
HETATM   29  C   UNL     1      -6.093   1.672  68.167  1.00  0.00    -0.024 C  
HETATM   30  C   UNL     1      -5.679   2.969  67.574  1.00  0.00    -0.022 C  
HETATM   31  C   UNL     1      -5.212   5.348  67.224  1.00  0.00    -0.005 C  
ENDBRANCH  26  28
ENDBRANCH  25  26
ENDBRANCH   9  25
BRANCH  16  32
HETATM   32  C   UNL     1      -9.151  10.910  68.457  1.00  0.00    -0.173 C  
HETATM   33  H   UNL     1     -10.446  12.199  67.796  1.00  0.00     0.000 HD 
HETATM   34  O   UNL     1     -10.337  11.257  67.742  1.00  0.00    -0.175 OA 
ENDBRANCH  16  32
TORSDOF 4
ENDMDL
MODEL       90
REMARK 921   NORMALIZED FREE ENERGY PREDICTED BY IDOCK:   -3.21 KCAL/MOL
REMARK 922        TOTAL FREE ENERGY PREDICTED BY IDOCK:   -5.09 KCAL/MOL
REMARK 923 INTER-LIGAND FREE ENERGY PREDICTED BY IDOCK:   -4.73 KCAL/MOL
REMARK 924 INTRA-LIGAND FREE ENERGY PREDICTED BY IDOCK:   -0.36 KCAL/MOL
REMARK 927      BINDING AFFINITY PREDICTED BY RF-SCORE:    0.00 PKD
ROOT
HETATM    1  C   UNL     1     -10.734  11.275  65.552  1.00  0.00    -0.283 C  
HETATM    2  C   UNL     1      -9.371  10.354  66.040  1.00  0.00    -0.219 C  
HETATM    3  C   UNL     1      -8.519  10.573  67.619  1.00  0.00    -0.115 C  
HETATM    4  C   UNL     1      -7.049  10.135  67.459  1.00  0.00    -0.087 C  
HETATM    5  C   UNL     1      -8.685  12.132  68.437  1.00  0.00    -0.141 C  
HETATM    6  C   UNL     1      -7.399  12.835  68.704  1.00  0.00    -0.099 C  
HETATM    7  C   UNL     1      -7.319  13.978  68.016  1.00  0.00    -0.142 C  
HETATM    8  C   UNL     1      -6.063  14.727  67.752  1.00  0.00    -0.143 C  
HETATM    9  C   UNL     1      -8.630  14.211  67.289  1.00  0.00    -0.218 C  
HETATM   10  C   UNL     1     -11.420  13.468  67.624  1.00  0.00    -0.351 C  
HETATM   11  C   UNL     1      -9.382  12.565  67.254  1.00  0.00    -0.190 C  
HETATM   12  C   UNL     1     -10.703  11.308  68.192  1.00  0.00    -0.204 C  
HETATM   13  C   UNL     1     -11.657  12.434  66.193  1.00  0.00    -0.452 C  
HETATM   14  O   UNL     1      -8.472  12.284  66.105  1.00  0.00    -0.394 OA 
HETATM   15  H   UNL     1      -8.932  12.570  65.325  1.00  0.00     0.000 HD 
HETATM   16  C   UNL     1     -12.079  11.766  68.896  1.00  0.00    -0.238 C  
HETATM   17  O   UNL     1     -11.145  10.052  67.634  1.00  0.00    -0.385 OA 
HETATM   18  C   UNL     1     -10.597  14.101  64.700  1.00  0.00    -0.391 C  
HETATM   19  C   UNL     1     -10.048  13.225  68.891  1.00  0.00     0.026 C  
HETATM   20  C   UNL     1     -11.806  12.371  63.484  1.00  0.00    -0.605 C  
HETATM   21  H   UNL     1     -11.757   9.470  68.069  1.00  0.00     0.000 HD 
HETATM   22  C   UNL     1     -11.058  12.664  64.785  1.00  0.00    -0.335 C  
HETATM   23  O   UNL     1     -10.124  13.695  70.037  1.00  0.00     1.086 OA 
HETATM   24  C   UNL     1     -12.491  12.972  68.516  1.00  0.00     0.421 C  
ENDROOT
BRANCH   9  25
HETATM   25  O   UNL     1      -9.318  15.377  67.784  1.00  0.00    -0.194 OA 
BRANCH  25  26
HETATM   26  C   UNL     1      -8.554  16.509  67.830  1.00  0.00    -0.183 C  
HETATM   27  O   UNL     1      -7.957  16.901  68.826  1.00  0.00    -0.242 OA 
BRANCH  26  28
HETATM   28  C   UNL     1      -8.408  17.213  66.520  1.00  0.00    -0.309 C  
HETATM   29  C   UNL     1     -10.836  17.293  65.671  1.00  0.00    -0.029 C  
HETATM   30  C   UNL     1      -9.369  17.521  65.627  1.00  0.00     0.403 C  
HETATM   31  C   UNL     1      -7.002  17.692  66.229  1.00  0.00    -0.326 C  
ENDBRANCH  26  28
ENDBRANCH  25  26
ENDBRANCH   9  25
BRANCH  16  32
HETATM   32  C   UNL     1     -12.721  10.981  69.997  1.00  0.00    -0.093 C  
HETATM   33  H   UNL     1     -12.101   9.777  71.390  1.00  0.00     0.000 HD 
HETATM   34  O   UNL     1     -11.693  10.274  70.692  1.00  0.00    -0.295 OA 
ENDBRANCH  16  32
TORSDOF 4
ENDMDL
MODEL       91
REMARK 921   NORMALIZED FREE ENERGY PREDICTED BY IDOCK:   -3.20 KCAL/MOL
REMARK 922        TOTAL FREE ENERGY PREDICTED BY IDOCK:   -5.08 KCAL/MOL
REMARK 923 INTER-LIGAND FREE ENERGY PREDICTED BY IDOCK:   -4.13 KCAL/MOL
REMARK 924 INTRA-LIGAND FREE ENERGY PREDICTED BY IDOCK:   -0.95 KCAL/MOL
REMARK 927      BINDING AFFINITY PREDICTED BY RF-SCORE:    0.00 PKD
ROOT
HETATM    1  C   UNL     1      -7.075  10.753  69.061  1.00  0.00    -0.091 C  
HETATM    2  C   UNL     1      -7.000  11.271  67.428  1.00  0.00    -0.101 C  
HETATM    3  C   UNL     1      -8.086  10.653  66.123  1.00  0.00    -0.154 C  
HETATM    4  C   UNL     1      -7.358  10.770  64.769  1.00  0.00     0.274 C  
HETATM    5  C   UNL     1      -8.844   9.073  66.360  1.00  0.00    -0.172 C  
HETATM    6  C   UNL     1      -8.539   8.071  65.299  1.00  0.00    -0.112 C  
HETATM    7  C   UNL     1      -7.838   7.044  65.790  1.00  0.00    -0.109 C  
HETATM    8  C   UNL     1      -7.058   6.078  64.973  1.00  0.00    -0.061 C  
HETATM    9  C   UNL     1      -7.699   7.211  67.292  1.00  0.00    -0.109 C  
HETATM   10  C   UNL     1      -9.167   8.504  69.442  1.00  0.00    -0.153 C  
HETATM   11  C   UNL     1      -8.032   8.972  67.544  1.00  0.00    -0.101 C  
HETATM   12  C   UNL     1      -9.472  10.351  68.028  1.00  0.00    -0.143 C  
HETATM   13  C   UNL     1      -7.994   9.752  69.933  1.00  0.00    -0.184 C  
HETATM   14  O   UNL     1      -6.624   9.199  67.107  1.00  0.00    -0.060 OA 
HETATM   15  H   UNL     1      -6.089   9.133  67.888  1.00  0.00     0.000 HD 
HETATM   16  C   UNL     1     -10.657  10.119  69.095  1.00  0.00    -0.247 C  
HETATM   17  O   UNL     1      -9.187  11.738  68.309  1.00  0.00    -0.180 OA 
HETATM   18  C   UNL     1      -6.140   8.113  70.001  1.00  0.00    -0.029 C  
HETATM   19  C   UNL     1      -9.773   8.259  67.676  1.00  0.00    -0.159 C  
HETATM   20  C   UNL     1      -5.584  10.219  71.091  1.00  0.00    -0.062 C  
HETATM   21  H   UNL     1      -9.855  12.377  68.533  1.00  0.00     0.000 HD 
HETATM   22  C   UNL     1      -6.457   9.590  70.004  1.00  0.00    -0.061 C  
HETATM   23  O   UNL     1     -10.833   7.664  67.425  1.00  0.00    -0.258 OA 
HETATM   24  C   UNL     1     -10.435   9.099  69.919  1.00  0.00    -0.239 C  
ENDROOT
BRANCH   9  25
HETATM   25  O   UNL     1      -8.388   6.172  68.013  1.00  0.00    -0.116 OA 
BRANCH  25  26
HETATM   26  C   UNL     1      -7.617   5.085  68.316  1.00  0.00    -0.079 C  
HETATM   27  O   UNL     1      -6.581   5.132  68.968  1.00  0.00    -0.047 OA 
BRANCH  26  28
HETATM   28  C   UNL     1      -8.185   3.777  67.868  1.00  0.00    -0.092 C  
HETATM   29  C   UNL     1     -10.341   4.503  66.664  1.00  0.00    -0.124 C  
HETATM   30  C   UNL     1      -9.327   3.553  67.189  1.00  0.00    -0.229 C  
HETATM   31  C   UNL     1      -7.299   2.585  68.163  1.00  0.00    -0.048 C  
ENDBRANCH  26  28
ENDBRANCH  25  26
ENDBRANCH   9  25
BRANCH  16  32
HETATM   32  C   UNL     1     -11.951  10.868  69.037  1.00  0.00    -0.251 C  
HETATM   33  H   UNL     1     -12.939  11.833  67.670  1.00  0.00     0.000 HD 
HETATM   34  O   UNL     1     -12.118  11.358  67.706  1.00  0.00    -0.637 OA 
ENDBRANCH  16  32
TORSDOF 4
ENDMDL
MODEL       92
REMARK 921   NORMALIZED FREE ENERGY PREDICTED BY IDOCK:   -3.03 KCAL/MOL
REMARK 922        TOTAL FREE ENERGY PREDICTED BY IDOCK:   -4.86 KCAL/MOL
REMARK 923 INTER-LIGAND FREE ENERGY PREDICTED BY IDOCK:   -4.09 KCAL/MOL
REMARK 924 INTRA-LIGAND FREE ENERGY PREDICTED BY IDOCK:   -0.77 KCAL/MOL
REMARK 927      BINDING AFFINITY PREDICTED BY RF-SCORE:    0.00 PKD
ROOT
HETATM    1  C   UNL     1     -11.516  11.164  68.795  1.00  0.00    -0.366 C  
HETATM    2  C   UNL     1     -11.502  12.718  69.523  1.00  0.00    -0.293 C  
HETATM    3  C   UNL     1     -10.882  14.207  68.709  1.00  0.00    -0.271 C  
HETATM    4  C   UNL     1     -10.393  15.197  69.785  1.00  0.00    -0.225 C  
HETATM    5  C   UNL     1      -9.727  14.004  67.386  1.00  0.00    -0.233 C  
HETATM    6  C   UNL     1      -8.421  14.694  67.588  1.00  0.00    -0.187 C  
HETATM    7  C   UNL     1      -7.419  13.814  67.687  1.00  0.00    -0.187 C  
HETATM    8  C   UNL     1      -6.077  14.113  68.252  1.00  0.00    -0.118 C  
HETATM    9  C   UNL     1      -7.959  12.418  67.440  1.00  0.00    -0.178 C  
HETATM   10  C   UNL     1     -10.178  11.209  66.005  1.00  0.00    -0.300 C  
HETATM   11  C   UNL     1      -9.736  12.605  67.725  1.00  0.00    -0.206 C  
HETATM   12  C   UNL     1     -11.552  12.924  66.827  1.00  0.00    -0.360 C  
HETATM   13  C   UNL     1     -11.117  10.537  67.362  1.00  0.00    -0.322 C  
HETATM   14  O   UNL     1      -9.409  12.525  69.179  1.00  0.00    -0.242 OA 
HETATM   15  H   UNL     1      -9.415  11.602  69.403  1.00  0.00     0.000 HD 
HETATM   16  C   UNL     1     -11.988  12.345  65.387  1.00  0.00    -0.457 C  
HETATM   17  O   UNL     1     -12.816  12.795  67.511  1.00  0.00     0.718 OA 
HETATM   18  C   UNL     1      -9.099   9.518  68.373  1.00  0.00    -0.127 C  
HETATM   19  C   UNL     1      -9.629  13.006  65.886  1.00  0.00    -0.114 C  
HETATM   20  C   UNL     1     -11.172   8.669  69.331  1.00  0.00     0.187 C  
HETATM   21  H   UNL     1     -13.657  12.943  67.094  1.00  0.00     0.000 HD 
HETATM   22  C   UNL     1     -10.542   9.879  68.639  1.00  0.00    -0.244 C  
HETATM   23  O   UNL     1      -9.322  13.526  64.801  1.00  0.00     0.529 OA 
HETATM   24  C   UNL     1     -11.226  11.338  64.968  1.00  0.00    -0.082 C  
ENDROOT
BRANCH   9  25
HETATM   25  O   UNL     1      -7.415  11.838  66.238  1.00  0.00     0.087 OA 
BRANCH  25  26
HETATM   26  C   UNL     1      -6.150  11.337  66.373  1.00  0.00    -0.117 C  
HETATM   27  O   UNL     1      -5.133  11.924  66.026  1.00  0.00    -0.272 OA 
BRANCH  26  28
HETATM   28  C   UNL     1      -6.076  10.024  67.082  1.00  0.00    -0.055 C  
HETATM   29  C   UNL     1      -5.347  10.722  69.450  1.00  0.00    -0.037 C  
HETATM   30  C   UNL     1      -5.728   9.785  68.362  1.00  0.00    -0.043 C  
HETATM   31  C   UNL     1      -6.529   8.844  66.247  1.00  0.00    -0.065 C  
ENDBRANCH  26  28
ENDBRANCH  25  26
ENDBRANCH   9  25
BRANCH  16  32
HETATM   32  C   UNL     1     -13.032  13.000  64.538  1.00  0.00    -0.028 C  
HETATM   33  H   UNL     1     -14.089  12.484  62.990  1.00  0.00     0.000 HD 
HETATM   34  O   UNL     1     -13.426  12.069  63.529  1.00  0.00    -0.483 OA 
ENDBRANCH  16  32
TORSDOF 4
ENDMDL
MODEL       93
REMARK 921   NORMALIZED FREE ENERGY PREDICTED BY IDOCK:   -2.96 KCAL/MOL
REMARK 922        TOTAL FREE ENERGY PREDICTED BY IDOCK:   -4.79 KCAL/MOL
REMARK 923 INTER-LIGAND FREE ENERGY PREDICTED BY IDOCK:   -4.07 KCAL/MOL
REMARK 924 INTRA-LIGAND FREE ENERGY PREDICTED BY IDOCK:   -0.72 KCAL/MOL
REMARK 927      BINDING AFFINITY PREDICTED BY RF-SCORE:    0.00 PKD
ROOT
HETATM    1  C   UNL     1     -10.006   9.694  68.679  1.00  0.00    -0.179 C  
HETATM    2  C   UNL     1      -8.389  10.061  68.236  1.00  0.00    -0.110 C  
HETATM    3  C   UNL     1      -7.099   8.815  68.012  1.00  0.00    -0.079 C  
HETATM    4  C   UNL     1      -5.727   9.462  68.294  1.00  0.00    -0.037 C  
HETATM    5  C   UNL     1      -7.304   7.259  68.824  1.00  0.00    -0.096 C  
HETATM    6  C   UNL     1      -6.200   6.892  69.757  1.00  0.00    -0.034 C  
HETATM    7  C   UNL     1      -6.633   6.834  71.020  1.00  0.00    -0.053 C  
HETATM    8  C   UNL     1      -5.758   6.869  72.222  1.00  0.00    -0.038 C  
HETATM    9  C   UNL     1      -8.134   7.052  71.041  1.00  0.00    -0.105 C  
HETATM   10  C   UNL     1     -10.373   6.671  69.228  1.00  0.00    -0.228 C  
HETATM   11  C   UNL     1      -8.458   7.850  69.450  1.00  0.00    -0.133 C  
HETATM   12  C   UNL     1      -9.035   7.537  67.506  1.00  0.00    -0.126 C  
HETATM   13  C   UNL     1     -10.871   8.361  68.964  1.00  0.00    -0.015 C  
HETATM   14  O   UNL     1      -7.985   9.108  70.098  1.00  0.00    -0.091 OA 
HETATM   15  H   UNL     1      -8.746   9.498  70.510  1.00  0.00     0.000 HD 
HETATM   16  C   UNL     1     -10.130   6.456  67.027  1.00  0.00    -0.227 C  
HETATM   17  O   UNL     1      -9.355   8.602  66.586  1.00  0.00    -0.165 OA 
HETATM   18  C   UNL     1     -10.822   8.850  71.390  1.00  0.00    -0.378 C  
HETATM   19  C   UNL     1      -8.620   6.032  68.974  1.00  0.00    -0.120 C  
HETATM   20  C   UNL     1     -11.968  10.569  70.099  1.00  0.00    -0.398 C  
HETATM   21  H   UNL     1      -9.622   8.456  65.686  1.00  0.00     0.000 HD 
HETATM   22  C   UNL     1     -10.887   9.489  70.023  1.00  0.00    -0.286 C  
HETATM   23  O   UNL     1      -8.382   4.827  68.797  1.00  0.00    -0.082 OA 
HETATM   24  C   UNL     1     -10.911   6.021  68.012  1.00  0.00    -0.374 C  
ENDROOT
BRANCH   9  25
HETATM   25  O   UNL     1      -8.840   5.878  71.488  1.00  0.00    -0.135 OA 
BRANCH  25  26
HETATM   26  C   UNL     1      -9.529   6.041  72.657  1.00  0.00    -0.146 C  
HETATM   27  O   UNL     1     -10.742   5.917  72.768  1.00  0.00    -0.212 OA 
BRANCH  26  28
HETATM   28  C   UNL     1      -8.669   6.295  73.853  1.00  0.00    -0.128 C  
HETATM   29  C   UNL     1      -7.711   3.956  74.342  1.00  0.00    -0.078 C  
HETATM   30  C   UNL     1      -7.927   5.411  74.549  1.00  0.00    -0.104 C  
HETATM   31  C   UNL     1      -8.585   7.751  74.256  1.00  0.00    -0.268 C  
ENDBRANCH  26  28
ENDBRANCH  25  26
ENDBRANCH   9  25
BRANCH  16  32
HETATM   32  C   UNL     1     -10.139   5.876  65.647  1.00  0.00     0.543 C  
HETATM   33  H   UNL     1      -9.854   4.114  64.878  1.00  0.00     0.000 HD 
HETATM   34  O   UNL     1      -9.847   4.482  65.754  1.00  0.00    -0.185 OA 
ENDBRANCH  16  32
TORSDOF 4
ENDMDL
MODEL       94
REMARK 921   NORMALIZED FREE ENERGY PREDICTED BY IDOCK:   -2.68 KCAL/MOL
REMARK 922        TOTAL FREE ENERGY PREDICTED BY IDOCK:   -4.44 KCAL/MOL
REMARK 923 INTER-LIGAND FREE ENERGY PREDICTED BY IDOCK:   -3.48 KCAL/MOL
REMARK 924 INTRA-LIGAND FREE ENERGY PREDICTED BY IDOCK:   -0.95 KCAL/MOL
REMARK 927      BINDING AFFINITY PREDICTED BY RF-SCORE:    0.00 PKD
ROOT
HETATM    1  C   UNL     1      -6.615   7.652  66.711  1.00  0.00    -0.061 C  
HETATM    2  C   UNL     1      -5.700   6.213  66.902  1.00  0.00    -0.016 C  
HETATM    3  C   UNL     1      -6.340   4.706  67.667  1.00  0.00    -0.040 C  
HETATM    4  C   UNL     1      -5.164   3.917  68.277  1.00  0.00    -0.012 C  
HETATM    5  C   UNL     1      -7.710   4.860  68.775  1.00  0.00    -0.077 C  
HETATM    6  C   UNL     1      -7.461   4.343  70.150  1.00  0.00    -0.046 C  
HETATM    7  C   UNL     1      -7.500   5.328  71.053  1.00  0.00    -0.087 C  
HETATM    8  C   UNL     1      -6.941   5.246  72.427  1.00  0.00    -0.080 C  
HETATM    9  C   UNL     1      -7.904   6.617  70.362  1.00  0.00    -0.106 C  
HETATM   10  C   UNL     1      -9.415   7.395  68.005  1.00  0.00    -0.146 C  
HETATM   11  C   UNL     1      -7.547   6.282  68.620  1.00  0.00    -0.093 C  
HETATM   12  C   UNL     1      -8.348   5.663  66.836  1.00  0.00    -0.108 C  
HETATM   13  C   UNL     1      -8.126   8.131  67.019  1.00  0.00    -0.108 C  
HETATM   14  O   UNL     1      -6.125   6.579  68.958  1.00  0.00    -0.023 OA 
HETATM   15  H   UNL     1      -6.017   7.517  68.856  1.00  0.00     0.000 HD 
HETATM   16  C   UNL     1      -9.836   6.006  66.319  1.00  0.00    -0.102 C  
HETATM   17  O   UNL     1      -7.650   5.744  65.575  1.00  0.00    -0.079 OA 
HETATM   18  C   UNL     1      -7.307   9.476  68.930  1.00  0.00    -0.073 C  
HETATM   19  C   UNL     1      -9.325   5.665  68.743  1.00  0.00    -0.123 C  
HETATM   20  C   UNL     1      -6.404  10.216  66.792  1.00  0.00    -0.070 C  
HETATM   21  H   UNL     1      -8.021   5.457  64.749  1.00  0.00     0.000 HD 
HETATM   22  C   UNL     1      -6.957   9.002  67.538  1.00  0.00    -0.078 C  
HETATM   23  O   UNL     1     -10.345   5.048  69.088  1.00  0.00    -0.193 OA 
HETATM   24  C   UNL     1     -10.397   7.026  66.962  1.00  0.00    -0.360 C  
ENDROOT
BRANCH   9  25
HETATM   25  O   UNL     1      -9.183   7.095  70.823  1.00  0.00    -0.156 OA 
BRANCH  25  26
HETATM   26  C   UNL     1      -9.178   7.589  72.097  1.00  0.00    -0.136 C  
HETATM   27  O   UNL     1      -8.501   8.541  72.467  1.00  0.00    -0.289 OA 
BRANCH  26  28
HETATM   28  C   UNL     1     -10.155   6.936  73.020  1.00  0.00    -0.226 C  
HETATM   29  C   UNL     1     -12.364   7.155  71.718  1.00  0.00    -0.385 C  
HETATM   30  C   UNL     1     -11.482   6.773  72.851  1.00  0.00    -0.111 C  
HETATM   31  C   UNL     1      -9.526   6.323  74.253  1.00  0.00    -0.212 C  
ENDBRANCH  26  28
ENDBRANCH  25  26
ENDBRANCH   9  25
BRANCH  16  32
HETATM   32  C   UNL     1     -10.567   5.143  65.339  1.00  0.00     0.293 C  
HETATM   33  H   UNL     1     -10.293   3.383  64.562  1.00  0.00     0.000 HD 
HETATM   34  O   UNL     1      -9.829   3.931  65.184  1.00  0.00    -0.179 OA 
ENDBRANCH  16  32
TORSDOF 4
ENDMDL
MODEL       95
REMARK 921   NORMALIZED FREE ENERGY PREDICTED BY IDOCK:   -2.65 KCAL/MOL
REMARK 922        TOTAL FREE ENERGY PREDICTED BY IDOCK:   -4.39 KCAL/MOL
REMARK 923 INTER-LIGAND FREE ENERGY PREDICTED BY IDOCK:   -3.63 KCAL/MOL
REMARK 924 INTRA-LIGAND FREE ENERGY PREDICTED BY IDOCK:   -0.77 KCAL/MOL
REMARK 927      BINDING AFFINITY PREDICTED BY RF-SCORE:    0.00 PKD
ROOT
HETATM    1  C   UNL     1      -7.703   3.863  68.826  1.00  0.00    -0.053 C  
HETATM    2  C   UNL     1      -8.981   3.811  69.969  1.00  0.00    -0.169 C  
HETATM    3  C   UNL     1     -10.444   4.870  69.895  1.00  0.00    -0.093 C  
HETATM    4  C   UNL     1     -10.997   5.059  71.322  1.00  0.00     0.120 C  
HETATM    5  C   UNL     1     -10.316   6.391  69.002  1.00  0.00    -0.238 C  
HETATM    6  C   UNL     1     -10.616   7.611  69.804  1.00  0.00    -0.245 C  
HETATM    7  C   UNL     1      -9.535   8.387  69.928  1.00  0.00    -0.166 C  
HETATM    8  C   UNL     1      -9.368   9.458  70.945  1.00  0.00    -0.263 C  
HETATM    9  C   UNL     1      -8.405   7.799  69.104  1.00  0.00    -0.134 C  
HETATM   10  C   UNL     1      -8.131   6.117  66.749  1.00  0.00    -0.109 C  
HETATM   11  C   UNL     1      -8.917   6.079  68.867  1.00  0.00    -0.123 C  
HETATM   12  C   UNL     1      -9.856   4.772  67.596  1.00  0.00    -0.152 C  
HETATM   13  C   UNL     1      -7.376   4.671  67.467  1.00  0.00    -0.074 C  
HETATM   14  O   UNL     1      -8.406   5.843  70.249  1.00  0.00    -0.118 OA 
HETATM   15  H   UNL     1      -7.484   5.637  70.160  1.00  0.00     0.000 HD 
HETATM   16  C   UNL     1      -9.768   4.818  65.988  1.00  0.00    -0.205 C  
HETATM   17  O   UNL     1      -9.854   3.340  67.779  1.00  0.00    -0.211 OA 
HETATM   18  C   UNL     1      -5.705   6.034  68.683  1.00  0.00    -0.012 C  
HETATM   19  C   UNL     1      -9.726   6.899  67.373  1.00  0.00    -0.139 C  
HETATM   20  C   UNL     1      -5.143   3.665  68.635  1.00  0.00    -0.011 C  
HETATM   21  H   UNL     1     -10.289   2.734  67.189  1.00  0.00     0.000 HD 
HETATM   22  C   UNL     1      -6.309   4.653  68.587  1.00  0.00    -0.036 C  
HETATM   23  O   UNL     1     -10.414   7.643  66.657  1.00  0.00    -0.281 OA 
HETATM   24  C   UNL     1      -8.750   5.543  65.534  1.00  0.00    -0.154 C  
ENDROOT
BRANCH   9  25
HETATM   25  O   UNL     1      -8.032   8.663  68.012  1.00  0.00    -0.105 OA 
BRANCH  25  26
HETATM   26  C   UNL     1      -6.835   9.302  68.179  1.00  0.00    -0.064 C  
HETATM   27  O   UNL     1      -5.780   8.935  67.679  1.00  0.00    -0.038 OA 
BRANCH  26  28
HETATM   28  C   UNL     1      -6.916  10.575  68.958  1.00  0.00    -0.076 C  
HETATM   29  C   UNL     1      -5.420  10.067  70.990  1.00  0.00    -0.080 C  
HETATM   30  C   UNL     1      -6.328  10.872  70.134  1.00  0.00    -0.149 C  
HETATM   31  C   UNL     1      -7.703  11.671  68.271  1.00  0.00    -0.128 C  
ENDBRANCH  26  28
ENDBRANCH  25  26
ENDBRANCH   9  25
BRANCH  16  32
HETATM   32  C   UNL     1     -10.834   4.247  65.106  1.00  0.00    -0.043 C  
HETATM   33  H   UNL     1     -11.049   3.956  63.196  1.00  0.00     0.000 HD 
HETATM   34  O   UNL     1     -10.373   4.318  63.756  1.00  0.00    -0.080 OA 
ENDBRANCH  16  32
TORSDOF 4
ENDMDL
MODEL       96
REMARK 921   NORMALIZED FREE ENERGY PREDICTED BY IDOCK:   -2.63 KCAL/MOL
REMARK 922        TOTAL FREE ENERGY PREDICTED BY IDOCK:   -4.37 KCAL/MOL
REMARK 923 INTER-LIGAND FREE ENERGY PREDICTED BY IDOCK:   -3.83 KCAL/MOL
REMARK 924 INTRA-LIGAND FREE ENERGY PREDICTED BY IDOCK:   -0.54 KCAL/MOL
REMARK 927      BINDING AFFINITY PREDICTED BY RF-SCORE:    0.00 PKD
ROOT
HETATM    1  C   UNL     1      -6.097   6.424  70.090  1.00  0.00    -0.034 C  
HETATM    2  C   UNL     1      -5.748   5.027  71.022  1.00  0.00    -0.016 C  
HETATM    3  C   UNL     1      -6.731   3.511  70.973  1.00  0.00    -0.032 C  
HETATM    4  C   UNL     1      -6.590   2.781  72.324  1.00  0.00    -0.015 C  
HETATM    5  C   UNL     1      -8.409   3.633  70.431  1.00  0.00    -0.082 C  
HETATM    6  C   UNL     1      -9.419   3.153  71.417  1.00  0.00    -0.219 C  
HETATM    7  C   UNL     1     -10.200   4.154  71.836  1.00  0.00    -0.180 C  
HETATM    8  C   UNL     1     -11.041   4.121  73.061  1.00  0.00    -0.203 C  
HETATM    9  C   UNL     1      -9.851   5.412  71.064  1.00  0.00    -0.187 C  
HETATM   10  C   UNL     1      -8.715   6.084  68.474  1.00  0.00    -0.110 C  
HETATM   11  C   UNL     1      -8.198   5.057  70.420  1.00  0.00    -0.096 C  
HETATM   12  C   UNL     1      -7.144   4.372  68.799  1.00  0.00    -0.052 C  
HETATM   13  C   UNL     1      -7.187   6.850  68.977  1.00  0.00    -0.091 C  
HETATM   14  O   UNL     1      -7.700   5.417  71.780  1.00  0.00    -0.104 OA 
HETATM   15  H   UNL     1      -7.561   6.356  71.772  1.00  0.00     0.000 HD 
HETATM   16  C   UNL     1      -7.530   4.645  67.258  1.00  0.00    -0.085 C  
HETATM   17  O   UNL     1      -5.707   4.455  68.687  1.00  0.00    -0.018 OA 
HETATM   18  C   UNL     1      -8.341   8.263  70.651  1.00  0.00    -0.121 C  
HETATM   19  C   UNL     1      -9.274   4.373  69.030  1.00  0.00    -0.140 C  
HETATM   20  C   UNL     1      -6.062   8.996  70.199  1.00  0.00    -0.037 C  
HETATM   21  H   UNL     1      -5.219   4.138  67.936  1.00  0.00     0.000 HD 
HETATM   22  C   UNL     1      -6.983   7.776  70.200  1.00  0.00    -0.050 C  
HETATM   23  O   UNL     1     -10.119   3.723  68.395  1.00  0.00     0.137 OA 
HETATM   24  C   UNL     1      -8.381   5.656  67.098  1.00  0.00    -0.104 C  
ENDROOT
BRANCH   9  25
HETATM   25  O   UNL     1     -10.941   5.848  70.228  1.00  0.00    -0.312 OA 
BRANCH  25  26
HETATM   26  C   UNL     1     -11.356   7.130  70.460  1.00  0.00    -0.297 C  
HETATM   27  O   UNL     1     -11.174   8.066  69.692  1.00  0.00    -0.088 OA 
BRANCH  26  28
HETATM   28  C   UNL     1     -12.157   7.305  71.710  1.00  0.00    -0.353 C  
HETATM   29  C   UNL     1     -10.343   7.870  73.446  1.00  0.00    -0.174 C  
HETATM   30  C   UNL     1     -11.717   7.602  72.948  1.00  0.00    -0.204 C  
HETATM   31  C   UNL     1     -13.653   7.204  71.503  1.00  0.00    -0.408 C  
ENDBRANCH  26  28
ENDBRANCH  25  26
ENDBRANCH   9  25
BRANCH  16  32
HETATM   32  C   UNL     1      -7.108   3.736  66.148  1.00  0.00    -0.063 C  
HETATM   33  H   UNL     1      -8.012   2.769  64.724  1.00  0.00     0.000 HD 
HETATM   34  O   UNL     1      -8.279   3.346  65.430  1.00  0.00    -0.096 OA 
ENDBRANCH  16  32
TORSDOF 4
ENDMDL
MODEL       97
REMARK 921   NORMALIZED FREE ENERGY PREDICTED BY IDOCK:   -2.44 KCAL/MOL
REMARK 922        TOTAL FREE ENERGY PREDICTED BY IDOCK:   -4.14 KCAL/MOL
REMARK 923 INTER-LIGAND FREE ENERGY PREDICTED BY IDOCK:   -3.16 KCAL/MOL
REMARK 924 INTRA-LIGAND FREE ENERGY PREDICTED BY IDOCK:   -0.98 KCAL/MOL
REMARK 927      BINDING AFFINITY PREDICTED BY RF-SCORE:    0.00 PKD
ROOT
HETATM    1  C   UNL     1      -7.987   7.224  66.436  1.00  0.00    -0.112 C  
HETATM    2  C   UNL     1      -9.221   8.414  66.489  1.00  0.00    -0.238 C  
HETATM    3  C   UNL     1      -9.735   9.267  67.998  1.00  0.00    -0.172 C  
HETATM    4  C   UNL     1     -11.207   9.704  67.847  1.00  0.00     0.033 C  
HETATM    5  C   UNL     1      -9.409   8.476  69.545  1.00  0.00    -0.161 C  
HETATM    6  C   UNL     1     -10.616   8.225  70.383  1.00  0.00    -0.231 C  
HETATM    7  C   UNL     1     -10.834   6.916  70.539  1.00  0.00    -0.289 C  
HETATM    8  C   UNL     1     -12.119   6.315  70.983  1.00  0.00    -0.043 C  
HETATM    9  C   UNL     1      -9.698   6.144  69.896  1.00  0.00    -0.163 C  
HETATM   10  C   UNL     1      -6.897   6.595  69.264  1.00  0.00    -0.065 C  
HETATM   11  C   UNL     1      -8.967   7.351  68.763  1.00  0.00    -0.129 C  
HETATM   12  C   UNL     1      -7.481   8.746  68.534  1.00  0.00    -0.089 C  
HETATM   13  C   UNL     1      -6.955   6.557  67.483  1.00  0.00    -0.078 C  
HETATM   14  O   UNL     1     -10.091   7.015  67.840  1.00  0.00    -0.154 OA 
HETATM   15  H   UNL     1      -9.799   6.273  67.324  1.00  0.00     0.000 HD 
HETATM   16  C   UNL     1      -5.992   8.623  69.138  1.00  0.00    -0.042 C  
HETATM   17  O   UNL     1      -7.160   9.372  67.273  1.00  0.00    -0.084 OA 
HETATM   18  C   UNL     1      -8.297   4.477  67.479  1.00  0.00    -0.100 C  
HETATM   19  C   UNL     1      -7.984   7.699  70.334  1.00  0.00    -0.097 C  
HETATM   20  C   UNL     1      -7.357   5.004  65.294  1.00  0.00    -0.072 C  
HETATM   21  H   UNL     1      -6.472  10.019  67.168  1.00  0.00     0.000 HD 
HETATM   22  C   UNL     1      -7.826   5.621  66.612  1.00  0.00    -0.101 C  
HETATM   23  O   UNL     1      -7.678   7.983  71.503  1.00  0.00    -0.079 OA 
HETATM   24  C   UNL     1      -5.667   7.383  69.494  1.00  0.00    -0.023 C  
ENDROOT
BRANCH   9  25
HETATM   25  O   UNL     1      -8.926   5.415  70.870  1.00  0.00    -0.134 OA 
BRANCH  25  26
HETATM   26  C   UNL     1      -9.567   4.334  71.409  1.00  0.00    -0.169 C  
HETATM   27  O   UNL     1      -9.962   3.372  70.763  1.00  0.00    -0.095 OA 
BRANCH  26  28
HETATM   28  C   UNL     1      -9.675   4.357  72.899  1.00  0.00    -0.176 C  
HETATM   29  C   UNL     1     -12.096   3.575  73.283  1.00  0.00     0.437 C  
HETATM   30  C   UNL     1     -10.741   4.048  73.663  1.00  0.00    -0.315 C  
HETATM   31  C   UNL     1      -8.381   4.701  73.607  1.00  0.00    -0.105 C  
ENDBRANCH  26  28
ENDBRANCH  25  26
ENDBRANCH   9  25
BRANCH  16  32
HETATM   32  C   UNL     1      -5.139   9.817  69.429  1.00  0.00    -0.035 C  
HETATM   33  H   UNL     1      -5.390  11.516  70.341  1.00  0.00     0.000 HD 
HETATM   34  O   UNL     1      -5.931  10.758  70.155  1.00  0.00    -0.076 OA 
ENDBRANCH  16  32
TORSDOF 4
ENDMDL
MODEL       98
REMARK 921   NORMALIZED FREE ENERGY PREDICTED BY IDOCK:   -2.42 KCAL/MOL
REMARK 922        TOTAL FREE ENERGY PREDICTED BY IDOCK:   -4.12 KCAL/MOL
REMARK 923 INTER-LIGAND FREE ENERGY PREDICTED BY IDOCK:   -3.18 KCAL/MOL
REMARK 924 INTRA-LIGAND FREE ENERGY PREDICTED BY IDOCK:   -0.94 KCAL/MOL
REMARK 927      BINDING AFFINITY PREDICTED BY RF-SCORE:    0.00 PKD
ROOT
HETATM    1  C   UNL     1      -5.531  17.168  67.103  1.00  0.00    -0.184 C  
HETATM    2  C   UNL     1      -5.566  18.470  65.986  1.00  0.00    -0.202 C  
HETATM    3  C   UNL     1      -6.713  19.863  66.098  1.00  0.00    -0.242 C  
HETATM    4  C   UNL     1      -6.946  20.432  64.684  1.00  0.00     0.007 C  
HETATM    5  C   UNL     1      -8.216  19.624  66.998  1.00  0.00    -0.319 C  
HETATM    6  C   UNL     1      -9.458  19.865  66.210  1.00  0.00    -0.505 C  
HETATM    7  C   UNL     1     -10.167  18.741  66.068  1.00  0.00    -0.413 C  
HETATM    8  C   UNL     1     -11.235  18.530  65.055  1.00  0.00     1.758 C  
HETATM    9  C   UNL     1      -9.505  17.633  66.866  1.00  0.00    -0.276 C  
HETATM   10  C   UNL     1      -7.791  17.415  69.203  1.00  0.00    -0.024 C  
HETATM   11  C   UNL     1      -7.818  18.245  67.101  1.00  0.00    -0.219 C  
HETATM   12  C   UNL     1      -6.560  19.236  68.383  1.00  0.00    -0.254 C  
HETATM   13  C   UNL     1      -6.308  16.765  68.460  1.00  0.00    -0.149 C  
HETATM   14  O   UNL     1      -7.562  17.777  65.708  1.00  0.00    -0.536 OA 
HETATM   15  H   UNL     1      -7.299  16.867  65.776  1.00  0.00     0.000 HD 
HETATM   16  C   UNL     1      -6.589  19.113  69.990  1.00  0.00    -0.035 C  
HETATM   17  O   UNL     1      -5.133  19.326  68.191  1.00  0.00    -0.175 OA 
HETATM   18  C   UNL     1      -7.575  15.038  67.219  1.00  0.00    -0.227 C  
HETATM   19  C   UNL     1      -8.674  18.971  68.617  1.00  0.00    -0.352 C  
HETATM   20  C   UNL     1      -5.175  14.622  67.239  1.00  0.00     0.603 C  
HETATM   21  H   UNL     1      -4.550  19.785  68.785  1.00  0.00     0.000 HD 
HETATM   22  C   UNL     1      -6.233  15.724  67.318  1.00  0.00    -0.068 C  
HETATM   23  O   UNL     1      -9.453  19.598  69.352  1.00  0.00    -0.250 OA 
HETATM   24  C   UNL     1      -7.247  18.043  70.427  1.00  0.00     2.042 C  
ENDROOT
BRANCH   9  25
HETATM   25  O   UNL     1     -10.336  17.186  67.955  1.00  0.00    -0.318 OA 
BRANCH  25  26
HETATM   26  C   UNL     1     -10.853  15.930  67.794  1.00  0.00    -0.324 C  
HETATM   27  O   UNL     1     -10.955  15.357  66.717  1.00  0.00    -0.314 OA 
BRANCH  26  28
HETATM   28  C   UNL     1     -11.212  15.240  69.070  1.00  0.00    -0.287 C  
HETATM   29  C   UNL     1     -11.550  12.808  68.298  1.00  0.00    -0.375 C  
HETATM   30  C   UNL     1     -11.510  13.939  69.260  1.00  0.00    -0.348 C  
HETATM   31  C   UNL     1     -11.145  16.129  70.293  1.00  0.00    -0.375 C  
ENDBRANCH  26  28
ENDBRANCH  25  26
ENDBRANCH   9  25
BRANCH  16  32
HETATM   32  C   UNL     1      -6.077  20.193  70.890  1.00  0.00    -0.271 C  
HETATM   33  H   UNL     1      -5.032  21.816  70.659  1.00  0.00     0.000 HD 
HETATM   34  O   UNL     1      -5.356  21.130  70.088  1.00  0.00    -0.549 OA 
ENDBRANCH  16  32
TORSDOF 4
ENDMDL
MODEL       99
REMARK 921   NORMALIZED FREE ENERGY PREDICTED BY IDOCK:   -2.33 KCAL/MOL
REMARK 922        TOTAL FREE ENERGY PREDICTED BY IDOCK:   -4.01 KCAL/MOL
REMARK 923 INTER-LIGAND FREE ENERGY PREDICTED BY IDOCK:   -3.37 KCAL/MOL
REMARK 924 INTRA-LIGAND FREE ENERGY PREDICTED BY IDOCK:   -0.64 KCAL/MOL
REMARK 927      BINDING AFFINITY PREDICTED BY RF-SCORE:    0.00 PKD
ROOT
HETATM    1  C   UNL     1      -7.427   9.959  68.963  1.00  0.00    -0.083 C  
HETATM    2  C   UNL     1      -8.261   9.945  67.464  1.00  0.00    -0.114 C  
HETATM    3  C   UNL     1      -9.488   8.700  67.005  1.00  0.00    -0.221 C  
HETATM    4  C   UNL     1      -9.516   8.569  65.469  1.00  0.00     0.051 C  
HETATM    5  C   UNL     1      -9.422   7.135  67.826  1.00  0.00    -0.136 C  
HETATM    6  C   UNL     1      -9.256   5.963  66.920  1.00  0.00    -0.128 C  
HETATM    7  C   UNL     1      -8.086   5.351  67.129  1.00  0.00    -0.101 C  
HETATM    8  C   UNL     1      -7.439   4.406  66.181  1.00  0.00    -0.085 C  
HETATM    9  C   UNL     1      -7.387   6.006  68.305  1.00  0.00    -0.085 C  
HETATM   10  C   UNL     1      -8.147   7.491  70.685  1.00  0.00    -0.109 C  
HETATM   11  C   UNL     1      -8.206   7.615  68.429  1.00  0.00    -0.125 C  
HETATM   12  C   UNL     1      -9.694   8.668  69.370  1.00  0.00    -0.176 C  
HETATM   13  C   UNL     1      -7.434   9.082  70.318  1.00  0.00    -0.083 C  
HETATM   14  O   UNL     1      -7.321   8.040  67.306  1.00  0.00    -0.085 OA 
HETATM   15  H   UNL     1      -6.519   8.357  67.704  1.00  0.00     0.000 HD 
HETATM   16  C   UNL     1     -10.123   8.490  70.914  1.00  0.00    -0.246 C  
HETATM   17  O   UNL     1      -9.854  10.098  69.258  1.00  0.00    -0.197 OA 
HETATM   18  C   UNL     1      -5.272   8.066  69.670  1.00  0.00    -0.023 C  
HETATM   19  C   UNL     1      -9.317   6.566  69.535  1.00  0.00    -0.147 C  
HETATM   20  C   UNL     1      -5.127  10.475  69.999  1.00  0.00    -0.039 C  
HETATM   21  H   UNL     1     -10.543  10.586  69.694  1.00  0.00     0.000 HD 
HETATM   22  C   UNL     1      -6.080   9.342  69.617  1.00  0.00    -0.039 C  
HETATM   23  O   UNL     1     -10.075   5.676  69.952  1.00  0.00    -0.184 OA 
HETATM   24  C   UNL     1      -9.205   7.867  71.649  1.00  0.00    -0.180 C  
ENDROOT
BRANCH   9  25
HETATM   25  O   UNL     1      -7.257   5.104  69.421  1.00  0.00    -0.055 OA 
BRANCH  25  26
HETATM   26  C   UNL     1      -6.524   3.980  69.160  1.00  0.00    -0.036 C  
HETATM   27  O   UNL     1      -5.408   3.984  68.657  1.00  0.00    -0.011 OA 
BRANCH  26  28
HETATM   28  C   UNL     1      -7.152   2.708  69.630  1.00  0.00    -0.040 C  
HETATM   29  C   UNL     1      -7.056   2.965  72.189  1.00  0.00    -0.034 C  
HETATM   30  C   UNL     1      -7.356   2.296  70.897  1.00  0.00    -0.033 C  
HETATM   31  C   UNL     1      -7.683   1.832  68.515  1.00  0.00    -0.046 C  
ENDBRANCH  26  28
ENDBRANCH  25  26
ENDBRANCH   9  25
BRANCH  16  32
HETATM   32  C   UNL     1     -11.489   8.834  71.415  1.00  0.00    -0.297 C  
HETATM   33  H   UNL     1     -12.960   7.854  72.226  1.00  0.00     0.000 HD 
HETATM   34  O   UNL     1     -12.092   7.636  71.907  1.00  0.00    -0.282 OA 
ENDBRANCH  16  32
TORSDOF 4
ENDMDL
MODEL      100
REMARK 921   NORMALIZED FREE ENERGY PREDICTED BY IDOCK:   -1.88 KCAL/MOL
REMARK 922        TOTAL FREE ENERGY PREDICTED BY IDOCK:   -3.46 KCAL/MOL
REMARK 923 INTER-LIGAND FREE ENERGY PREDICTED BY IDOCK:   -2.26 KCAL/MOL
REMARK 924 INTRA-LIGAND FREE ENERGY PREDICTED BY IDOCK:   -1.20 KCAL/MOL
REMARK 927      BINDING AFFINITY PREDICTED BY RF-SCORE:    0.00 PKD
ROOT
HETATM    1  C   UNL     1      -8.863  10.415  67.541  1.00  0.00    -0.134 C  
HETATM    2  C   UNL     1      -9.384   9.261  66.384  1.00  0.00    -0.247 C  
HETATM    3  C   UNL     1     -10.110   7.662  66.812  1.00  0.00    -0.325 C  
HETATM    4  C   UNL     1      -9.832   6.665  65.668  1.00  0.00     0.735 C  
HETATM    5  C   UNL     1      -9.749   6.992  68.408  1.00  0.00    -0.139 C  
HETATM    6  C   UNL     1      -9.103   5.649  68.389  1.00  0.00    -0.121 C  
HETATM    7  C   UNL     1      -7.863   5.700  68.886  1.00  0.00    -0.096 C  
HETATM    8  C   UNL     1      -6.820   4.661  68.680  1.00  0.00    -0.051 C  
HETATM    9  C   UNL     1      -7.594   7.101  69.403  1.00  0.00    -0.098 C  
HETATM   10  C   UNL     1      -9.146   9.335  70.427  1.00  0.00    -0.288 C  
HETATM   11  C   UNL     1      -8.843   8.101  68.558  1.00  0.00    -0.134 C  
HETATM   12  C   UNL     1     -10.707   8.940  68.721  1.00  0.00    -0.090 C  
HETATM   13  C   UNL     1      -8.859  10.544  69.150  1.00  0.00    -0.161 C  
HETATM   14  O   UNL     1      -7.932   8.060  67.377  1.00  0.00    -0.117 OA 
HETATM   15  H   UNL     1      -7.334   8.792  67.476  1.00  0.00     0.000 HD 
HETATM   16  C   UNL     1     -11.331   9.559  70.073  1.00  0.00    -0.204 C  
HETATM   17  O   UNL     1     -11.243   9.888  67.774  1.00  0.00    -0.484 OA 
HETATM   18  C   UNL     1      -6.419  10.126  69.175  1.00  0.00    -0.049 C  
HETATM   19  C   UNL     1      -9.786   7.593  70.110  1.00  0.00    -0.184 C  
HETATM   20  C   UNL     1      -7.020  12.159  67.977  1.00  0.00    -0.090 C  
HETATM   21  H   UNL     1     -12.107  10.277  67.850  1.00  0.00     0.000 HD 
HETATM   22  C   UNL     1      -7.532  10.779  68.390  1.00  0.00    -0.095 C  
HETATM   23  O   UNL     1     -10.324   6.920  71.004  1.00  0.00    -0.204 OA 
HETATM   24  C   UNL     1     -10.418   9.824  71.003  1.00  0.00    -0.230 C  
ENDROOT
BRANCH   9  25
HETATM   25  O   UNL     1      -7.411   7.118  70.832  1.00  0.00    -0.078 OA 
BRANCH  25  26
HETATM   26  C   UNL     1      -6.133   6.860  71.244  1.00  0.00    -0.037 C  
HETATM   27  O   UNL     1      -5.128   7.201  70.633  1.00  0.00    -0.022 OA 
BRANCH  26  28
HETATM   28  C   UNL     1      -6.034   6.198  72.580  1.00  0.00    -0.038 C  
HETATM   29  C   UNL     1      -5.475   3.768  71.944  1.00  0.00    -0.007 C  
HETATM   30  C   UNL     1      -5.769   4.905  72.852  1.00  0.00    -0.013 C  
HETATM   31  C   UNL     1      -6.178   7.146  73.751  1.00  0.00    -0.065 C  
ENDBRANCH  26  28
ENDBRANCH  25  26
ENDBRANCH   9  25
BRANCH  16  32
HETATM   32  C   UNL     1     -12.805   9.655  70.310  1.00  0.00     0.383 C  
HETATM   33  H   UNL     1     -14.286  10.609  69.490  1.00  0.00     0.000 HD 
HETATM   34  O   UNL     1     -13.350  10.548  69.339  1.00  0.00     0.427 OA 
ENDBRANCH  16  32
TORSDOF 4
ENDMDL
MODEL      101
REMARK 921   NORMALIZED FREE ENERGY PREDICTED BY IDOCK:   -1.81 KCAL/MOL
REMARK 922        TOTAL FREE ENERGY PREDICTED BY IDOCK:   -3.36 KCAL/MOL
REMARK 923 INTER-LIGAND FREE ENERGY PREDICTED BY IDOCK:   -3.85 KCAL/MOL
REMARK 924 INTRA-LIGAND FREE ENERGY PREDICTED BY IDOCK:    0.49 KCAL/MOL
REMARK 927      BINDING AFFINITY PREDICTED BY RF-SCORE:    0.00 PKD
ROOT
HETATM    1  C   UNL     1      -8.946   8.012  65.772  1.00  0.00    -0.148 C  
HETATM    2  C   UNL     1      -9.884   9.318  65.175  1.00  0.00     0.152 C  
HETATM    3  C   UNL     1     -10.005  10.927  65.990  1.00  0.00    -0.290 C  
HETATM    4  C   UNL     1     -11.358  11.571  65.626  1.00  0.00    -0.151 C  
HETATM    5  C   UNL     1      -9.653  11.003  67.721  1.00  0.00    -0.180 C  
HETATM    6  C   UNL     1     -10.765  11.534  68.560  1.00  0.00    -0.242 C  
HETATM    7  C   UNL     1     -11.233  10.599  69.393  1.00  0.00    -0.329 C  
HETATM    8  C   UNL     1     -12.546  10.656  70.087  1.00  0.00    -0.283 C  
HETATM    9  C   UNL     1     -10.379   9.351  69.267  1.00  0.00    -0.208 C  
HETATM   10  C   UNL     1      -7.653   8.696  68.499  1.00  0.00    -0.095 C  
HETATM   11  C   UNL     1      -9.565   9.567  67.665  1.00  0.00    -0.136 C  
HETATM   12  C   UNL     1      -7.861  10.221  66.728  1.00  0.00    -0.114 C  
HETATM   13  C   UNL     1      -7.950   7.754  67.016  1.00  0.00    -0.116 C  
HETATM   14  O   UNL     1     -10.844   9.092  67.064  1.00  0.00    -0.252 OA 
HETATM   15  H   UNL     1     -10.786   8.145  67.026  1.00  0.00     0.000 HD 
HETATM   16  C   UNL     1      -6.366  10.065  67.307  1.00  0.00    -0.067 C  
HETATM   17  O   UNL     1      -7.583   9.997  65.329  1.00  0.00    -0.125 OA 
HETATM   18  C   UNL     1      -9.689   6.384  68.123  1.00  0.00    -0.122 C  
HETATM   19  C   UNL     1      -8.333  10.425  68.808  1.00  0.00    -0.134 C  
HETATM   20  C   UNL     1      -8.953   5.447  65.999  1.00  0.00    -0.147 C  
HETATM   21  H   UNL     1      -6.794  10.300  64.895  1.00  0.00     0.000 HD 
HETATM   22  C   UNL     1      -9.105   6.753  66.779  1.00  0.00    -0.155 C  
HETATM   23  O   UNL     1      -7.824  11.189  69.643  1.00  0.00     0.067 OA 
HETATM   24  C   UNL     1      -6.265   9.156  68.274  1.00  0.00    -0.054 C  
ENDROOT
BRANCH   9  25
HETATM   25  O   UNL     1      -9.657   9.070  70.482  1.00  0.00    -0.185 OA 
BRANCH  25  26
HETATM   26  C   UNL     1      -9.690   7.760  70.871  1.00  0.00    -0.168 C  
HETATM   27  O   UNL     1      -8.712   7.024  70.906  1.00  0.00    -0.141 OA 
BRANCH  26  28
HETATM   28  C   UNL     1     -11.023   7.292  71.359  1.00  0.00    -0.256 C  
HETATM   29  C   UNL     1     -11.811   9.285  72.785  1.00  0.00     0.822 C  
HETATM   30  C   UNL     1     -11.889   7.937  72.166  1.00  0.00    -0.384 C  
HETATM   31  C   UNL     1     -11.453   5.955  70.795  1.00  0.00    -0.106 C  
ENDBRANCH  26  28
ENDBRANCH  25  26
ENDBRANCH   9  25
BRANCH  16  32
HETATM   32  C   UNL     1      -5.250  10.981  66.915  1.00  0.00    -0.065 C  
HETATM   33  H   UNL     1      -5.101  12.849  66.398  1.00  0.00     0.000 HD 
HETATM   34  O   UNL     1      -5.809  12.267  66.647  1.00  0.00    -0.241 OA 
ENDBRANCH  16  32
TORSDOF 4
ENDMDL
MODEL      102
REMARK 921   NORMALIZED FREE ENERGY PREDICTED BY IDOCK:   -1.63 KCAL/MOL
REMARK 922        TOTAL FREE ENERGY PREDICTED BY IDOCK:   -3.14 KCAL/MOL
REMARK 923 INTER-LIGAND FREE ENERGY PREDICTED BY IDOCK:   -3.75 KCAL/MOL
REMARK 924 INTRA-LIGAND FREE ENERGY PREDICTED BY IDOCK:    0.61 KCAL/MOL
REMARK 927      BINDING AFFINITY PREDICTED BY RF-SCORE:    0.00 PKD
ROOT
HETATM    1  C   UNL     1      -9.091  10.061  70.091  1.00  0.00    -0.063 C  
HETATM    2  C   UNL     1      -7.901   8.926  70.581  1.00  0.00    -0.124 C  
HETATM    3  C   UNL     1      -6.320   8.696  69.737  1.00  0.00    -0.035 C  
HETATM    4  C   UNL     1      -5.837   7.249  69.967  1.00  0.00    -0.024 C  
HETATM    5  C   UNL     1      -6.207   9.196  68.044  1.00  0.00    -0.051 C  
HETATM    6  C   UNL     1      -5.812   8.113  67.100  1.00  0.00    -0.042 C  
HETATM    7  C   UNL     1      -6.798   7.837  66.240  1.00  0.00    -0.062 C  
HETATM    8  C   UNL     1      -6.896   6.596  65.428  1.00  0.00    -0.055 C  
HETATM    9  C   UNL     1      -7.937   8.814  66.461  1.00  0.00    -0.103 C  
HETATM   10  C   UNL     1      -8.267  11.514  67.486  1.00  0.00    -0.140 C  
HETATM   11  C   UNL     1      -7.623   9.445  68.128  1.00  0.00    -0.083 C  
HETATM   12  C   UNL     1      -6.773  10.966  69.209  1.00  0.00    -0.086 C  
HETATM   13  C   UNL     1      -9.233  11.192  68.948  1.00  0.00    -0.106 C  
HETATM   14  O   UNL     1      -8.243   8.179  68.616  1.00  0.00    -0.122 OA 
HETATM   15  H   UNL     1      -9.176   8.343  68.671  1.00  0.00     0.000 HD 
HETATM   16  C   UNL     1      -6.754  12.518  68.772  1.00  0.00    -0.093 C  
HETATM   17  O   UNL     1      -6.958  11.138  70.631  1.00  0.00    -0.363 OA 
HETATM   18  C   UNL     1     -10.800   9.734  67.703  1.00  0.00    -0.301 C  
HETATM   19  C   UNL     1      -6.630  10.670  67.092  1.00  0.00    -0.076 C  
HETATM   20  C   UNL     1     -11.639  10.372  69.898  1.00  0.00    -0.358 C  
HETATM   21  H   UNL     1      -6.564  11.843  71.131  1.00  0.00     0.000 HD 
HETATM   22  C   UNL     1     -10.362  10.143  69.090  1.00  0.00    -0.237 C  
HETATM   23  O   UNL     1      -5.815  11.163  66.297  1.00  0.00    -0.134 OA 
HETATM   24  C   UNL     1      -7.648  12.812  67.832  1.00  0.00    -0.138 C  
ENDROOT
BRANCH   9  25
HETATM   25  O   UNL     1      -8.135   9.674  65.322  1.00  0.00    -0.117 OA 
BRANCH  25  26
HETATM   26  C   UNL     1      -9.443   9.846  64.962  1.00  0.00    -0.280 C  
HETATM   27  O   UNL     1     -10.357   9.105  65.303  1.00  0.00     0.580 OA 
BRANCH  26  28
HETATM   28  C   UNL     1      -9.712  11.090  64.179  1.00  0.00    -0.332 C  
HETATM   29  C   UNL     1      -7.867  11.015  62.385  1.00  0.00    -0.129 C  
HETATM   30  C   UNL     1      -9.037  11.568  63.114  1.00  0.00    -0.110 C  
HETATM   31  C   UNL     1     -10.950  11.841  64.619  1.00  0.00    -0.368 C  
ENDBRANCH  26  28
ENDBRANCH  25  26
ENDBRANCH   9  25
BRANCH  16  32
HETATM   32  C   UNL     1      -5.714  13.479  69.253  1.00  0.00    -0.081 C  
HETATM   33  H   UNL     1      -4.715  13.736  70.901  1.00  0.00     0.000 HD 
HETATM   34  O   UNL     1      -5.376  13.126  70.595  1.00  0.00    -0.120 OA 
ENDBRANCH  16  32
TORSDOF 4
ENDMDL
MODEL      103
REMARK 921   NORMALIZED FREE ENERGY PREDICTED BY IDOCK:   -1.51 KCAL/MOL
REMARK 922        TOTAL FREE ENERGY PREDICTED BY IDOCK:   -3.00 KCAL/MOL
REMARK 923 INTER-LIGAND FREE ENERGY PREDICTED BY IDOCK:   -2.86 KCAL/MOL
REMARK 924 INTRA-LIGAND FREE ENERGY PREDICTED BY IDOCK:   -0.13 KCAL/MOL
REMARK 927      BINDING AFFINITY PREDICTED BY RF-SCORE:    0.00 PKD
ROOT
HETATM    1  C   UNL     1      -6.882   8.217  68.596  1.00  0.00    -0.067 C  
HETATM    2  C   UNL     1      -5.983   9.585  68.082  1.00  0.00    -0.047 C  
HETATM    3  C   UNL     1      -6.424  10.602  66.655  1.00  0.00    -0.100 C  
HETATM    4  C   UNL     1      -5.145  11.252  66.090  1.00  0.00    -0.107 C  
HETATM    5  C   UNL     1      -7.435   9.872  65.401  1.00  0.00    -0.132 C  
HETATM    6  C   UNL     1      -6.830   9.867  64.039  1.00  0.00    -0.126 C  
HETATM    7  C   UNL     1      -6.598   8.620  63.616  1.00  0.00    -0.088 C  
HETATM    8  C   UNL     1      -5.685   8.255  62.501  1.00  0.00    -0.075 C  
HETATM    9  C   UNL     1      -7.145   7.641  64.638  1.00  0.00    -0.065 C  
HETATM   10  C   UNL     1      -9.225   7.610  66.667  1.00  0.00    -0.211 C  
HETATM   11  C   UNL     1      -7.287   8.644  66.137  1.00  0.00    -0.085 C  
HETATM   12  C   UNL     1      -8.560   9.775  67.281  1.00  0.00    -0.128 C  
HETATM   13  C   UNL     1      -8.238   7.467  68.144  1.00  0.00    -0.124 C  
HETATM   14  O   UNL     1      -5.820   8.428  66.301  1.00  0.00    -0.042 OA 
HETATM   15  H   UNL     1      -5.722   7.618  66.787  1.00  0.00     0.000 HD 
HETATM   16  C   UNL     1     -10.124   9.461  67.513  1.00  0.00    -0.268 C  
HETATM   17  O   UNL     1      -8.232  10.260  68.600  1.00  0.00    -0.104 OA 
HETATM   18  C   UNL     1      -6.896   5.624  67.179  1.00  0.00    -0.064 C  
HETATM   19  C   UNL     1      -8.977   8.936  65.354  1.00  0.00    -0.182 C  
HETATM   20  C   UNL     1      -6.596   5.857  69.585  1.00  0.00    -0.047 C  
HETATM   21  H   UNL     1      -8.822  10.784  69.130  1.00  0.00     0.000 HD 
HETATM   22  C   UNL     1      -6.952   6.623  68.310  1.00  0.00    -0.077 C  
HETATM   23  O   UNL     1      -9.877   9.244  64.557  1.00  0.00     0.344 OA 
HETATM   24  C   UNL     1     -10.464   8.212  67.208  1.00  0.00    -0.379 C  
ENDROOT
BRANCH   9  25
HETATM   25  O   UNL     1      -8.237   6.866  64.107  1.00  0.00    -0.065 OA 
BRANCH  25  26
HETATM   26  C   UNL     1      -8.142   5.521  64.336  1.00  0.00    -0.124 C  
HETATM   27  O   UNL     1      -7.104   4.941  64.627  1.00  0.00    -0.052 OA 
BRANCH  26  28
HETATM   28  C   UNL     1      -9.447   4.793  64.303  1.00  0.00     0.090 C  
HETATM   29  C   UNL     1      -9.757   4.117  66.767  1.00  0.00    -0.234 C  
HETATM   30  C   UNL     1     -10.100   4.204  65.324  1.00  0.00    -0.213 C  
HETATM   31  C   UNL     1     -10.127   4.807  62.951  1.00  0.00     0.403 C  
ENDBRANCH  26  28
ENDBRANCH  25  26
ENDBRANCH   9  25
BRANCH  16  32
HETATM   32  C   UNL     1     -11.116  10.525  67.864  1.00  0.00    -0.304 C  
HETATM   33  H   UNL     1     -11.135  12.469  67.845  1.00  0.00     0.000 HD 
HETATM   34  O   UNL     1     -10.505  11.793  67.622  1.00  0.00    -0.191 OA 
ENDBRANCH  16  32
TORSDOF 4
ENDMDL
MODEL      104
REMARK 921   NORMALIZED FREE ENERGY PREDICTED BY IDOCK:   -0.53 KCAL/MOL
REMARK 922        TOTAL FREE ENERGY PREDICTED BY IDOCK:   -1.78 KCAL/MOL
REMARK 923 INTER-LIGAND FREE ENERGY PREDICTED BY IDOCK:   -2.16 KCAL/MOL
REMARK 924 INTRA-LIGAND FREE ENERGY PREDICTED BY IDOCK:    0.38 KCAL/MOL
REMARK 927      BINDING AFFINITY PREDICTED BY RF-SCORE:    0.00 PKD
ROOT
HETATM    1  C   UNL     1     -10.230  17.480  70.070  1.00  0.00     0.681 C  
HETATM    2  C   UNL     1     -11.289  16.149  69.837  1.00  0.00    -0.318 C  
HETATM    3  C   UNL     1     -10.934  14.760  68.738  1.00  0.00    -0.267 C  
HETATM    4  C   UNL     1     -12.266  14.154  68.252  1.00  0.00    -0.196 C  
HETATM    5  C   UNL     1      -9.779  15.020  67.424  1.00  0.00    -0.216 C  
HETATM    6  C   UNL     1     -10.319  14.759  66.060  1.00  0.00    -0.318 C  
HETATM    7  C   UNL     1     -10.357  15.879  65.331  1.00  0.00    -0.399 C  
HETATM    8  C   UNL     1     -11.161  16.063  64.095  1.00  0.00     0.119 C  
HETATM    9  C   UNL     1      -9.722  17.007  66.122  1.00  0.00    -0.261 C  
HETATM   10  C   UNL     1      -7.746  17.286  68.235  1.00  0.00    -0.234 C  
HETATM   11  C   UNL     1      -9.785  16.402  67.827  1.00  0.00    -0.235 C  
HETATM   12  C   UNL     1      -8.732  15.445  69.304  1.00  0.00    -0.252 C  
HETATM   13  C   UNL     1      -8.765  17.917  69.553  1.00  0.00     0.708 C  
HETATM   14  O   UNL     1     -11.214  16.834  67.821  1.00  0.00    -0.205 OA 
HETATM   15  H   UNL     1     -11.217  17.745  68.087  1.00  0.00     0.000 HD 
HETATM   16  C   UNL     1      -7.151  15.609  69.570  1.00  0.00    -0.195 C  
HETATM   17  O   UNL     1      -9.180  15.351  70.673  1.00  0.00     0.276 OA 
HETATM   18  C   UNL     1      -9.795  19.611  68.070  1.00  0.00    -0.524 C  
HETATM   19  C   UNL     1      -8.120  15.715  67.268  1.00  0.00    -0.195 C  
HETATM   20  C   UNL     1     -10.226  20.029  70.431  1.00  0.00     0.947 C  
HETATM   21  H   UNL     1      -8.692  14.908  71.357  1.00  0.00     0.000 HD 
HETATM   22  C   UNL     1      -9.927  18.929  69.412  1.00  0.00    -0.021 C  
HETATM   23  O   UNL     1      -7.239  15.107  66.640  1.00  0.00     0.085 OA 
HETATM   24  C   UNL     1      -6.627  16.690  68.998  1.00  0.00    -0.198 C  
ENDROOT
BRANCH   9  25
HETATM   25  O   UNL     1      -8.511  17.482  65.503  1.00  0.00    -0.230 OA 
BRANCH  25  26
HETATM   26  C   UNL     1      -8.384  18.843  65.476  1.00  0.00     0.819 C  
HETATM   27  O   UNL     1      -9.326  19.625  65.457  1.00  0.00    -0.229 OA 
BRANCH  26  28
HETATM   28  C   UNL     1      -6.977  19.335  65.573  1.00  0.00    -0.264 C  
HETATM   29  C   UNL     1      -7.105  20.965  67.562  1.00  0.00    -0.389 C  
HETATM   30  C   UNL     1      -6.463  20.229  66.442  1.00  0.00    -0.244 C  
HETATM   31  C   UNL     1      -6.020  18.667  64.608  1.00  0.00    -0.137 C  
ENDBRANCH  26  28
ENDBRANCH  25  26
ENDBRANCH   9  25
BRANCH  16  32
HETATM   32  C   UNL     1      -6.333  14.553  70.244  1.00  0.00    -0.170 C  
HETATM   33  H   UNL     1      -5.699  12.776  69.775  1.00  0.00     0.000 HD 
HETATM   34  O   UNL     1      -6.218  13.447  69.348  1.00  0.00    -0.098 OA 
ENDBRANCH  16  32
TORSDOF 4
ENDMDL
MODEL      105
REMARK 921   NORMALIZED FREE ENERGY PREDICTED BY IDOCK:    0.64 KCAL/MOL
REMARK 922        TOTAL FREE ENERGY PREDICTED BY IDOCK:   -0.34 KCAL/MOL
REMARK 923 INTER-LIGAND FREE ENERGY PREDICTED BY IDOCK:    0.08 KCAL/MOL
REMARK 924 INTRA-LIGAND FREE ENERGY PREDICTED BY IDOCK:   -0.41 KCAL/MOL
REMARK 927      BINDING AFFINITY PREDICTED BY RF-SCORE:    0.00 PKD
ROOT
HETATM    1  C   UNL     1     -11.853  11.519  68.492  1.00  0.00    -0.365 C  
HETATM    2  C   UNL     1     -12.682  12.667  69.462  1.00  0.00     0.652 C  
HETATM    3  C   UNL     1     -12.401  14.450  69.375  1.00  0.00    -0.228 C  
HETATM    4  C   UNL     1     -12.744  15.077  70.742  1.00  0.00    -0.438 C  
HETATM    5  C   UNL     1     -10.853  15.011  68.731  1.00  0.00    -0.249 C  
HETATM    6  C   UNL     1     -10.066  15.870  69.661  1.00  0.00    -0.271 C  
HETATM    7  C   UNL     1      -8.923  15.277  70.019  1.00  0.00     0.307 C  
HETATM    8  C   UNL     1      -8.095  15.662  71.192  1.00  0.00     3.592 C  
HETATM    9  C   UNL     1      -8.779  13.976  69.253  1.00  0.00     0.440 C  
HETATM   10  C   UNL     1      -9.700  12.871  66.728  1.00  0.00    -0.246 C  
HETATM   11  C   UNL     1     -10.470  13.624  68.714  1.00  0.00    -0.202 C  
HETATM   12  C   UNL     1     -11.807  13.804  67.169  1.00  0.00    -0.406 C  
HETATM   13  C   UNL     1     -10.754  11.558  67.311  1.00  0.00    -0.286 C  
HETATM   14  O   UNL     1     -10.697  13.110  70.096  1.00  0.00     0.160 OA 
HETATM   15  H   UNL     1     -10.445  12.194  70.085  1.00  0.00     0.000 HD 
HETATM   16  C   UNL     1     -11.436  13.692  65.604  1.00  0.00    -0.320 C  
HETATM   17  O   UNL     1     -13.091  13.145  67.141  1.00  0.00     0.764 OA 
HETATM   18  C   UNL     1      -9.028  10.752  68.893  1.00  0.00    -0.158 C  
HETATM   19  C   UNL     1      -9.849  14.667  67.271  1.00  0.00    -0.231 C  
HETATM   20  C   UNL     1     -10.838   9.154  68.569  1.00  0.00    -0.089 C  
HETATM   21  H   UNL     1     -13.710  13.229  66.425  1.00  0.00     0.000 HD 
HETATM   22  C   UNL     1     -10.491  10.643  68.531  1.00  0.00    -0.212 C  
HETATM   23  O   UNL     1      -9.379  15.596  66.596  1.00  0.00    -0.230 OA 
HETATM   24  C   UNL     1     -10.261  13.110  65.379  1.00  0.00    -0.301 C  
ENDROOT
BRANCH   9  25
HETATM   25  O   UNL     1      -7.658  14.008  68.348  1.00  0.00    -0.112 OA 
BRANCH  25  26
HETATM   26  C   UNL     1      -6.545  13.358  68.801  1.00  0.00    -0.102 C  
HETATM   27  O   UNL     1      -6.176  12.259  68.404  1.00  0.00    -0.050 OA 
BRANCH  26  28
HETATM   28  C   UNL     1      -5.724  14.139  69.775  1.00  0.00    -0.106 C  
HETATM   29  C   UNL     1      -5.191  16.278  68.446  1.00  0.00    -0.105 C  
HETATM   30  C   UNL     1      -5.158  15.351  69.606  1.00  0.00    -0.095 C  
HETATM   31  C   UNL     1      -5.598  13.491  71.137  1.00  0.00    -0.207 C  
ENDBRANCH  26  28
ENDBRANCH  25  26
ENDBRANCH   9  25
BRANCH  16  32
HETATM   32  C   UNL     1     -12.256  14.339  64.533  1.00  0.00    -0.455 C  
HETATM   33  H   UNL     1     -12.201  16.027  63.570  1.00  0.00     0.000 HD 
HETATM   34  O   UNL     1     -11.681  15.616  64.250  1.00  0.00    -0.375 OA 
ENDBRANCH  16  32
TORSDOF 4
ENDMDL
MODEL      106
REMARK 921   NORMALIZED FREE ENERGY PREDICTED BY IDOCK:    0.82 KCAL/MOL
REMARK 922        TOTAL FREE ENERGY PREDICTED BY IDOCK:   -0.12 KCAL/MOL
REMARK 923 INTER-LIGAND FREE ENERGY PREDICTED BY IDOCK:    1.19 KCAL/MOL
REMARK 924 INTRA-LIGAND FREE ENERGY PREDICTED BY IDOCK:   -1.31 KCAL/MOL
REMARK 927      BINDING AFFINITY PREDICTED BY RF-SCORE:    0.00 PKD
ROOT
HETATM    1  C   UNL     1     -10.687   6.181  66.763  1.00  0.00    -0.371 C  
HETATM    2  C   UNL     1     -10.036   6.641  65.244  1.00  0.00     1.734 C  
HETATM    3  C   UNL     1      -8.339   6.293  64.728  1.00  0.00    -0.051 C  
HETATM    4  C   UNL     1      -7.898   7.361  63.708  1.00  0.00    -0.108 C  
HETATM    5  C   UNL     1      -7.134   6.010  65.991  1.00  0.00    -0.074 C  
HETATM    6  C   UNL     1      -5.968   6.939  65.958  1.00  0.00    -0.035 C  
HETATM    7  C   UNL     1      -5.931   7.709  67.050  1.00  0.00    -0.047 C  
HETATM    8  C   UNL     1      -5.153   8.969  67.177  1.00  0.00    -0.036 C  
HETATM    9  C   UNL     1      -7.036   7.280  67.997  1.00  0.00    -0.079 C  
HETATM   10  C   UNL     1      -8.544   4.860  68.563  1.00  0.00    -0.099 C  
HETATM   11  C   UNL     1      -8.172   6.369  66.922  1.00  0.00    -0.110 C  
HETATM   12  C   UNL     1      -8.710   4.508  66.249  1.00  0.00    -0.113 C  
HETATM   13  C   UNL     1     -10.177   5.369  68.061  1.00  0.00    -0.221 C  
HETATM   14  O   UNL     1      -8.677   7.705  66.492  1.00  0.00    -0.135 OA 
HETATM   15  H   UNL     1      -9.361   7.941  67.106  1.00  0.00     0.000 HD 
HETATM   16  C   UNL     1      -8.694   3.161  67.135  1.00  0.00    -0.137 C  
HETATM   17  O   UNL     1      -9.902   4.251  65.476  1.00  0.00    -0.185 OA 
HETATM   18  C   UNL     1     -10.001   7.494  69.319  1.00  0.00    -0.179 C  
HETATM   19  C   UNL     1      -7.015   4.983  67.471  1.00  0.00    -0.061 C  
HETATM   20  C   UNL     1     -12.279   6.993  68.617  1.00  0.00     2.483 C  
HETATM   21  H   UNL     1     -10.151   3.389  65.164  1.00  0.00     0.000 HD 
HETATM   22  C   UNL     1     -10.807   6.767  68.268  1.00  0.00    -0.290 C  
HETATM   23  O   UNL     1      -6.002   4.300  67.684  1.00  0.00    -0.022 OA 
HETATM   24  C   UNL     1      -8.654   3.389  68.445  1.00  0.00    -0.120 C  
ENDROOT
BRANCH   9  25
HETATM   25  O   UNL     1      -6.510   6.734  69.223  1.00  0.00    -0.040 OA 
BRANCH  25  26
HETATM   26  C   UNL     1      -6.643   7.551  70.310  1.00  0.00    -0.039 C  
HETATM   27  O   UNL     1      -6.577   8.773  70.269  1.00  0.00    -0.037 OA 
BRANCH  26  28
HETATM   28  C   UNL     1      -6.983   6.842  71.581  1.00  0.00    -0.070 C  
HETATM   29  C   UNL     1      -5.594   4.683  71.387  1.00  0.00    -0.012 C  
HETATM   30  C   UNL     1      -6.544   5.641  72.009  1.00  0.00    -0.058 C  
HETATM   31  C   UNL     1      -7.872   7.636  72.514  1.00  0.00    -0.119 C  
ENDBRANCH  26  28
ENDBRANCH  25  26
ENDBRANCH   9  25
BRANCH  16  32
HETATM   32  C   UNL     1      -8.557   1.800  66.529  1.00  0.00    -0.111 C  
HETATM   33  H   UNL     1      -7.754   1.070  64.916  1.00  0.00     0.000 HD 
HETATM   34  O   UNL     1      -7.841   1.934  65.301  1.00  0.00    -0.071 OA 
ENDBRANCH  16  32
TORSDOF 4
ENDMDL
MODEL      107
REMARK 921   NORMALIZED FREE ENERGY PREDICTED BY IDOCK:    0.82 KCAL/MOL
REMARK 922        TOTAL FREE ENERGY PREDICTED BY IDOCK:   -0.11 KCAL/MOL
REMARK 923 INTER-LIGAND FREE ENERGY PREDICTED BY IDOCK:   -0.79 KCAL/MOL
REMARK 924 INTRA-LIGAND FREE ENERGY PREDICTED BY IDOCK:    0.68 KCAL/MOL
REMARK 927      BINDING AFFINITY PREDICTED BY RF-SCORE:    0.00 PKD
ROOT
HETATM    1  C   UNL     1      -7.587  19.374  67.048  1.00  0.00    -0.264 C  
HETATM    2  C   UNL     1      -9.216  19.349  67.587  1.00  0.00    -0.375 C  
HETATM    3  C   UNL     1      -9.821  18.288  68.919  1.00  0.00    -0.341 C  
HETATM    4  C   UNL     1     -11.321  18.010  68.694  1.00  0.00     1.274 C  
HETATM    5  C   UNL     1      -8.900  16.826  69.293  1.00  0.00     0.010 C  
HETATM    6  C   UNL     1      -9.675  15.557  69.185  1.00  0.00    -0.252 C  
HETATM    7  C   UNL     1      -9.201  14.781  68.206  1.00  0.00    -0.187 C  
HETATM    8  C   UNL     1      -9.938  13.650  67.584  1.00  0.00    -0.239 C  
HETATM    9  C   UNL     1      -7.958  15.424  67.622  1.00  0.00    -0.155 C  
HETATM   10  C   UNL     1      -5.878  17.249  68.511  1.00  0.00    -0.155 C  
HETATM   11  C   UNL     1      -8.104  17.152  68.138  1.00  0.00    -0.219 C  
HETATM   12  C   UNL     1      -7.545  18.531  69.550  1.00  0.00     0.294 C  
HETATM   13  C   UNL     1      -6.204  18.652  67.462  1.00  0.00    -0.179 C  
HETATM   14  O   UNL     1      -9.058  17.307  67.002  1.00  0.00    -0.225 OA 
HETATM   15  H   UNL     1      -8.533  17.522  66.241  1.00  0.00     0.000 HD 
HETATM   16  C   UNL     1      -6.107  18.584  70.276  1.00  0.00    -0.023 C  
HETATM   17  O   UNL     1      -7.782  19.949  69.421  1.00  0.00    -0.169 OA 
HETATM   18  C   UNL     1      -6.346  17.225  65.444  1.00  0.00     1.031 C  
HETATM   19  C   UNL     1      -7.169  16.422  69.604  1.00  0.00     0.046 C  
HETATM   20  C   UNL     1      -6.158  19.596  64.918  1.00  0.00    -0.303 C  
HETATM   21  H   UNL     1      -7.523  20.587  70.075  1.00  0.00     0.000 HD 
HETATM   22  C   UNL     1      -6.642  18.607  65.979  1.00  0.00    -0.277 C  
HETATM   23  O   UNL     1      -6.850  15.720  70.577  1.00  0.00     0.332 OA 
HETATM   24  C   UNL     1      -5.166  17.893  69.638  1.00  0.00    -0.191 C  
ENDROOT
BRANCH   9  25
HETATM   25  O   UNL     1      -6.779  14.631  67.864  1.00  0.00    -0.130 OA 
BRANCH  25  26
HETATM   26  C   UNL     1      -6.802  13.392  67.286  1.00  0.00     0.084 C  
HETATM   27  O   UNL     1      -7.597  13.046  66.422  1.00  0.00     0.779 OA 
BRANCH  26  28
HETATM   28  C   UNL     1      -5.695  12.486  67.720  1.00  0.00    -0.116 C  
HETATM   29  C   UNL     1      -5.438  13.092  70.208  1.00  0.00    -0.128 C  
HETATM   30  C   UNL     1      -5.132  12.382  68.940  1.00  0.00    -0.055 C  
HETATM   31  C   UNL     1      -5.227  11.525  66.648  1.00  0.00    -0.118 C  
ENDBRANCH  26  28
ENDBRANCH  25  26
ENDBRANCH   9  25
BRANCH  16  32
HETATM   32  C   UNL     1      -5.906  19.202  71.624  1.00  0.00     0.098 C  
HETATM   33  H   UNL     1      -5.945  21.007  72.345  1.00  0.00     0.000 HD 
HETATM   34  O   UNL     1      -6.072  20.614  71.489  1.00  0.00    -0.639 OA 
ENDBRANCH  16  32
TORSDOF 4
ENDMDL
MODEL      108
REMARK 921   NORMALIZED FREE ENERGY PREDICTED BY IDOCK:    1.96 KCAL/MOL
REMARK 922        TOTAL FREE ENERGY PREDICTED BY IDOCK:    1.29 KCAL/MOL
REMARK 923 INTER-LIGAND FREE ENERGY PREDICTED BY IDOCK:   -1.03 KCAL/MOL
REMARK 924 INTRA-LIGAND FREE ENERGY PREDICTED BY IDOCK:    2.32 KCAL/MOL
REMARK 927      BINDING AFFINITY PREDICTED BY RF-SCORE:    0.00 PKD
ROOT
HETATM    1  C   UNL     1     -12.518  15.117  68.323  1.00  0.00     0.478 C  
HETATM    2  C   UNL     1     -12.244  16.205  67.024  1.00  0.00     1.717 C  
HETATM    3  C   UNL     1     -10.720  16.253  66.055  1.00  0.00    -0.217 C  
HETATM    4  C   UNL     1     -10.529  17.677  65.494  1.00  0.00    -0.048 C  
HETATM    5  C   UNL     1      -9.250  15.605  66.795  1.00  0.00    -0.275 C  
HETATM    6  C   UNL     1      -8.122  16.574  66.893  1.00  0.00    -0.254 C  
HETATM    7  C   UNL     1      -7.825  16.844  68.168  1.00  0.00    -0.189 C  
HETATM    8  C   UNL     1      -7.034  18.016  68.627  1.00  0.00    -0.261 C  
HETATM    9  C   UNL     1      -8.674  15.971  69.071  1.00  0.00    -0.245 C  
HETATM   10  C   UNL     1     -10.014  13.396  68.908  1.00  0.00     0.032 C  
HETATM   11  C   UNL     1     -10.036  15.462  67.993  1.00  0.00    -0.226 C  
HETATM   12  C   UNL     1     -10.726  13.983  66.751  1.00  0.00    -0.285 C  
HETATM   13  C   UNL     1     -11.717  13.907  69.028  1.00  0.00    -0.378 C  
HETATM   14  O   UNL     1     -10.624  16.805  68.270  1.00  0.00    -0.318 OA 
HETATM   15  H   UNL     1     -11.142  16.711  69.060  1.00  0.00     0.000 HD 
HETATM   16  C   UNL     1     -10.504  12.402  66.979  1.00  0.00    -0.238 C  
HETATM   17  O   UNL     1     -12.068  13.945  66.220  1.00  0.00    -0.405 OA 
HETATM   18  C   UNL     1     -11.240  15.359  70.976  1.00  0.00    -0.408 C  
HETATM   19  C   UNL     1      -8.788  14.089  67.658  1.00  0.00    -0.190 C  
HETATM   20  C   UNL     1     -13.621  14.968  70.645  1.00  0.00    -0.132 C  
HETATM   21  H   UNL     1     -12.387  13.260  65.645  1.00  0.00     0.000 HD 
HETATM   22  C   UNL     1     -12.275  15.039  69.923  1.00  0.00    -0.351 C  
HETATM   23  O   UNL     1      -7.755  13.475  67.346  1.00  0.00    -0.164 OA 
HETATM   24  C   UNL     1     -10.153  12.092  68.224  1.00  0.00    -0.201 C  
ENDROOT
BRANCH   9  25
HETATM   25  O   UNL     1      -7.874  15.033  69.818  1.00  0.00    -0.172 OA 
BRANCH  25  26
HETATM   26  C   UNL     1      -6.737  15.565  70.360  1.00  0.00     0.254 C  
HETATM   27  O   UNL     1      -6.227  16.619  70.002  1.00  0.00    -0.206 OA 
BRANCH  26  28
HETATM   28  C   UNL     1      -6.190  14.802  71.523  1.00  0.00     0.415 C  
HETATM   29  C   UNL     1      -5.553  12.552  70.447  1.00  0.00    -0.161 C  
HETATM   30  C   UNL     1      -5.711  13.542  71.543  1.00  0.00    -0.070 C  
HETATM   31  C   UNL     1      -6.108  15.603  72.805  1.00  0.00     2.001 C  
ENDBRANCH  26  28
ENDBRANCH  25  26
ENDBRANCH   9  25
BRANCH  16  32
HETATM   32  C   UNL     1     -10.520  11.416  65.854  1.00  0.00    -0.258 C  
HETATM   33  H   UNL     1     -10.736  11.511  63.925  1.00  0.00     0.000 HD 
HETATM   34  O   UNL     1     -10.726  12.137  64.639  1.00  0.00    -0.278 OA 
ENDBRANCH  16  32
TORSDOF 4
ENDMDL
MODEL      109
REMARK 921   NORMALIZED FREE ENERGY PREDICTED BY IDOCK:    2.91 KCAL/MOL
REMARK 922        TOTAL FREE ENERGY PREDICTED BY IDOCK:    2.46 KCAL/MOL
REMARK 923 INTER-LIGAND FREE ENERGY PREDICTED BY IDOCK:   -0.68 KCAL/MOL
REMARK 924 INTRA-LIGAND FREE ENERGY PREDICTED BY IDOCK:    3.13 KCAL/MOL
REMARK 927      BINDING AFFINITY PREDICTED BY RF-SCORE:    0.00 PKD
ROOT
HETATM    1  C   UNL     1      -9.555   6.535  65.230  1.00  0.00     0.923 C  
HETATM    2  C   UNL     1     -10.002   8.142  65.633  1.00  0.00     0.782 C  
HETATM    3  C   UNL     1      -9.727   8.888  67.256  1.00  0.00    -0.235 C  
HETATM    4  C   UNL     1     -10.786   9.984  67.488  1.00  0.00    -0.326 C  
HETATM    5  C   UNL     1      -9.544   7.805  68.642  1.00  0.00    -0.154 C  
HETATM    6  C   UNL     1     -10.530   8.025  69.738  1.00  0.00    -0.227 C  
HETATM    7  C   UNL     1     -11.333   6.967  69.888  1.00  0.00    -0.260 C  
HETATM    8  C   UNL     1     -12.634   6.981  70.606  1.00  0.00    -0.104 C  
HETATM    9  C   UNL     1     -10.876   5.862  68.954  1.00  0.00    -0.303 C  
HETATM   10  C   UNL     1      -8.400   5.033  67.677  1.00  0.00    -0.105 C  
HETATM   11  C   UNL     1      -9.876   6.743  67.729  1.00  0.00    -0.126 C  
HETATM   12  C   UNL     1      -7.971   7.290  67.203  1.00  0.00    -0.110 C  
HETATM   13  C   UNL     1      -8.809   5.306  65.964  1.00  0.00    -0.141 C  
HETATM   14  O   UNL     1     -11.172   7.125  67.095  1.00  0.00    -0.592 OA 
HETATM   15  H   UNL     1     -11.391   6.424  66.493  1.00  0.00     0.000 HD 
HETATM   16  C   UNL     1      -6.654   6.387  67.419  1.00  0.00    -0.058 C  
HETATM   17  O   UNL     1      -7.631   7.879  65.930  1.00  0.00    -0.079 OA 
HETATM   18  C   UNL     1     -10.977   4.134  66.200  1.00  0.00     1.324 C  
HETATM   19  C   UNL     1      -8.569   6.336  69.026  1.00  0.00    -0.123 C  
HETATM   20  C   UNL     1     -10.339   4.490  63.877  1.00  0.00     0.284 C  
HETATM   21  H   UNL     1      -6.748   8.132  65.687  1.00  0.00     0.000 HD 
HETATM   22  C   UNL     1     -10.178   5.041  65.294  1.00  0.00     0.152 C  
HETATM   23  O   UNL     1      -7.945   6.255  70.095  1.00  0.00    -0.104 OA 
HETATM   24  C   UNL     1      -6.923   5.102  67.633  1.00  0.00    -0.065 C  
ENDROOT
BRANCH   9  25
HETATM   25  O   UNL     1     -10.394   4.713  69.679  1.00  0.00    -0.169 OA 
BRANCH  25  26
HETATM   26  C   UNL     1     -10.466   4.830  71.039  1.00  0.00    -0.044 C  
HETATM   27  O   UNL     1     -11.320   5.474  71.634  1.00  0.00    -0.149 OA 
BRANCH  26  28
HETATM   28  C   UNL     1      -9.458   4.016  71.784  1.00  0.00    -0.210 C  
HETATM   29  C   UNL     1      -9.076   5.428  73.903  1.00  0.00    -0.122 C  
HETATM   30  C   UNL     1      -8.881   4.286  72.972  1.00  0.00    -0.109 C  
HETATM   31  C   UNL     1      -9.126   2.693  71.129  1.00  0.00    -0.181 C  
ENDBRANCH  26  28
ENDBRANCH  25  26
ENDBRANCH   9  25
BRANCH  16  32
HETATM   32  C   UNL     1      -5.284   6.976  67.543  1.00  0.00    -0.016 C  
HETATM   33  H   UNL     1      -4.487   8.444  68.537  1.00  0.00     0.000 HD 
HETATM   34  O   UNL     1      -5.356   8.070  68.458  1.00  0.00    -0.030 OA 
ENDBRANCH  16  32
TORSDOF 4
ENDMDL
MODEL      110
REMARK 921   NORMALIZED FREE ENERGY PREDICTED BY IDOCK:    3.50 KCAL/MOL
REMARK 922        TOTAL FREE ENERGY PREDICTED BY IDOCK:    3.19 KCAL/MOL
REMARK 923 INTER-LIGAND FREE ENERGY PREDICTED BY IDOCK:    3.31 KCAL/MOL
REMARK 924 INTRA-LIGAND FREE ENERGY PREDICTED BY IDOCK:   -0.13 KCAL/MOL
REMARK 927      BINDING AFFINITY PREDICTED BY RF-SCORE:    0.00 PKD
ROOT
HETATM    1  C   UNL     1      -9.593  10.703  67.542  1.00  0.00    -0.180 C  
HETATM    2  C   UNL     1      -9.926  11.107  65.908  1.00  0.00    -0.285 C  
HETATM    3  C   UNL     1      -9.892  12.793  65.260  1.00  0.00    -0.118 C  
HETATM    4  C   UNL     1     -10.845  12.883  64.051  1.00  0.00    -0.443 C  
HETATM    5  C   UNL     1     -10.110  14.122  66.406  1.00  0.00    -0.299 C  
HETATM    6  C   UNL     1     -11.261  15.021  66.106  1.00  0.00    -0.307 C  
HETATM    7  C   UNL     1     -12.192  14.951  67.062  1.00  0.00     0.135 C  
HETATM    8  C   UNL     1     -13.599  15.407  66.914  1.00  0.00     5.583 C  
HETATM    9  C   UNL     1     -11.688  14.059  68.181  1.00  0.00    -0.352 C  
HETATM   10  C   UNL     1      -9.120  13.232  69.262  1.00  0.00     0.850 C  
HETATM   11  C   UNL     1     -10.374  13.102  67.386  1.00  0.00    -0.239 C  
HETATM   12  C   UNL     1      -8.353  12.983  67.059  1.00  0.00    -0.095 C  
HETATM   13  C   UNL     1      -9.151  11.492  68.879  1.00  0.00     0.015 C  
HETATM   14  O   UNL     1     -11.468  12.256  66.825  1.00  0.00    -0.323 OA 
HETATM   15  H   UNL     1     -11.642  11.582  67.472  1.00  0.00     0.000 HD 
HETATM   16  C   UNL     1      -7.215  13.394  68.124  1.00  0.00    -0.113 C  
HETATM   17  O   UNL     1      -7.704  11.835  66.471  1.00  0.00    -0.340 OA 
HETATM   18  C   UNL     1     -11.441  11.239  69.784  1.00  0.00    -0.386 C  
HETATM   19  C   UNL     1      -9.403  14.598  67.997  1.00  0.00    -0.198 C  
HETATM   20  C   UNL     1     -10.322   9.106  69.426  1.00  0.00    -0.220 C  
HETATM   21  H   UNL     1      -6.768  11.781  66.319  1.00  0.00     0.000 HD 
HETATM   22  C   UNL     1     -10.382  10.558  68.950  1.00  0.00    -0.226 C  
HETATM   23  O   UNL     1      -9.014  15.761  68.192  1.00  0.00    -0.177 OA 
HETATM   24  C   UNL     1      -7.665  13.475  69.373  1.00  0.00     0.474 C  
ENDROOT
BRANCH   9  25
HETATM   25  O   UNL     1     -11.493  14.793  69.405  1.00  0.00    -0.268 OA 
BRANCH  25  26
HETATM   26  C   UNL     1     -12.626  14.966  70.150  1.00  0.00    -0.264 C  
HETATM   27  O   UNL     1     -13.736  15.179  69.680  1.00  0.00     1.255 OA 
BRANCH  26  28
HETATM   28  C   UNL     1     -12.437  14.776  71.620  1.00  0.00    -0.398 C  
HETATM   29  C   UNL     1     -13.910  12.721  72.100  1.00  0.00    -0.326 C  
HETATM   30  C   UNL     1     -12.989  13.842  72.419  1.00  0.00    -0.440 C  
HETATM   31  C   UNL     1     -11.433  15.724  72.241  1.00  0.00    -0.416 C  
ENDBRANCH  26  28
ENDBRANCH  25  26
ENDBRANCH   9  25
BRANCH  16  32
HETATM   32  C   UNL     1      -5.839  13.812  67.712  1.00  0.00    -0.095 C  
HETATM   33  H   UNL     1      -4.714  13.545  66.149  1.00  0.00     0.000 HD 
HETATM   34  O   UNL     1      -5.588  13.279  66.411  1.00  0.00     1.512 OA 
ENDBRANCH  16  32
TORSDOF 4
ENDMDL
MODEL      111
REMARK 921   NORMALIZED FREE ENERGY PREDICTED BY IDOCK:    3.94 KCAL/MOL
REMARK 922        TOTAL FREE ENERGY PREDICTED BY IDOCK:    3.73 KCAL/MOL
REMARK 923 INTER-LIGAND FREE ENERGY PREDICTED BY IDOCK:    0.05 KCAL/MOL
REMARK 924 INTRA-LIGAND FREE ENERGY PREDICTED BY IDOCK:    3.68 KCAL/MOL
REMARK 927      BINDING AFFINITY PREDICTED BY RF-SCORE:    0.00 PKD
ROOT
HETATM    1  C   UNL     1      -7.667  13.065  66.592  1.00  0.00     0.599 C  
HETATM    2  C   UNL     1      -7.598  11.965  65.277  1.00  0.00     1.976 C  
HETATM    3  C   UNL     1      -8.994  10.954  64.734  1.00  0.00    -0.155 C  
HETATM    4  C   UNL     1      -8.453   9.677  64.060  1.00  0.00    -0.190 C  
HETATM    5  C   UNL     1     -10.277  10.622  65.904  1.00  0.00    -0.314 C  
HETATM    6  C   UNL     1     -10.526   9.175  66.161  1.00  0.00     0.112 C  
HETATM    7  C   UNL     1     -10.231   8.849  67.423  1.00  0.00    -0.313 C  
HETATM    8  C   UNL     1     -10.004   7.464  67.913  1.00  0.00    -0.201 C  
HETATM    9  C   UNL     1      -9.852  10.105  68.184  1.00  0.00    -0.144 C  
HETATM   10  C   UNL     1     -10.411  12.953  68.020  1.00  0.00    -0.230 C  
HETATM   11  C   UNL     1      -9.430  11.274  66.868  1.00  0.00    -0.177 C  
HETATM   12  C   UNL     1     -10.136  12.801  65.695  1.00  0.00    -0.270 C  
HETATM   13  C   UNL     1      -8.789  13.582  67.631  1.00  0.00    -0.202 C  
HETATM   14  O   UNL     1      -8.112  10.576  66.808  1.00  0.00    -0.118 OA 
HETATM   15  H   UNL     1      -7.554  11.006  67.444  1.00  0.00     0.000 HD 
HETATM   16  C   UNL     1     -11.174  13.936  66.176  1.00  0.00    -0.303 C  
HETATM   17  O   UNL     1      -9.296  13.612  64.847  1.00  0.00    -0.114 OA 
HETATM   18  C   UNL     1      -7.739  12.243  69.429  1.00  0.00     0.552 C  
HETATM   19  C   UNL     1     -11.280  11.594  67.047  1.00  0.00    -0.314 C  
HETATM   20  C   UNL     1      -6.267  13.974  68.552  1.00  0.00    -0.093 C  
HETATM   21  H   UNL     1      -9.624  14.319  64.303  1.00  0.00     0.000 HD 
HETATM   22  C   UNL     1      -7.445  13.066  68.197  1.00  0.00    -0.130 C  
HETATM   23  O   UNL     1     -12.510  11.442  67.093  1.00  0.00     0.637 OA 
HETATM   24  C   UNL     1     -11.271  14.038  67.499  1.00  0.00    -0.328 C  
ENDROOT
BRANCH   9  25
HETATM   25  O   UNL     1     -10.799  10.407  69.227  1.00  0.00    -0.210 OA 
BRANCH  25  26
HETATM   26  C   UNL     1     -10.361  10.124  70.490  1.00  0.00    -0.040 C  
HETATM   27  O   UNL     1     -10.751  10.694  71.501  1.00  0.00     1.438 OA 
BRANCH  26  28
HETATM   28  C   UNL     1      -9.414   8.971  70.574  1.00  0.00    -0.265 C  
HETATM   29  C   UNL     1      -7.377   9.841  69.264  1.00  0.00    -0.082 C  
HETATM   30  C   UNL     1      -8.178   8.866  70.047  1.00  0.00    -0.122 C  
HETATM   31  C   UNL     1      -9.911   7.825  71.431  1.00  0.00    -0.195 C  
ENDBRANCH  26  28
ENDBRANCH  25  26
ENDBRANCH   9  25
BRANCH  16  32
HETATM   32  C   UNL     1     -12.065  14.670  65.223  1.00  0.00    -0.276 C  
HETATM   33  H   UNL     1     -12.719  14.367  63.418  1.00  0.00     0.000 HD 
HETATM   34  O   UNL     1     -12.154  13.901  64.023  1.00  0.00    -0.476 OA 
ENDBRANCH  16  32
TORSDOF 4
ENDMDL
MODEL      112
REMARK 921   NORMALIZED FREE ENERGY PREDICTED BY IDOCK:    3.96 KCAL/MOL
REMARK 922        TOTAL FREE ENERGY PREDICTED BY IDOCK:    3.76 KCAL/MOL
REMARK 923 INTER-LIGAND FREE ENERGY PREDICTED BY IDOCK:   -0.16 KCAL/MOL
REMARK 924 INTRA-LIGAND FREE ENERGY PREDICTED BY IDOCK:    3.92 KCAL/MOL
REMARK 927      BINDING AFFINITY PREDICTED BY RF-SCORE:    0.00 PKD
ROOT
HETATM    1  C   UNL     1      -7.415  15.623  66.479  1.00  0.00     0.318 C  
HETATM    2  C   UNL     1      -7.339  14.301  67.570  1.00  0.00    -0.199 C  
HETATM    3  C   UNL     1      -8.792  13.514  68.302  1.00  0.00    -0.179 C  
HETATM    4  C   UNL     1      -8.395  12.894  69.657  1.00  0.00     1.752 C  
HETATM    5  C   UNL     1     -10.285  14.458  68.391  1.00  0.00    -0.243 C  
HETATM    6  C   UNL     1     -10.834  14.627  69.767  1.00  0.00    -0.180 C  
HETATM    7  C   UNL     1     -10.809  15.909  70.144  1.00  0.00    -0.359 C  
HETATM    8  C   UNL     1     -10.922  16.385  71.548  1.00  0.00     0.527 C  
HETATM    9  C   UNL     1     -10.332  16.759  68.982  1.00  0.00    -0.326 C  
HETATM   10  C   UNL     1     -10.324  16.598  66.080  1.00  0.00    -0.352 C  
HETATM   11  C   UNL     1      -9.497  15.563  67.910  1.00  0.00    -0.201 C  
HETATM   12  C   UNL     1      -9.715  14.342  66.277  1.00  0.00    -0.302 C  
HETATM   13  C   UNL     1      -8.574  16.489  65.763  1.00  0.00     0.151 C  
HETATM   14  O   UNL     1      -8.338  15.688  68.842  1.00  0.00    -0.176 OA 
HETATM   15  H   UNL     1      -7.819  16.417  68.524  1.00  0.00     0.000 HD 
HETATM   16  C   UNL     1     -10.590  14.689  64.969  1.00  0.00    -0.461 C  
HETATM   17  O   UNL     1      -8.615  13.662  65.635  1.00  0.00     0.595 OA 
HETATM   18  C   UNL     1      -8.088  18.386  67.278  1.00  0.00    -0.243 C  
HETATM   19  C   UNL     1     -11.261  15.460  67.251  1.00  0.00    -0.270 C  
HETATM   20  C   UNL     1      -6.203  17.805  65.850  1.00  0.00    -0.240 C  
HETATM   21  H   UNL     1      -8.716  13.096  64.878  1.00  0.00     0.000 HD 
HETATM   22  C   UNL     1      -7.455  17.242  66.522  1.00  0.00    -0.315 C  
HETATM   23  O   UNL     1     -12.490  15.307  67.171  1.00  0.00     0.540 OA 
HETATM   24  C   UNL     1     -10.876  15.983  64.852  1.00  0.00    -0.391 C  
ENDROOT
BRANCH   9  25
HETATM   25  O   UNL     1     -11.361  17.649  68.510  1.00  0.00     0.252 OA 
BRANCH  25  26
HETATM   26  C   UNL     1     -10.899  18.739  67.826  1.00  0.00    -0.269 C  
HETATM   27  O   UNL     1     -11.087  18.937  66.633  1.00  0.00    -0.124 OA 
BRANCH  26  28
HETATM   28  C   UNL     1     -10.208  19.756  68.675  1.00  0.00    -0.515 C  
HETATM   29  C   UNL     1      -8.939  21.155  66.926  1.00  0.00     0.329 C  
HETATM   30  C   UNL     1      -9.385  20.749  68.284  1.00  0.00     0.292 C  
HETATM   31  C   UNL     1     -10.561  19.676  70.145  1.00  0.00     1.221 C  
ENDBRANCH  26  28
ENDBRANCH  25  26
ENDBRANCH   9  25
BRANCH  16  32
HETATM   32  C   UNL     1     -11.166  13.632  64.080  1.00  0.00    -0.272 C  
HETATM   33  H   UNL     1     -12.807  12.591  64.043  1.00  0.00     0.000 HD 
HETATM   34  O   UNL     1     -12.440  13.261  64.607  1.00  0.00    -0.518 OA 
ENDBRANCH  16  32
TORSDOF 4
ENDMDL
MODEL      113
REMARK 921   NORMALIZED FREE ENERGY PREDICTED BY IDOCK:    4.21 KCAL/MOL
REMARK 922        TOTAL FREE ENERGY PREDICTED BY IDOCK:    4.06 KCAL/MOL
REMARK 923 INTER-LIGAND FREE ENERGY PREDICTED BY IDOCK:    2.07 KCAL/MOL
REMARK 924 INTRA-LIGAND FREE ENERGY PREDICTED BY IDOCK:    2.00 KCAL/MOL
REMARK 927      BINDING AFFINITY PREDICTED BY RF-SCORE:    0.00 PKD
ROOT
HETATM    1  C   UNL     1      -5.923   8.729  66.885  1.00  0.00    -0.057 C  
HETATM    2  C   UNL     1      -5.383   8.906  68.504  1.00  0.00    -0.037 C  
HETATM    3  C   UNL     1      -6.445   9.433  69.868  1.00  0.00    -0.046 C  
HETATM    4  C   UNL     1      -5.575  10.118  70.942  1.00  0.00    -0.086 C  
HETATM    5  C   UNL     1      -7.900  10.356  69.473  1.00  0.00    -0.161 C  
HETATM    6  C   UNL     1      -7.981  11.698  70.117  1.00  0.00     2.320 C  
HETATM    7  C   UNL     1      -7.942  12.676  69.206  1.00  0.00     0.612 C  
HETATM    8  C   UNL     1      -7.629  14.099  69.498  1.00  0.00     0.226 C  
HETATM    9  C   UNL     1      -7.945  12.062  67.819  1.00  0.00    -0.147 C  
HETATM   10  C   UNL     1      -8.874   9.606  66.572  1.00  0.00    -0.158 C  
HETATM   11  C   UNL     1      -7.410  10.359  68.119  1.00  0.00    -0.088 C  
HETATM   12  C   UNL     1      -8.046   8.434  68.427  1.00  0.00    -0.123 C  
HETATM   13  C   UNL     1      -7.321   8.876  66.092  1.00  0.00    -0.090 C  
HETATM   14  O   UNL     1      -6.025  10.911  68.177  1.00  0.00    -0.049 OA 
HETATM   15  H   UNL     1      -5.701  10.913  67.284  1.00  0.00     0.000 HD 
HETATM   16  C   UNL     1      -9.327   7.756  67.722  1.00  0.00    -0.155 C  
HETATM   17  O   UNL     1      -7.163   7.291  68.431  1.00  0.00    -0.085 OA 
HETATM   18  C   UNL     1      -6.529  10.997  65.090  1.00  0.00     0.385 C  
HETATM   19  C   UNL     1      -9.277  10.184  68.318  1.00  0.00    -0.130 C  
HETATM   20  C   UNL     1      -5.172   9.079  64.447  1.00  0.00    -0.050 C  
HETATM   21  H   UNL     1      -7.458   6.399  68.574  1.00  0.00     0.000 HD 
HETATM   22  C   UNL     1      -6.084   9.627  65.546  1.00  0.00    -0.068 C  
HETATM   23  O   UNL     1     -10.447  10.329  68.706  1.00  0.00    -0.182 OA 
HETATM   24  C   UNL     1      -9.743   8.411  66.641  1.00  0.00    -0.320 C  
ENDROOT
BRANCH   9  25
HETATM   25  O   UNL     1      -9.144  12.389  67.090  1.00  0.00    -0.185 OA 
BRANCH  25  26
HETATM   26  C   UNL     1      -9.687  13.603  67.408  1.00  0.00    -0.228 C  
HETATM   27  O   UNL     1     -10.731  13.751  68.031  1.00  0.00    -0.241 OA 
BRANCH  26  28
HETATM   28  C   UNL     1      -8.850  14.778  67.019  1.00  0.00    -0.258 C  
HETATM   29  C   UNL     1     -10.067  16.724  68.183  1.00  0.00    -0.282 C  
HETATM   30  C   UNL     1      -9.030  16.074  67.342  1.00  0.00    -0.202 C  
HETATM   31  C   UNL     1      -7.612  14.419  66.226  1.00  0.00     2.244 C  
ENDBRANCH  26  28
ENDBRANCH  25  26
ENDBRANCH   9  25
BRANCH  16  32
HETATM   32  C   UNL     1     -10.071   6.610  68.332  1.00  0.00    -0.156 C  
HETATM   33  H   UNL     1     -10.281   4.719  67.934  1.00  0.00     0.000 HD 
HETATM   34  O   UNL     1      -9.809   5.447  67.546  1.00  0.00    -0.133 OA 
ENDBRANCH  16  32
TORSDOF 4
ENDMDL
MODEL      114
REMARK 921   NORMALIZED FREE ENERGY PREDICTED BY IDOCK:    4.36 KCAL/MOL
REMARK 922        TOTAL FREE ENERGY PREDICTED BY IDOCK:    4.25 KCAL/MOL
REMARK 923 INTER-LIGAND FREE ENERGY PREDICTED BY IDOCK:    1.23 KCAL/MOL
REMARK 924 INTRA-LIGAND FREE ENERGY PREDICTED BY IDOCK:    3.02 KCAL/MOL
REMARK 927      BINDING AFFINITY PREDICTED BY RF-SCORE:    0.00 PKD
ROOT
HETATM    1  C   UNL     1      -9.397   4.490  64.767  1.00  0.00    -0.140 C  
HETATM    2  C   UNL     1      -9.783   3.421  66.053  1.00  0.00     0.011 C  
HETATM    3  C   UNL     1      -9.703   3.876  67.800  1.00  0.00    -0.144 C  
HETATM    4  C   UNL     1      -9.440   2.607  68.635  1.00  0.00    -0.193 C  
HETATM    5  C   UNL     1      -8.654   5.225  68.254  1.00  0.00    -0.099 C  
HETATM    6  C   UNL     1      -7.598   4.886  69.251  1.00  0.00    -0.060 C  
HETATM    7  C   UNL     1      -6.377   5.007  68.723  1.00  0.00    -0.035 C  
HETATM    8  C   UNL     1      -5.141   4.406  69.290  1.00  0.00     0.000 C  
HETATM    9  C   UNL     1      -6.497   5.564  67.317  1.00  0.00    -0.048 C  
HETATM   10  C   UNL     1      -8.370   7.211  65.825  1.00  0.00    -0.144 C  
HETATM   11  C   UNL     1      -8.219   5.219  66.882  1.00  0.00    -0.108 C  
HETATM   12  C   UNL     1     -10.116   5.996  66.813  1.00  0.00    -0.187 C  
HETATM   13  C   UNL     1      -8.950   6.034  64.619  1.00  0.00     0.389 C  
HETATM   14  O   UNL     1      -7.763   3.828  66.593  1.00  0.00    -0.086 OA 
HETATM   15  H   UNL     1      -7.477   3.825  65.688  1.00  0.00     0.000 HD 
HETATM   16  C   UNL     1     -10.480   7.525  66.455  1.00  0.00    -0.021 C  
HETATM   17  O   UNL     1     -11.224   5.344  66.157  1.00  0.00    -0.761 OA 
HETATM   18  C   UNL     1      -6.645   5.314  64.077  1.00  0.00    -0.041 C  
HETATM   19  C   UNL     1      -8.389   6.917  67.684  1.00  0.00    -0.123 C  
HETATM   20  C   UNL     1      -8.285   4.551  62.446  1.00  0.00    -0.073 C  
HETATM   21  H   UNL     1     -12.103   5.704  66.125  1.00  0.00     0.000 HD 
HETATM   22  C   UNL     1      -8.102   4.952  63.910  1.00  0.00    -0.112 C  
HETATM   23  O   UNL     1      -8.342   7.856  68.495  1.00  0.00    -0.126 OA 
HETATM   24  C   UNL     1      -9.492   8.175  65.847  1.00  0.00    -0.082 C  
ENDROOT
BRANCH   9  25
HETATM   25  O   UNL     1      -5.908   6.874  67.207  1.00  0.00    -0.013 OA 
BRANCH  25  26
HETATM   26  C   UNL     1      -5.594   7.249  65.930  1.00  0.00    -0.032 C  
HETATM   27  O   UNL     1      -5.287   6.470  65.036  1.00  0.00    -0.020 OA 
BRANCH  26  28
HETATM   28  C   UNL     1      -5.750   8.710  65.657  1.00  0.00    -0.043 C  
HETATM   29  C   UNL     1      -5.776   8.785  63.084  1.00  0.00    -0.073 C  
HETATM   30  C   UNL     1      -5.812   9.334  64.464  1.00  0.00    -0.070 C  
HETATM   31  C   UNL     1      -5.933   9.554  66.900  1.00  0.00    -0.056 C  
ENDBRANCH  26  28
ENDBRANCH  25  26
ENDBRANCH   9  25
BRANCH  16  32
HETATM   32  C   UNL     1     -11.738   8.185  66.924  1.00  0.00     3.505 C  
HETATM   33  H   UNL     1     -12.178   9.620  68.160  1.00  0.00     0.000 HD 
HETATM   34  O   UNL     1     -11.380   9.200  67.862  1.00  0.00     0.218 OA 
ENDBRANCH  16  32
TORSDOF 4
ENDMDL
MODEL      115
REMARK 921   NORMALIZED FREE ENERGY PREDICTED BY IDOCK:    4.50 KCAL/MOL
REMARK 922        TOTAL FREE ENERGY PREDICTED BY IDOCK:    4.42 KCAL/MOL
REMARK 923 INTER-LIGAND FREE ENERGY PREDICTED BY IDOCK:    0.15 KCAL/MOL
REMARK 924 INTRA-LIGAND FREE ENERGY PREDICTED BY IDOCK:    4.27 KCAL/MOL
REMARK 927      BINDING AFFINITY PREDICTED BY RF-SCORE:    0.00 PKD
ROOT
HETATM    1  C   UNL     1      -8.767   9.427  70.561  1.00  0.00    -0.276 C  
HETATM    2  C   UNL     1      -7.137   8.991  70.250  1.00  0.00    -0.055 C  
HETATM    3  C   UNL     1      -6.258   9.401  68.725  1.00  0.00    -0.044 C  
HETATM    4  C   UNL     1      -5.157   8.349  68.484  1.00  0.00    -0.029 C  
HETATM    5  C   UNL     1      -7.222   9.728  67.279  1.00  0.00    -0.086 C  
HETATM    6  C   UNL     1      -6.922   8.844  66.117  1.00  0.00    -0.081 C  
HETATM    7  C   UNL     1      -7.972   8.076  65.810  1.00  0.00    -0.111 C  
HETATM    8  C   UNL     1      -7.912   6.846  64.978  1.00  0.00    -0.125 C  
HETATM    9  C   UNL     1      -9.146   8.465  66.689  1.00  0.00    -0.164 C  
HETATM   10  C   UNL     1     -10.053  10.827  68.119  1.00  0.00    -0.183 C  
HETATM   11  C   UNL     1      -8.359   9.332  68.069  1.00  0.00    -0.120 C  
HETATM   12  C   UNL     1      -7.838  11.172  68.811  1.00  0.00    -0.142 C  
HETATM   13  C   UNL     1      -9.924  10.258  69.803  1.00  0.00    -0.222 C  
HETATM   14  O   UNL     1      -8.042   7.978  68.608  1.00  0.00    -0.121 OA 
HETATM   15  H   UNL     1      -8.792   7.717  69.129  1.00  0.00     0.000 HD 
HETATM   16  C   UNL     1      -8.707  12.519  68.646  1.00  0.00     0.047 C  
HETATM   17  O   UNL     1      -7.352  11.384  70.154  1.00  0.00    -0.323 OA 
HETATM   18  C   UNL     1     -11.095   8.142  69.274  1.00  0.00     0.137 C  
HETATM   19  C   UNL     1      -8.646  10.760  66.870  1.00  0.00    -0.132 C  
HETATM   20  C   UNL     1     -10.923   8.558  71.668  1.00  0.00    -0.362 C  
HETATM   21  H   UNL     1      -7.110  12.237  70.497  1.00  0.00     0.000 HD 
HETATM   22  C   UNL     1     -10.256   8.838  70.320  1.00  0.00    -0.220 C  
HETATM   23  O   UNL     1      -8.633  11.481  65.860  1.00  0.00    -0.116 OA 
HETATM   24  C   UNL     1      -9.973  12.293  68.305  1.00  0.00    -0.216 C  
ENDROOT
BRANCH   9  25
HETATM   25  O   UNL     1     -10.227   9.030  65.922  1.00  0.00    -0.165 OA 
BRANCH  25  26
HETATM   26  C   UNL     1      -9.944   9.220  64.598  1.00  0.00     1.030 C  
HETATM   27  O   UNL     1      -9.650   8.323  63.818  1.00  0.00     1.954 OA 
BRANCH  26  28
HETATM   28  C   UNL     1     -10.115  10.627  64.124  1.00  0.00    -0.402 C  
HETATM   29  C   UNL     1     -12.171  11.407  65.461  1.00  0.00     1.391 C  
HETATM   30  C   UNL     1     -11.056  11.521  64.486  1.00  0.00    -0.340 C  
HETATM   31  C   UNL     1      -9.031  11.095  63.176  1.00  0.00    -0.186 C  
ENDBRANCH  26  28
ENDBRANCH  25  26
ENDBRANCH   9  25
BRANCH  16  32
HETATM   32  C   UNL     1      -8.097  13.884  68.697  1.00  0.00    -0.097 C  
HETATM   33  H   UNL     1      -6.292  14.603  68.634  1.00  0.00     0.000 HD 
HETATM   34  O   UNL     1      -6.679  13.736  68.602  1.00  0.00    -0.086 OA 
ENDBRANCH  16  32
TORSDOF 4
ENDMDL
MODEL      116
REMARK 921   NORMALIZED FREE ENERGY PREDICTED BY IDOCK:    4.64 KCAL/MOL
REMARK 922        TOTAL FREE ENERGY PREDICTED BY IDOCK:    4.59 KCAL/MOL
REMARK 923 INTER-LIGAND FREE ENERGY PREDICTED BY IDOCK:    0.54 KCAL/MOL
REMARK 924 INTRA-LIGAND FREE ENERGY PREDICTED BY IDOCK:    4.05 KCAL/MOL
REMARK 927      BINDING AFFINITY PREDICTED BY RF-SCORE:    0.00 PKD
ROOT
HETATM    1  C   UNL     1     -10.537   9.697  67.901  1.00  0.00    -0.308 C  
HETATM    2  C   UNL     1     -10.241  11.239  68.593  1.00  0.00    -0.214 C  
HETATM    3  C   UNL     1      -8.662  12.110  68.476  1.00  0.00    -0.079 C  
HETATM    4  C   UNL     1      -8.517  13.046  69.693  1.00  0.00     1.801 C  
HETATM    5  C   UNL     1      -7.210  11.148  68.173  1.00  0.00    -0.080 C  
HETATM    6  C   UNL     1      -6.147  11.281  69.210  1.00  0.00    -0.062 C  
HETATM    7  C   UNL     1      -5.949  10.125  69.850  1.00  0.00    -0.052 C  
HETATM    8  C   UNL     1      -5.257   9.985  71.159  1.00  0.00    -0.071 C  
HETATM    9  C   UNL     1      -6.804   9.049  69.209  1.00  0.00    -0.050 C  
HETATM   10  C   UNL     1      -7.983   8.528  66.603  1.00  0.00    -0.100 C  
HETATM   11  C   UNL     1      -8.062   9.998  68.318  1.00  0.00    -0.104 C  
HETATM   12  C   UNL     1      -8.585  10.793  66.502  1.00  0.00    -0.150 C  
HETATM   13  C   UNL     1      -9.716   8.638  67.001  1.00  0.00    -0.262 C  
HETATM   14  O   UNL     1      -8.742  10.144  69.638  1.00  0.00    -0.211 OA 
HETATM   15  H   UNL     1      -9.304   9.385  69.734  1.00  0.00     0.000 HD 
HETATM   16  C   UNL     1      -8.290  10.112  65.071  1.00  0.00    -0.158 C  
HETATM   17  O   UNL     1      -9.885  11.352  66.218  1.00  0.00    -0.206 OA 
HETATM   18  C   UNL     1      -9.449   7.169  68.977  1.00  0.00    -0.143 C  
HETATM   19  C   UNL     1      -6.719   9.866  67.001  1.00  0.00    -0.075 C  
HETATM   20  C   UNL     1     -11.778   7.483  68.335  1.00  0.00     1.421 C  
HETATM   21  H   UNL     1     -10.127  11.721  65.376  1.00  0.00     0.000 HD 
HETATM   22  C   UNL     1     -10.394   8.133  68.297  1.00  0.00    -0.241 C  
HETATM   23  O   UNL     1      -5.635   9.942  66.401  1.00  0.00    -0.046 OA 
HETATM   24  C   UNL     1      -8.003   8.815  65.152  1.00  0.00    -0.125 C  
ENDROOT
BRANCH   9  25
HETATM   25  O   UNL     1      -6.002   8.029  68.582  1.00  0.00    -0.037 OA 
BRANCH  25  26
HETATM   26  C   UNL     1      -6.026   6.819  69.218  1.00  0.00    -0.022 C  
HETATM   27  O   UNL     1      -5.190   6.450  70.034  1.00  0.00    -0.013 OA 
BRANCH  26  28
HETATM   28  C   UNL     1      -7.229   5.984  68.918  1.00  0.00    -0.083 C  
HETATM   29  C   UNL     1      -7.851   5.069  71.242  1.00  0.00    -0.101 C  
HETATM   30  C   UNL     1      -7.971   5.252  69.773  1.00  0.00    -0.080 C  
HETATM   31  C   UNL     1      -7.686   6.056  67.477  1.00  0.00    -0.097 C  
ENDBRANCH  26  28
ENDBRANCH  25  26
ENDBRANCH   9  25
BRANCH  16  32
HETATM   32  C   UNL     1      -8.177  10.906  63.808  1.00  0.00     0.214 C  
HETATM   33  H   UNL     1      -8.984  12.530  63.110  1.00  0.00     0.000 HD 
HETATM   34  O   UNL     1      -9.056  12.026  63.912  1.00  0.00     0.275 OA 
ENDBRANCH  16  32
TORSDOF 4
ENDMDL
MODEL      117
REMARK 921   NORMALIZED FREE ENERGY PREDICTED BY IDOCK:    4.86 KCAL/MOL
REMARK 922        TOTAL FREE ENERGY PREDICTED BY IDOCK:    4.87 KCAL/MOL
REMARK 923 INTER-LIGAND FREE ENERGY PREDICTED BY IDOCK:    1.67 KCAL/MOL
REMARK 924 INTRA-LIGAND FREE ENERGY PREDICTED BY IDOCK:    3.20 KCAL/MOL
REMARK 927      BINDING AFFINITY PREDICTED BY RF-SCORE:    0.00 PKD
ROOT
HETATM    1  C   UNL     1      -8.129  13.036  66.535  1.00  0.00     0.514 C  
HETATM    2  C   UNL     1      -8.957  12.382  65.182  1.00  0.00     0.777 C  
HETATM    3  C   UNL     1     -10.489  11.430  65.302  1.00  0.00    -0.340 C  
HETATM    4  C   UNL     1     -10.576  10.471  64.098  1.00  0.00     0.157 C  
HETATM    5  C   UNL     1     -10.849  10.636  66.840  1.00  0.00    -0.267 C  
HETATM    6  C   UNL     1     -11.030   9.159  66.751  1.00  0.00     0.247 C  
HETATM    7  C   UNL     1     -10.074   8.512  67.425  1.00  0.00    -0.298 C  
HETATM    8  C   UNL     1      -9.729   7.077  67.247  1.00  0.00    -0.189 C  
HETATM    9  C   UNL     1      -9.202   9.525  68.143  1.00  0.00    -0.129 C  
HETATM   10  C   UNL     1      -9.481  12.220  69.196  1.00  0.00     0.526 C  
HETATM   11  C   UNL     1      -9.538  11.065  67.254  1.00  0.00    -0.165 C  
HETATM   12  C   UNL     1     -10.659  12.783  67.247  1.00  0.00    -0.233 C  
HETATM   13  C   UNL     1      -8.359  13.104  68.131  1.00  0.00    -0.161 C  
HETATM   14  O   UNL     1      -8.587  10.560  66.222  1.00  0.00    -0.138 OA 
HETATM   15  H   UNL     1      -7.723  10.843  66.495  1.00  0.00     0.000 HD 
HETATM   16  C   UNL     1     -11.096  13.611  68.558  1.00  0.00    -0.301 C  
HETATM   17  O   UNL     1     -10.416  13.891  66.354  1.00  0.00    -0.277 OA 
HETATM   18  C   UNL     1      -6.575  11.419  68.459  1.00  0.00    -0.062 C  
HETATM   19  C   UNL     1     -10.880  11.120  68.579  1.00  0.00    -0.203 C  
HETATM   20  C   UNL     1      -5.760  13.478  67.444  1.00  0.00     0.163 C  
HETATM   21  H   UNL     1     -10.936  14.687  66.351  1.00  0.00     0.000 HD 
HETATM   22  C   UNL     1      -6.997  12.592  67.606  1.00  0.00    -0.140 C  
HETATM   23  O   UNL     1     -11.850  10.830  69.297  1.00  0.00    -0.300 OA 
HETATM   24  C   UNL     1     -10.377  13.311  69.637  1.00  0.00     0.760 C  
ENDROOT
BRANCH   9  25
HETATM   25  O   UNL     1      -9.310   9.407  69.575  1.00  0.00    -0.161 OA 
BRANCH  25  26
HETATM   26  C   UNL     1      -8.874   8.213  70.080  1.00  0.00    -0.145 C  
HETATM   27  O   UNL     1      -9.461   7.572  70.942  1.00  0.00    -0.164 OA 
BRANCH  26  28
HETATM   28  C   UNL     1      -7.645   7.675  69.424  1.00  0.00    -0.095 C  
HETATM   29  C   UNL     1      -6.026   9.670  69.577  1.00  0.00    -0.033 C  
HETATM   30  C   UNL     1      -6.469   8.300  69.212  1.00  0.00    -0.039 C  
HETATM   31  C   UNL     1      -7.743   6.217  69.028  1.00  0.00    -0.096 C  
ENDBRANCH  26  28
ENDBRANCH  25  26
ENDBRANCH   9  25
BRANCH  16  32
HETATM   32  C   UNL     1     -12.306  14.491  68.590  1.00  0.00    -0.004 C  
HETATM   33  H   UNL     1     -14.141  14.354  67.966  1.00  0.00     0.000 HD 
HETATM   34  O   UNL     1     -13.374  13.796  67.946  1.00  0.00     2.467 OA 
ENDBRANCH  16  32
TORSDOF 4
ENDMDL
MODEL      118
REMARK 921   NORMALIZED FREE ENERGY PREDICTED BY IDOCK:    5.28 KCAL/MOL
REMARK 922        TOTAL FREE ENERGY PREDICTED BY IDOCK:    5.38 KCAL/MOL
REMARK 923 INTER-LIGAND FREE ENERGY PREDICTED BY IDOCK:    2.14 KCAL/MOL
REMARK 924 INTRA-LIGAND FREE ENERGY PREDICTED BY IDOCK:    3.24 KCAL/MOL
REMARK 927      BINDING AFFINITY PREDICTED BY RF-SCORE:    0.00 PKD
ROOT
HETATM    1  C   UNL     1      -9.131   7.882  65.706  1.00  0.00    -0.084 C  
HETATM    2  C   UNL     1      -9.933   8.467  64.307  1.00  0.00     3.370 C  
HETATM    3  C   UNL     1      -9.878  10.189  63.760  1.00  0.00    -0.080 C  
HETATM    4  C   UNL     1     -11.159  10.500  62.960  1.00  0.00     1.650 C  
HETATM    5  C   UNL     1      -9.505  11.426  64.967  1.00  0.00    -0.209 C  
HETATM    6  C   UNL     1     -10.548  12.480  65.122  1.00  0.00    -0.322 C  
HETATM    7  C   UNL     1     -11.103  12.437  66.337  1.00  0.00    -0.343 C  
HETATM    8  C   UNL     1     -12.397  13.069  66.704  1.00  0.00    -0.131 C  
HETATM    9  C   UNL     1     -10.386  11.394  67.173  1.00  0.00    -0.212 C  
HETATM   10  C   UNL     1      -7.750  10.172  67.263  1.00  0.00    -0.095 C  
HETATM   11  C   UNL     1      -9.567  10.361  65.933  1.00  0.00    -0.206 C  
HETATM   12  C   UNL     1      -7.813  10.031  64.923  1.00  0.00    -0.141 C  
HETATM   13  C   UNL     1      -8.156   8.489  66.841  1.00  0.00    -0.099 C  
HETATM   14  O   UNL     1     -10.895   9.706  65.748  1.00  0.00     0.314 OA 
HETATM   15  H   UNL     1     -10.936   9.003  66.386  1.00  0.00     0.000 HD 
HETATM   16  C   UNL     1      -6.337  10.205  65.546  1.00  0.00    -0.102 C  
HETATM   17  O   UNL     1      -7.572   8.871  64.098  1.00  0.00    -0.110 OA 
HETATM   18  C   UNL     1     -10.020   8.433  68.469  1.00  0.00    -0.203 C  
HETATM   19  C   UNL     1      -8.243  11.670  66.234  1.00  0.00     0.012 C  
HETATM   20  C   UNL     1      -9.405   6.221  67.655  1.00  0.00    -0.116 C  
HETATM   21  H   UNL     1      -6.759   8.719  63.630  1.00  0.00     0.000 HD 
HETATM   22  C   UNL     1      -9.413   7.707  67.292  1.00  0.00    -0.185 C  
HETATM   23  O   UNL     1      -7.649  12.755  66.333  1.00  0.00     0.584 OA 
HETATM   24  C   UNL     1      -6.324  10.228  66.876  1.00  0.00    -0.069 C  
ENDROOT
BRANCH   9  25
HETATM   25  O   UNL     1      -9.687  11.987  68.285  1.00  0.00    -0.197 OA 
BRANCH  25  26
HETATM   26  C   UNL     1      -9.559  11.170  69.374  1.00  0.00     0.217 C  
HETATM   27  O   UNL     1      -8.502  10.680  69.750  1.00  0.00    -0.002 OA 
BRANCH  26  28
HETATM   28  C   UNL     1     -10.816  10.985  70.160  1.00  0.00     0.046 C  
HETATM   29  C   UNL     1     -12.174  13.076  69.520  1.00  0.00    -0.198 C  
HETATM   30  C   UNL     1     -11.891  11.795  70.218  1.00  0.00    -0.382 C  
HETATM   31  C   UNL     1     -10.885   9.674  70.914  1.00  0.00    -0.409 C  
ENDBRANCH  26  28
ENDBRANCH  25  26
ENDBRANCH   9  25
BRANCH  16  32
HETATM   32  C   UNL     1      -5.134  10.491  64.702  1.00  0.00    -0.148 C  
HETATM   33  H   UNL     1      -4.819  11.270  62.950  1.00  0.00     0.000 HD 
HETATM   34  O   UNL     1      -5.582  11.089  63.485  1.00  0.00    -0.007 OA 
ENDBRANCH  16  32
TORSDOF 4
ENDMDL
MODEL      119
REMARK 921   NORMALIZED FREE ENERGY PREDICTED BY IDOCK:    5.53 KCAL/MOL
REMARK 922        TOTAL FREE ENERGY PREDICTED BY IDOCK:    5.70 KCAL/MOL
REMARK 923 INTER-LIGAND FREE ENERGY PREDICTED BY IDOCK:    2.37 KCAL/MOL
REMARK 924 INTRA-LIGAND FREE ENERGY PREDICTED BY IDOCK:    3.33 KCAL/MOL
REMARK 927      BINDING AFFINITY PREDICTED BY RF-SCORE:    0.00 PKD
ROOT
HETATM    1  C   UNL     1     -10.338   3.883  69.095  1.00  0.00     0.980 C  
HETATM    2  C   UNL     1     -10.857   3.821  67.461  1.00  0.00     3.088 C  
HETATM    3  C   UNL     1      -9.874   4.423  66.069  1.00  0.00    -0.241 C  
HETATM    4  C   UNL     1     -10.826   4.842  64.930  1.00  0.00     0.436 C  
HETATM    5  C   UNL     1      -8.627   5.632  66.400  1.00  0.00    -0.123 C  
HETATM    6  C   UNL     1      -8.779   6.907  65.643  1.00  0.00    -0.086 C  
HETATM    7  C   UNL     1      -9.024   7.932  66.466  1.00  0.00    -0.192 C  
HETATM    8  C   UNL     1      -9.587   9.243  66.048  1.00  0.00    -0.338 C  
HETATM    9  C   UNL     1      -8.945   7.446  67.901  1.00  0.00    -0.131 C  
HETATM   10  C   UNL     1      -7.611   5.320  69.366  1.00  0.00    -0.069 C  
HETATM   11  C   UNL     1      -9.147   5.655  67.742  1.00  0.00    -0.106 C  
HETATM   12  C   UNL     1      -8.156   3.864  67.609  1.00  0.00    -0.090 C  
HETATM   13  C   UNL     1      -9.014   4.354  69.889  1.00  0.00    -0.147 C  
HETATM   14  O   UNL     1     -10.608   5.931  67.621  1.00  0.00    -0.220 OA 
HETATM   15  H   UNL     1     -10.950   5.946  68.507  1.00  0.00     0.000 HD 
HETATM   16  C   UNL     1      -6.791   3.498  68.385  1.00  0.00    -0.046 C  
HETATM   17  O   UNL     1      -8.811   2.580  67.693  1.00  0.00    -0.108 OA 
HETATM   18  C   UNL     1     -10.213   6.365  70.694  1.00  0.00    -0.229 C  
HETATM   19  C   UNL     1      -7.274   5.816  67.581  1.00  0.00    -0.076 C  
HETATM   20  C   UNL     1     -11.207   4.286  71.485  1.00  0.00     1.368 C  
HETATM   21  H   UNL     1      -8.352   1.750  67.631  1.00  0.00     0.000 HD 
HETATM   22  C   UNL     1     -10.384   4.902  70.354  1.00  0.00    -0.248 C  
HETATM   23  O   UNL     1      -6.142   6.146  67.195  1.00  0.00    -0.020 OA 
HETATM   24  C   UNL     1      -6.533   4.307  69.410  1.00  0.00    -0.033 C  
ENDROOT
BRANCH   9  25
HETATM   25  O   UNL     1      -7.848   8.051  68.612  1.00  0.00    -0.113 OA 
BRANCH  25  26
HETATM   26  C   UNL     1      -7.434   9.251  68.103  1.00  0.00    -0.083 C  
HETATM   27  O   UNL     1      -6.356   9.433  67.552  1.00  0.00    -0.060 OA 
BRANCH  26  28
HETATM   28  C   UNL     1      -8.454  10.341  68.177  1.00  0.00    -0.123 C  
HETATM   29  C   UNL     1     -10.091   9.436  69.946  1.00  0.00    -0.243 C  
HETATM   30  C   UNL     1      -9.562  10.396  68.944  1.00  0.00    -0.197 C  
HETATM   31  C   UNL     1      -8.128  11.551  67.328  1.00  0.00    -0.153 C  
ENDBRANCH  26  28
ENDBRANCH  25  26
ENDBRANCH   9  25
BRANCH  16  32
HETATM   32  C   UNL     1      -5.831   2.466  67.885  1.00  0.00    -0.020 C  
HETATM   33  H   UNL     1      -4.606   1.196  68.700  1.00  0.00     0.000 HD 
HETATM   34  O   UNL     1      -5.216   1.851  69.017  1.00  0.00    -0.011 OA 
ENDBRANCH  16  32
TORSDOF 4
ENDMDL
MODEL      120
REMARK 921   NORMALIZED FREE ENERGY PREDICTED BY IDOCK:    6.32 KCAL/MOL
REMARK 922        TOTAL FREE ENERGY PREDICTED BY IDOCK:    6.67 KCAL/MOL
REMARK 923 INTER-LIGAND FREE ENERGY PREDICTED BY IDOCK:    3.25 KCAL/MOL
REMARK 924 INTRA-LIGAND FREE ENERGY PREDICTED BY IDOCK:    3.41 KCAL/MOL
REMARK 927      BINDING AFFINITY PREDICTED BY RF-SCORE:    0.00 PKD
ROOT
HETATM    1  C   UNL     1     -10.509   9.070  67.495  1.00  0.00    -0.338 C  
HETATM    2  C   UNL     1      -9.068   9.558  66.701  1.00  0.00    -0.179 C  
HETATM    3  C   UNL     1      -7.769   8.415  66.180  1.00  0.00    -0.097 C  
HETATM    4  C   UNL     1      -6.423   9.168  66.151  1.00  0.00    -0.065 C  
HETATM    5  C   UNL     1      -7.664   6.854  67.003  1.00  0.00    -0.103 C  
HETATM    6  C   UNL     1      -6.353   6.582  67.659  1.00  0.00    -0.043 C  
HETATM    7  C   UNL     1      -6.483   6.501  68.987  1.00  0.00    -0.043 C  
HETATM    8  C   UNL     1      -5.365   6.614  69.960  1.00  0.00    -0.014 C  
HETATM    9  C   UNL     1      -7.953   6.601  69.348  1.00  0.00    -0.115 C  
HETATM   10  C   UNL     1     -10.507   6.032  68.083  1.00  0.00    -0.292 C  
HETATM   11  C   UNL     1      -8.689   7.359  67.879  1.00  0.00    -0.123 C  
HETATM   12  C   UNL     1      -9.664   6.985  66.113  1.00  0.00     0.115 C  
HETATM   13  C   UNL     1     -11.181   7.676  67.955  1.00  0.00     0.375 C  
HETATM   14  O   UNL     1      -8.181   8.655  68.415  1.00  0.00    -0.119 OA 
HETATM   15  H   UNL     1      -8.857   8.988  68.992  1.00  0.00     0.000 HD 
HETATM   16  C   UNL     1     -10.751   5.818  65.882  1.00  0.00     0.371 C  
HETATM   17  O   UNL     1     -10.265   8.015  65.299  1.00  0.00     1.119 OA 
HETATM   18  C   UNL     1     -10.624   8.188  70.312  1.00  0.00    -0.228 C  
HETATM   19  C   UNL     1      -8.812   5.530  67.435  1.00  0.00    -0.105 C  
HETATM   20  C   UNL     1     -12.162   9.801  69.329  1.00  0.00     0.845 C  
HETATM   21  H   UNL     1     -10.716   7.841  64.480  1.00  0.00     0.000 HD 
HETATM   22  C   UNL     1     -11.046   8.808  69.001  1.00  0.00     0.164 C  
HETATM   23  O   UNL     1      -8.527   4.345  67.197  1.00  0.00    -0.104 OA 
HETATM   24  C   UNL     1     -11.253   5.332  67.014  1.00  0.00     0.841 C  
ENDROOT
BRANCH   9  25
HETATM   25  O   UNL     1      -8.446   5.380  69.931  1.00  0.00    -0.101 OA 
BRANCH  25  26
HETATM   26  C   UNL     1      -8.215   5.258  71.273  1.00  0.00    -0.119 C  
HETATM   27  O   UNL     1      -9.084   5.043  72.108  1.00  0.00    -0.130 OA 
BRANCH  26  28
HETATM   28  C   UNL     1      -6.772   5.309  71.660  1.00  0.00    -0.048 C  
HETATM   29  C   UNL     1      -5.857   3.129  70.643  1.00  0.00    -0.017 C  
HETATM   30  C   UNL     1      -5.806   4.407  71.398  1.00  0.00    -0.016 C  
HETATM   31  C   UNL     1      -6.367   6.585  72.367  1.00  0.00    -0.054 C  
ENDBRANCH  26  28
ENDBRANCH  25  26
ENDBRANCH   9  25
BRANCH  16  32
HETATM   32  C   UNL     1     -11.027   5.228  64.535  1.00  0.00     2.067 C  
HETATM   33  H   UNL     1     -11.227   3.432  63.819  1.00  0.00     0.000 HD 
HETATM   34  O   UNL     1     -11.052   3.807  64.674  1.00  0.00    -0.190 OA 
ENDBRANCH  16  32
TORSDOF 4
ENDMDL
MODEL      121
REMARK 921   NORMALIZED FREE ENERGY PREDICTED BY IDOCK:    7.21 KCAL/MOL
REMARK 922        TOTAL FREE ENERGY PREDICTED BY IDOCK:    7.77 KCAL/MOL
REMARK 923 INTER-LIGAND FREE ENERGY PREDICTED BY IDOCK:    7.04 KCAL/MOL
REMARK 924 INTRA-LIGAND FREE ENERGY PREDICTED BY IDOCK:    0.72 KCAL/MOL
REMARK 927      BINDING AFFINITY PREDICTED BY RF-SCORE:    0.00 PKD
ROOT
HETATM    1  C   UNL     1      -7.613  12.169  68.231  1.00  0.00    -0.132 C  
HETATM    2  C   UNL     1      -6.723  12.798  69.556  1.00  0.00     0.032 C  
HETATM    3  C   UNL     1      -7.122  14.350  70.392  1.00  0.00     0.393 C  
HETATM    4  C   UNL     1      -5.834  14.931  71.008  1.00  0.00    -0.010 C  
HETATM    5  C   UNL     1      -8.057  15.553  69.495  1.00  0.00    -0.202 C  
HETATM    6  C   UNL     1      -7.391  16.879  69.352  1.00  0.00    -0.043 C  
HETATM    7  C   UNL     1      -7.112  17.145  68.072  1.00  0.00    -0.179 C  
HETATM    8  C   UNL     1      -6.141  18.171  67.608  1.00  0.00    -0.169 C  
HETATM    9  C   UNL     1      -7.682  16.042  67.201  1.00  0.00    -0.207 C  
HETATM   10  C   UNL     1      -9.851  14.113  67.343  1.00  0.00    -0.239 C  
HETATM   11  C   UNL     1      -7.915  14.675  68.364  1.00  0.00    -0.137 C  
HETATM   12  C   UNL     1      -9.265  13.724  69.581  1.00  0.00     1.306 C  
HETATM   13  C   UNL     1      -8.930  12.589  67.396  1.00  0.00    -0.188 C  
HETATM   14  O   UNL     1      -6.452  14.426  68.208  1.00  0.00    -0.094 OA 
HETATM   15  H   UNL     1      -6.359  13.846  67.462  1.00  0.00     0.000 HD 
HETATM   16  C   UNL     1     -10.830  13.525  69.252  1.00  0.00    -0.107 C  
HETATM   17  O   UNL     1      -9.008  12.457  70.222  1.00  0.00     3.065 OA 
HETATM   18  C   UNL     1      -7.503  13.278  65.494  1.00  0.00     5.767 C  
HETATM   19  C   UNL     1      -9.574  15.558  68.517  1.00  0.00    -0.203 C  
HETATM   20  C   UNL     1      -7.318  10.904  66.007  1.00  0.00    -0.081 C  
HETATM   21  H   UNL     1      -9.634  12.017  70.786  1.00  0.00     0.000 HD 
HETATM   22  C   UNL     1      -7.633  12.272  66.614  1.00  0.00     0.214 C  
HETATM   23  O   UNL     1     -10.444  16.423  68.707  1.00  0.00    -0.262 OA 
HETATM   24  C   UNL     1     -11.127  13.698  67.967  1.00  0.00    -0.285 C  
ENDROOT
BRANCH   9  25
HETATM   25  O   UNL     1      -8.731  16.526  66.340  1.00  0.00    -0.265 OA 
BRANCH  25  26
HETATM   26  C   UNL     1      -8.748  17.883  66.176  1.00  0.00    -0.088 C  
HETATM   27  O   UNL     1      -7.918  18.513  65.534  1.00  0.00    -0.369 OA 
BRANCH  26  28
HETATM   28  C   UNL     1      -9.938  18.564  66.770  1.00  0.00    -0.381 C  
HETATM   29  C   UNL     1      -8.854  20.237  68.398  1.00  0.00     0.073 C  
HETATM   30  C   UNL     1      -9.964  19.536  67.704  1.00  0.00    -0.498 C  
HETATM   31  C   UNL     1     -11.260  18.136  66.167  1.00  0.00     0.846 C  
ENDBRANCH  26  28
ENDBRANCH  25  26
ENDBRANCH   9  25
BRANCH  16  32
HETATM   32  C   UNL     1     -11.861  13.340  70.321  1.00  0.00    -0.234 C  
HETATM   33  H   UNL     1     -12.522  11.844  71.371  1.00  0.00     0.000 HD 
HETATM   34  O   UNL     1     -11.868  11.962  70.693  1.00  0.00    -0.280 OA 
ENDBRANCH  16  32
TORSDOF 4
ENDMDL
MODEL      122
REMARK 921   NORMALIZED FREE ENERGY PREDICTED BY IDOCK:    7.71 KCAL/MOL
REMARK 922        TOTAL FREE ENERGY PREDICTED BY IDOCK:    8.38 KCAL/MOL
REMARK 923 INTER-LIGAND FREE ENERGY PREDICTED BY IDOCK:    3.48 KCAL/MOL
REMARK 924 INTRA-LIGAND FREE ENERGY PREDICTED BY IDOCK:    4.90 KCAL/MOL
REMARK 927      BINDING AFFINITY PREDICTED BY RF-SCORE:    0.00 PKD
ROOT
HETATM    1  C   UNL     1     -10.238  13.994  70.075  1.00  0.00     0.959 C  
HETATM    2  C   UNL     1      -9.148  12.669  70.069  1.00  0.00     3.572 C  
HETATM    3  C   UNL     1      -7.829  12.455  68.852  1.00  0.00     0.110 C  
HETATM    4  C   UNL     1      -7.522  10.951  68.708  1.00  0.00    -0.112 C  
HETATM    5  C   UNL     1      -8.002  13.273  67.294  1.00  0.00    -0.134 C  
HETATM    6  C   UNL     1      -7.974  12.369  66.110  1.00  0.00     0.814 C  
HETATM    7  C   UNL     1      -9.147  12.373  65.468  1.00  0.00     0.333 C  
HETATM    8  C   UNL     1      -9.590  11.339  64.498  1.00  0.00    -0.260 C  
HETATM    9  C   UNL     1     -10.061  13.396  66.115  1.00  0.00    -0.302 C  
HETATM   10  C   UNL     1      -9.778  15.852  67.643  1.00  0.00    -0.223 C  
HETATM   11  C   UNL     1      -9.318  13.642  67.747  1.00  0.00    -0.218 C  
HETATM   12  C   UNL     1      -8.050  14.819  68.849  1.00  0.00    -0.160 C  
HETATM   13  C   UNL     1     -10.452  15.341  69.211  1.00  0.00    -0.258 C  
HETATM   14  O   UNL     1      -9.998  12.373  68.137  1.00  0.00    -0.204 OA 
HETATM   15  H   UNL     1     -10.866  12.616  68.436  1.00  0.00     0.000 HD 
HETATM   16  C   UNL     1      -7.901  16.417  68.697  1.00  0.00    -0.211 C  
HETATM   17  O   UNL     1      -7.908  14.718  70.282  1.00  0.00    -0.261 OA 
HETATM   18  C   UNL     1     -12.438  14.331  68.131  1.00  0.00     0.215 C  
HETATM   19  C   UNL     1      -8.399  14.944  66.738  1.00  0.00    -0.123 C  
HETATM   20  C   UNL     1     -12.699  14.594  70.538  1.00  0.00    -0.394 C  
HETATM   21  H   UNL     1      -7.320  15.263  70.792  1.00  0.00     0.000 HD 
HETATM   22  C   UNL     1     -11.665  14.405  69.427  1.00  0.00    -0.362 C  
HETATM   23  O   UNL     1      -7.705  15.502  65.874  1.00  0.00     0.984 OA 
HETATM   24  C   UNL     1      -8.920  16.985  68.056  1.00  0.00    -0.230 C  
ENDROOT
BRANCH   9  25
HETATM   25  O   UNL     1     -10.368  14.484  65.221  1.00  0.00    -0.358 OA 
BRANCH  25  26
HETATM   26  C   UNL     1     -11.622  14.436  64.679  1.00  0.00    -0.409 C  
HETATM   27  O   UNL     1     -11.992  15.118  63.732  1.00  0.00    -0.333 OA 
BRANCH  26  28
HETATM   28  C   UNL     1     -12.515  13.396  65.274  1.00  0.00    -0.532 C  
HETATM   29  C   UNL     1     -11.850  11.288  63.954  1.00  0.00     0.252 C  
HETATM   30  C   UNL     1     -12.604  12.090  64.951  1.00  0.00     0.112 C  
HETATM   31  C   UNL     1     -13.354  13.890  66.432  1.00  0.00     1.714 C  
ENDBRANCH  26  28
ENDBRANCH  25  26
ENDBRANCH   9  25
BRANCH  16  32
HETATM   32  C   UNL     1      -6.655  17.150  69.082  1.00  0.00    -0.231 C  
HETATM   33  H   UNL     1      -6.203  18.990  69.518  1.00  0.00     0.000 HD 
HETATM   34  O   UNL     1      -6.994  18.524  69.273  1.00  0.00    -0.267 OA 
ENDBRANCH  16  32
TORSDOF 4
ENDMDL
MODEL      123
REMARK 921   NORMALIZED FREE ENERGY PREDICTED BY IDOCK:    7.82 KCAL/MOL
REMARK 922        TOTAL FREE ENERGY PREDICTED BY IDOCK:    8.51 KCAL/MOL
REMARK 923 INTER-LIGAND FREE ENERGY PREDICTED BY IDOCK:    5.82 KCAL/MOL
REMARK 924 INTRA-LIGAND FREE ENERGY PREDICTED BY IDOCK:    2.69 KCAL/MOL
REMARK 927      BINDING AFFINITY PREDICTED BY RF-SCORE:    0.00 PKD
ROOT
HETATM    1  C   UNL     1      -6.735   7.672  69.482  1.00  0.00    -0.036 C  
HETATM    2  C   UNL     1      -7.505   6.417  68.600  1.00  0.00    -0.088 C  
HETATM    3  C   UNL     1      -8.629   6.704  67.213  1.00  0.00    -0.119 C  
HETATM    4  C   UNL     1      -9.613   5.520  67.115  1.00  0.00    -0.140 C  
HETATM    5  C   UNL     1      -9.434   8.275  67.114  1.00  0.00    -0.206 C  
HETATM    6  C   UNL     1     -10.923   8.212  67.102  1.00  0.00     0.093 C  
HETATM    7  C   UNL     1     -11.441   8.784  68.194  1.00  0.00     1.093 C  
HETATM    8  C   UNL     1     -12.828   8.577  68.686  1.00  0.00     7.501 C  
HETATM    9  C   UNL     1     -10.320   9.401  69.009  1.00  0.00    -0.210 C  
HETATM   10  C   UNL     1      -7.659  10.465  68.522  1.00  0.00    -0.095 C  
HETATM   11  C   UNL     1      -8.846   8.545  68.400  1.00  0.00    -0.139 C  
HETATM   12  C   UNL     1      -7.273   8.649  67.088  1.00  0.00    -0.076 C  
HETATM   13  C   UNL     1      -6.667   9.283  69.413  1.00  0.00    -0.048 C  
HETATM   14  O   UNL     1      -9.253   7.420  69.291  1.00  0.00    -0.148 OA 
HETATM   15  H   UNL     1      -8.865   7.599  70.140  1.00  0.00     0.000 HD 
HETATM   16  C   UNL     1      -6.480   9.996  66.695  1.00  0.00    -0.072 C  
HETATM   17  O   UNL     1      -6.159   7.731  67.102  1.00  0.00    -0.049 OA 
HETATM   18  C   UNL     1      -8.124   9.427  71.410  1.00  0.00     0.313 C  
HETATM   19  C   UNL     1      -8.927  10.005  67.208  1.00  0.00    -0.135 C  
HETATM   20  C   UNL     1      -6.001   8.322  71.862  1.00  0.00    -0.044 C  
HETATM   21  H   UNL     1      -5.430   7.779  66.494  1.00  0.00     0.000 HD 
HETATM   22  C   UNL     1      -7.024   8.618  70.764  1.00  0.00    -0.059 C  
HETATM   23  O   UNL     1      -9.317  10.823  66.360  1.00  0.00    -0.167 OA 
HETATM   24  C   UNL     1      -6.674  10.993  67.553  1.00  0.00    -0.072 C  
ENDROOT
BRANCH   9  25
HETATM   25  O   UNL     1     -10.426  10.836  69.066  1.00  0.00    -0.194 OA 
BRANCH  25  26
HETATM   26  C   UNL     1     -11.704  11.306  69.191  1.00  0.00    -0.341 C  
HETATM   27  O   UNL     1     -12.703  10.599  69.201  1.00  0.00    -0.160 OA 
BRANCH  26  28
HETATM   28  C   UNL     1     -11.802  12.780  69.419  1.00  0.00    -0.359 C  
HETATM   29  C   UNL     1      -9.847  13.683  68.010  1.00  0.00    -0.244 C  
HETATM   30  C   UNL     1     -11.013  13.755  68.928  1.00  0.00    -0.281 C  
HETATM   31  C   UNL     1     -12.998  13.198  70.250  1.00  0.00     0.300 C  
ENDBRANCH  26  28
ENDBRANCH  25  26
ENDBRANCH   9  25
BRANCH  16  32
HETATM   32  C   UNL     1      -5.748  10.151  65.399  1.00  0.00    -0.091 C  
HETATM   33  H   UNL     1      -6.142  10.936  63.665  1.00  0.00     0.000 HD 
HETATM   34  O   UNL     1      -6.607  10.837  64.488  1.00  0.00     0.095 OA 
ENDBRANCH  16  32
TORSDOF 4
ENDMDL
MODEL      124
REMARK 921   NORMALIZED FREE ENERGY PREDICTED BY IDOCK:    8.28 KCAL/MOL
REMARK 922        TOTAL FREE ENERGY PREDICTED BY IDOCK:    9.09 KCAL/MOL
REMARK 923 INTER-LIGAND FREE ENERGY PREDICTED BY IDOCK:    8.37 KCAL/MOL
REMARK 924 INTRA-LIGAND FREE ENERGY PREDICTED BY IDOCK:    0.72 KCAL/MOL
REMARK 927      BINDING AFFINITY PREDICTED BY RF-SCORE:    0.00 PKD
ROOT
HETATM    1  C   UNL     1      -6.100  18.438  65.097  1.00  0.00    -0.218 C  
HETATM    2  C   UNL     1      -5.525  16.948  65.723  1.00  0.00     1.148 C  
HETATM    3  C   UNL     1      -6.226  16.125  67.172  1.00  0.00    -0.135 C  
HETATM    4  C   UNL     1      -5.133  15.263  67.834  1.00  0.00    -0.110 C  
HETATM    5  C   UNL     1      -7.116  17.117  68.333  1.00  0.00    -0.206 C  
HETATM    6  C   UNL     1      -6.581  17.078  69.724  1.00  0.00    -0.019 C  
HETATM    7  C   UNL     1      -6.115  18.274  70.098  1.00  0.00    -0.053 C  
HETATM    8  C   UNL     1      -5.195  18.510  71.241  1.00  0.00    -0.267 C  
HETATM    9  C   UNL     1      -6.405  19.283  69.003  1.00  0.00    -0.273 C  
HETATM   10  C   UNL     1      -8.347  19.619  66.867  1.00  0.00    -0.333 C  
HETATM   11  C   UNL     1      -6.687  18.245  67.548  1.00  0.00    -0.193 C  
HETATM   12  C   UNL     1      -8.117  17.333  66.394  1.00  0.00    -0.293 C  
HETATM   13  C   UNL     1      -7.290  19.473  65.439  1.00  0.00    -0.037 C  
HETATM   14  O   UNL     1      -5.201  18.148  67.453  1.00  0.00    -0.135 OA 
HETATM   15  H   UNL     1      -4.919  18.892  66.934  1.00  0.00     0.000 HD 
HETATM   16  C   UNL     1      -9.571  17.944  66.064  1.00  0.00    -0.100 C  
HETATM   17  O   UNL     1      -7.840  16.715  65.119  1.00  0.00     1.585 OA 
HETATM   18  C   UNL     1      -5.639  21.057  66.385  1.00  0.00    -0.271 C  
HETATM   19  C   UNL     1      -8.433  18.349  68.254  1.00  0.00    -0.303 C  
HETATM   20  C   UNL     1      -5.292  20.629  64.013  1.00  0.00    -0.234 C  
HETATM   21  H   UNL     1      -8.503  16.293  64.584  1.00  0.00     0.000 HD 
HETATM   22  C   UNL     1      -5.852  20.026  65.301  1.00  0.00    -0.225 C  
HETATM   23  O   UNL     1      -9.410  18.277  69.016  1.00  0.00    -0.222 OA 
HETATM   24  C   UNL     1      -9.659  19.252  66.290  1.00  0.00    -0.411 C  
ENDROOT
BRANCH   9  25
HETATM   25  O   UNL     1      -7.335  20.294  69.437  1.00  0.00    -0.009 OA 
BRANCH  25  26
HETATM   26  C   UNL     1      -7.268  20.591  70.770  1.00  0.00     1.332 C  
HETATM   27  O   UNL     1      -6.278  21.047  71.328  1.00  0.00    -0.003 OA 
BRANCH  26  28
HETATM   28  C   UNL     1      -8.553  20.409  71.511  1.00  0.00     2.176 C  
HETATM   29  C   UNL     1     -10.302  21.062  69.739  1.00  0.00     1.086 C  
HETATM   30  C   UNL     1      -9.809  20.621  71.069  1.00  0.00     2.137 C  
HETATM   31  C   UNL     1      -8.387  19.840  72.905  1.00  0.00     3.959 C  
ENDBRANCH  26  28
ENDBRANCH  25  26
ENDBRANCH   9  25
BRANCH  16  32
HETATM   32  C   UNL     1     -10.745  17.086  65.712  1.00  0.00    -0.142 C  
HETATM   33  H   UNL     1     -11.989  16.975  64.222  1.00  0.00     0.000 HD 
HETATM   34  O   UNL     1     -11.244  17.520  64.447  1.00  0.00    -0.860 OA 
ENDBRANCH  16  32
TORSDOF 4
ENDMDL
MODEL      125
REMARK 921   NORMALIZED FREE ENERGY PREDICTED BY IDOCK:   11.09 KCAL/MOL
REMARK 922        TOTAL FREE ENERGY PREDICTED BY IDOCK:   12.55 KCAL/MOL
REMARK 923 INTER-LIGAND FREE ENERGY PREDICTED BY IDOCK:    6.03 KCAL/MOL
REMARK 924 INTRA-LIGAND FREE ENERGY PREDICTED BY IDOCK:    6.52 KCAL/MOL
REMARK 927      BINDING AFFINITY PREDICTED BY RF-SCORE:    0.00 PKD
ROOT
HETATM    1  C   UNL     1      -8.293  15.595  66.219  1.00  0.00    -0.092 C  
HETATM    2  C   UNL     1      -7.895  17.137  65.581  1.00  0.00     0.609 C  
HETATM    3  C   UNL     1      -7.675  18.619  66.592  1.00  0.00    -0.265 C  
HETATM    4  C   UNL     1      -8.002  19.860  65.737  1.00  0.00    -0.198 C  
HETATM    5  C   UNL     1      -8.448  18.657  68.181  1.00  0.00    -0.336 C  
HETATM    6  C   UNL     1      -9.398  19.788  68.385  1.00  0.00    -0.396 C  
HETATM    7  C   UNL     1     -10.649  19.347  68.545  1.00  0.00    -0.116 C  
HETATM    8  C   UNL     1     -11.871  20.181  68.398  1.00  0.00     3.036 C  
HETATM    9  C   UNL     1     -10.640  17.830  68.577  1.00  0.00    -0.255 C  
HETATM   10  C   UNL     1      -8.767  15.720  69.275  1.00  0.00    -0.261 C  
HETATM   11  C   UNL     1      -9.059  17.410  67.803  1.00  0.00    -0.243 C  
HETATM   12  C   UNL     1      -7.097  16.930  68.158  1.00  0.00    -0.165 C  
HETATM   13  C   UNL     1      -8.529  14.956  67.683  1.00  0.00    -0.176 C  
HETATM   14  O   UNL     1      -9.745  17.657  66.502  1.00  0.00    -0.280 OA 
HETATM   15  H   UNL     1     -10.148  16.834  66.253  1.00  0.00     0.000 HD 
HETATM   16  C   UNL     1      -6.568  16.038  69.391  1.00  0.00    -0.182 C  
HETATM   17  O   UNL     1      -6.192  16.457  67.137  1.00  0.00    -0.167 OA 
HETATM   18  C   UNL     1     -10.966  14.876  67.254  1.00  0.00    -0.323 C  
HETATM   19  C   UNL     1      -8.540  17.559  69.611  1.00  0.00     0.987 C  
HETATM   20  C   UNL     1      -9.686  13.489  65.715  1.00  0.00    -0.156 C  
HETATM   21  H   UNL     1      -5.283  16.235  67.301  1.00  0.00     0.000 HD 
HETATM   22  C   UNL     1      -9.611  14.733  66.600  1.00  0.00    -0.289 C  
HETATM   23  O   UNL     1      -8.343  17.996  70.755  1.00  0.00     4.377 OA 
HETATM   24  C   UNL     1      -7.525  15.320  69.973  1.00  0.00     0.083 C  
ENDROOT
BRANCH   9  25
HETATM   25  O   UNL     1     -11.044  17.319  69.862  1.00  0.00     0.254 OA 
BRANCH  25  26
HETATM   26  C   UNL     1     -11.905  16.258  69.805  1.00  0.00     0.026 C  
HETATM   27  O   UNL     1     -13.076  16.335  69.456  1.00  0.00     0.699 OA 
BRANCH  26  28
HETATM   28  C   UNL     1     -11.280  14.936  70.114  1.00  0.00    -0.275 C  
HETATM   29  C   UNL     1     -12.139  13.463  68.186  1.00  0.00    -0.267 C  
HETATM   30  C   UNL     1     -11.398  13.778  69.434  1.00  0.00    -0.306 C  
HETATM   31  C   UNL     1     -10.343  14.958  71.303  1.00  0.00     1.090 C  
ENDBRANCH  26  28
ENDBRANCH  25  26
ENDBRANCH   9  25
BRANCH  16  32
HETATM   32  C   UNL     1      -5.177  16.150  69.930  1.00  0.00    -0.134 C  
HETATM   33  H   UNL     1      -4.255  17.337  71.164  1.00  0.00     0.000 HD 
HETATM   34  O   UNL     1      -5.139  17.265  70.822  1.00  0.00    -0.245 OA 
ENDBRANCH  16  32
TORSDOF 4
ENDMDL
MODEL      126
REMARK 921   NORMALIZED FREE ENERGY PREDICTED BY IDOCK:   14.61 KCAL/MOL
REMARK 922        TOTAL FREE ENERGY PREDICTED BY IDOCK:   16.90 KCAL/MOL
REMARK 923 INTER-LIGAND FREE ENERGY PREDICTED BY IDOCK:   13.25 KCAL/MOL
REMARK 924 INTRA-LIGAND FREE ENERGY PREDICTED BY IDOCK:    3.65 KCAL/MOL
REMARK 927      BINDING AFFINITY PREDICTED BY RF-SCORE:    0.00 PKD
ROOT
HETATM    1  C   UNL     1      -7.659  11.042  68.539  1.00  0.00    -0.114 C  
HETATM    2  C   UNL     1      -8.385  11.958  69.795  1.00  0.00     1.737 C  
HETATM    3  C   UNL     1     -10.158  11.956  70.147  1.00  0.00     2.278 C  
HETATM    4  C   UNL     1     -10.539  13.299  70.802  1.00  0.00     3.370 C  
HETATM    5  C   UNL     1     -11.258  11.492  68.843  1.00  0.00    -0.308 C  
HETATM    6  C   UNL     1     -12.273  12.524  68.488  1.00  0.00     0.066 C  
HETATM    7  C   UNL     1     -12.087  12.978  67.245  1.00  0.00    -0.304 C  
HETATM    8  C   UNL     1     -12.657  14.241  66.706  1.00  0.00     0.055 C  
HETATM    9  C   UNL     1     -10.968  12.190  66.591  1.00  0.00    -0.282 C  
HETATM   10  C   UNL     1      -9.780   9.550  66.851  1.00  0.00    -0.237 C  
HETATM   11  C   UNL     1     -10.091  11.470  68.001  1.00  0.00    -0.186 C  
HETATM   12  C   UNL     1      -9.900   9.803  69.180  1.00  0.00    -0.188 C  
HETATM   13  C   UNL     1      -8.149   9.981  67.426  1.00  0.00    -0.114 C  
HETATM   14  O   UNL     1      -9.442  12.805  68.150  1.00  0.00    -0.210 OA 
HETATM   15  H   UNL     1      -8.672  12.791  67.595  1.00  0.00     0.000 HD 
HETATM   16  C   UNL     1     -10.024   8.281  68.662  1.00  0.00    -0.203 C  
HETATM   17  O   UNL     1      -8.843   9.624  70.146  1.00  0.00    -0.213 OA 
HETATM   18  C   UNL     1      -7.886  11.706  65.669  1.00  0.00     0.676 C  
HETATM   19  C   UNL     1     -11.376  10.132  67.662  1.00  0.00     0.078 C  
HETATM   20  C   UNL     1      -5.788  11.148  66.773  1.00  0.00    -0.111 C  
HETATM   21  H   UNL     1      -8.755   8.851  70.692  1.00  0.00     0.000 HD 
HETATM   22  C   UNL     1      -7.304  11.193  66.965  1.00  0.00    -0.128 C  
HETATM   23  O   UNL     1     -12.452   9.537  67.490  1.00  0.00     4.446 OA 
HETATM   24  C   UNL     1      -9.899   8.160  67.343  1.00  0.00    -0.242 C  
ENDROOT
BRANCH   9  25
HETATM   25  O   UNL     1     -11.442  11.405  65.479  1.00  0.00    -0.099 OA 
BRANCH  25  26
HETATM   26  C   UNL     1     -12.085  12.125  64.511  1.00  0.00    -0.334 C  
HETATM   27  O   UNL     1     -13.143  11.793  63.991  1.00  0.00    -0.487 OA 
BRANCH  26  28
HETATM   28  C   UNL     1     -11.444  13.434  64.183  1.00  0.00    -0.421 C  
HETATM   29  C   UNL     1     -13.007  14.366  62.362  1.00  0.00     4.351 C  
HETATM   30  C   UNL     1     -11.836  14.351  63.276  1.00  0.00     1.098 C  
HETATM   31  C   UNL     1     -10.252  13.773  65.053  1.00  0.00    -0.370 C  
ENDBRANCH  26  28
ENDBRANCH  25  26
ENDBRANCH   9  25
BRANCH  16  32
HETATM   32  C   UNL     1     -10.418   7.153  69.562  1.00  0.00    -0.225 C  
HETATM   33  H   UNL     1      -9.918   5.284  69.749  1.00  0.00     0.000 HD 
HETATM   34  O   UNL     1      -9.668   6.000  69.177  1.00  0.00    -0.132 OA 
ENDBRANCH  16  32
TORSDOF 4
ENDMDL
MODEL      127
REMARK 921   NORMALIZED FREE ENERGY PREDICTED BY IDOCK:   16.15 KCAL/MOL
REMARK 922        TOTAL FREE ENERGY PREDICTED BY IDOCK:   18.79 KCAL/MOL
REMARK 923 INTER-LIGAND FREE ENERGY PREDICTED BY IDOCK:   10.83 KCAL/MOL
REMARK 924 INTRA-LIGAND FREE ENERGY PREDICTED BY IDOCK:    7.96 KCAL/MOL
REMARK 927      BINDING AFFINITY PREDICTED BY RF-SCORE:    0.00 PKD
ROOT
HETATM    1  C   UNL     1     -10.902  14.063  69.644  1.00  0.00    -0.013 C  
HETATM    2  C   UNL     1     -10.779  12.601  70.533  1.00  0.00     2.558 C  
HETATM    3  C   UNL     1      -9.404  11.439  70.376  1.00  0.00     3.430 C  
HETATM    4  C   UNL     1      -9.901  10.025  70.739  1.00  0.00     0.261 C  
HETATM    5  C   UNL     1      -8.462  11.472  68.880  1.00  0.00     0.011 C  
HETATM    6  C   UNL     1      -8.424  10.180  68.139  1.00  0.00    -0.118 C  
HETATM    7  C   UNL     1      -9.032  10.282  66.953  1.00  0.00    -0.149 C  
HETATM    8  C   UNL     1      -9.502   9.133  66.135  1.00  0.00    -0.309 C  
HETATM    9  C   UNL     1      -9.447  11.724  66.732  1.00  0.00    -0.193 C  
HETATM   10  C   UNL     1      -8.584  14.356  67.615  1.00  0.00    -0.189 C  
HETATM   11  C   UNL     1      -9.438  12.418  68.404  1.00  0.00    -0.169 C  
HETATM   12  C   UNL     1      -8.333  13.471  69.773  1.00  0.00     1.714 C  
HETATM   13  C   UNL     1     -10.002  14.862  68.568  1.00  0.00    -0.223 C  
HETATM   14  O   UNL     1     -10.769  11.766  68.573  1.00  0.00    -0.202 OA 
HETATM   15  H   UNL     1     -11.413  12.390  68.260  1.00  0.00     0.000 HD 
HETATM   16  C   UNL     1      -7.324  14.678  69.420  1.00  0.00    -0.135 C  
HETATM   17  O   UNL     1      -8.871  13.986  71.010  1.00  0.00     3.509 OA 
HETATM   18  C   UNL     1     -11.565  14.194  66.767  1.00  0.00    -0.409 C  
HETATM   19  C   UNL     1      -7.656  12.738  67.877  1.00  0.00    -0.138 C  
HETATM   20  C   UNL     1     -12.616  15.584  68.469  1.00  0.00     0.777 C  
HETATM   21  H   UNL     1      -8.359  14.473  71.644  1.00  0.00     0.000 HD 
HETATM   22  C   UNL     1     -11.485  14.584  68.225  1.00  0.00    -0.336 C  
HETATM   23  O   UNL     1      -6.489  12.582  67.482  1.00  0.00    -0.124 OA 
HETATM   24  C   UNL     1      -7.523  15.197  68.212  1.00  0.00    -0.109 C  
ENDROOT
BRANCH   9  25
HETATM   25  O   UNL     1      -8.738  12.324  65.631  1.00  0.00     0.293 OA 
BRANCH  25  26
HETATM   26  C   UNL     1      -9.169  11.927  64.396  1.00  0.00     0.336 C  
HETATM   27  O   UNL     1      -8.809  12.436  63.341  1.00  0.00     0.679 OA 
BRANCH  26  28
HETATM   28  C   UNL     1     -10.063  10.730  64.406  1.00  0.00    -0.419 C  
HETATM   29  C   UNL     1      -8.396   8.800  64.061  1.00  0.00    -0.146 C  
HETATM   30  C   UNL     1      -9.725   9.434  64.254  1.00  0.00     0.588 C  
HETATM   31  C   UNL     1     -11.514  11.045  64.705  1.00  0.00     0.392 C  
ENDBRANCH  26  28
ENDBRANCH  25  26
ENDBRANCH   9  25
BRANCH  16  32
HETATM   32  C   UNL     1      -6.171  15.047  70.299  1.00  0.00    -0.132 C  
HETATM   33  H   UNL     1      -5.234  16.691  70.745  1.00  0.00     0.000 HD 
HETATM   34  O   UNL     1      -5.966  16.456  70.188  1.00  0.00    -0.201 OA 
ENDBRANCH  16  32
TORSDOF 4
ENDMDL
MODEL      128
REMARK 921   NORMALIZED FREE ENERGY PREDICTED BY IDOCK:   16.49 KCAL/MOL
REMARK 922        TOTAL FREE ENERGY PREDICTED BY IDOCK:   19.21 KCAL/MOL
REMARK 923 INTER-LIGAND FREE ENERGY PREDICTED BY IDOCK:    3.18 KCAL/MOL
REMARK 924 INTRA-LIGAND FREE ENERGY PREDICTED BY IDOCK:   16.04 KCAL/MOL
REMARK 927      BINDING AFFINITY PREDICTED BY RF-SCORE:    0.00 PKD
ROOT
HETATM    1  C   UNL     1      -6.191   7.811  67.764  1.00  0.00    -0.050 C  
HETATM    2  C   UNL     1      -5.860   8.122  69.419  1.00  0.00    -0.030 C  
HETATM    3  C   UNL     1      -7.130   8.215  70.701  1.00  0.00    -0.045 C  
HETATM    4  C   UNL     1      -6.628   9.130  71.836  1.00  0.00     0.073 C  
HETATM    5  C   UNL     1      -8.784   8.589  70.199  1.00  0.00    -0.137 C  
HETATM    6  C   UNL     1      -9.368   9.803  70.835  1.00  0.00     0.211 C  
HETATM    7  C   UNL     1      -9.607  10.757  69.930  1.00  0.00     0.458 C  
HETATM    8  C   UNL     1      -9.828  12.193  70.245  1.00  0.00     3.616 C  
HETATM    9  C   UNL     1      -9.301  10.216  68.546  1.00  0.00    -0.151 C  
HETATM   10  C   UNL     1      -9.234   7.623  67.234  1.00  0.00    -0.154 C  
HETATM   11  C   UNL     1      -8.232   8.795  68.885  1.00  0.00    -0.118 C  
HETATM   12  C   UNL     1      -8.182   6.761  69.145  1.00  0.00    -0.121 C  
HETATM   13  C   UNL     1      -7.495   7.487  66.870  1.00  0.00    -0.098 C  
HETATM   14  O   UNL     1      -7.131   9.790  69.045  1.00  0.00    -0.063 OA 
HETATM   15  H   UNL     1      -6.767   9.926  68.179  1.00  0.00     0.000 HD 
HETATM   16  C   UNL     1      -9.097   5.702  68.347  1.00  0.00    -0.121 C  
HETATM   17  O   UNL     1      -6.961   5.994  69.214  1.00  0.00    -0.060 OA 
HETATM   18  C   UNL     1      -7.419   9.776  65.930  1.00  0.00    -0.103 C  
HETATM   19  C   UNL     1      -9.932   7.981  68.946  1.00  0.00    -0.195 C  
HETATM   20  C   UNL     1      -5.441   8.461  65.388  1.00  0.00    -0.035 C  
HETATM   21  H   UNL     1      -6.938   5.052  69.335  1.00  0.00     0.000 HD 
HETATM   22  C   UNL     1      -6.559   8.632  66.417  1.00  0.00    -0.062 C  
HETATM   23  O   UNL     1     -11.104   7.704  69.246  1.00  0.00    -0.082 OA 
HETATM   24  C   UNL     1      -9.638   6.200  67.239  1.00  0.00    -0.126 C  
ENDROOT
BRANCH   9  25
HETATM   25  O   UNL     1     -10.486  10.128  67.731  1.00  0.00    -0.198 OA 
BRANCH  25  26
HETATM   26  C   UNL     1     -11.572  10.787  68.236  1.00  0.00    -0.221 C  
HETATM   27  O   UNL     1     -12.734  10.449  68.049  1.00  0.00     2.088 OA 
BRANCH  26  28
HETATM   28  C   UNL     1     -11.239  11.928  69.141  1.00  0.00    -0.314 C  
HETATM   29  C   UNL     1     -12.380  11.232  71.340  1.00  0.00    -0.308 C  
HETATM   30  C   UNL     1     -11.594  12.103  70.429  1.00  0.00     0.019 C  
HETATM   31  C   UNL     1     -10.323  12.961  68.520  1.00  0.00    -0.239 C  
ENDBRANCH  26  28
ENDBRANCH  25  26
ENDBRANCH   9  25
BRANCH  16  32
HETATM   32  C   UNL     1      -9.438   4.354  68.900  1.00  0.00    -0.165 C  
HETATM   33  H   UNL     1      -8.970   2.517  68.474  1.00  0.00     0.000 HD 
HETATM   34  O   UNL     1      -8.753   3.372  68.122  1.00  0.00    -0.093 OA 
ENDBRANCH  16  32
TORSDOF 4
ENDMDL
MODEL      129
REMARK 921   NORMALIZED FREE ENERGY PREDICTED BY IDOCK:   16.68 KCAL/MOL
REMARK 922        TOTAL FREE ENERGY PREDICTED BY IDOCK:   19.45 KCAL/MOL
REMARK 923 INTER-LIGAND FREE ENERGY PREDICTED BY IDOCK:   14.71 KCAL/MOL
REMARK 924 INTRA-LIGAND FREE ENERGY PREDICTED BY IDOCK:    4.74 KCAL/MOL
REMARK 927      BINDING AFFINITY PREDICTED BY RF-SCORE:    0.00 PKD
ROOT
HETATM    1  C   UNL     1     -10.968  10.360  70.796  1.00  0.00    -0.088 C  
HETATM    2  C   UNL     1      -9.255  10.263  70.791  1.00  0.00     1.306 C  
HETATM    3  C   UNL     1      -8.201  11.107  69.590  1.00  0.00     0.512 C  
HETATM    4  C   UNL     1      -6.887  10.316  69.435  1.00  0.00    -0.076 C  
HETATM    5  C   UNL     1      -8.917  11.558  68.037  1.00  0.00    -0.170 C  
HETATM    6  C   UNL     1      -8.231  10.984  66.845  1.00  0.00    -0.140 C  
HETATM    7  C   UNL     1      -9.028  10.135  66.189  1.00  0.00    -0.171 C  
HETATM    8  C   UNL     1      -8.565   9.123  65.203  1.00  0.00    -0.200 C  
HETATM    9  C   UNL     1     -10.401  10.145  66.833  1.00  0.00    -0.236 C  
HETATM   10  C   UNL     1     -12.018  11.995  68.387  1.00  0.00    -0.256 C  
HETATM   11  C   UNL     1     -10.081  10.834  68.476  1.00  0.00    -0.176 C  
HETATM   12  C   UNL     1     -10.090  12.546  69.605  1.00  0.00     1.242 C  
HETATM   13  C   UNL     1     -12.102  11.128  69.942  1.00  0.00    -0.418 C  
HETATM   14  O   UNL     1      -9.609   9.468  68.847  1.00  0.00    -0.151 OA 
HETATM   15  H   UNL     1     -10.377   8.990  69.137  1.00  0.00     0.000 HD 
HETATM   16  C   UNL     1     -11.163  13.741  69.469  1.00  0.00    -0.221 C  
HETATM   17  O   UNL     1      -9.921  12.560  71.038  1.00  0.00     5.707 OA 
HETATM   18  C   UNL     1     -12.703   9.000  68.827  1.00  0.00     5.308 C  
HETATM   19  C   UNL     1     -10.413  12.407  67.491  1.00  0.00    -0.215 C  
HETATM   20  C   UNL     1     -13.078   8.950  71.233  1.00  0.00    -0.241 C  
HETATM   21  H   UNL     1      -9.925  13.354  71.561  1.00  0.00     0.000 HD 
HETATM   22  C   UNL     1     -12.236   9.599  70.134  1.00  0.00     0.124 C  
HETATM   23  O   UNL     1     -10.352  13.309  66.640  1.00  0.00    -0.267 OA 
HETATM   24  C   UNL     1     -12.270  13.387  68.821  1.00  0.00    -0.150 C  
ENDROOT
BRANCH   9  25
HETATM   25  O   UNL     1     -11.406  10.671  65.946  1.00  0.00     0.246 OA 
BRANCH  25  26
HETATM   26  C   UNL     1     -10.913  11.381  64.887  1.00  0.00    -0.216 C  
HETATM   27  O   UNL     1     -10.049  12.244  64.976  1.00  0.00    -0.271 OA 
BRANCH  26  28
HETATM   28  C   UNL     1     -11.443  10.957  63.555  1.00  0.00     0.869 C  
HETATM   29  C   UNL     1     -13.781  12.031  63.532  1.00  0.00     1.368 C  
HETATM   30  C   UNL     1     -12.646  11.228  63.011  1.00  0.00     0.888 C  
HETATM   31  C   UNL     1     -10.446  10.194  62.708  1.00  0.00     1.420 C  
ENDBRANCH  26  28
ENDBRANCH  25  26
ENDBRANCH   9  25
BRANCH  16  32
HETATM   32  C   UNL     1     -10.859  15.148  69.877  1.00  0.00    -0.270 C  
HETATM   33  H   UNL     1     -11.099  16.907  69.085  1.00  0.00     0.000 HD 
HETATM   34  O   UNL     1     -11.291  16.014  68.827  1.00  0.00    -0.344 OA 
ENDBRANCH  16  32
TORSDOF 4
ENDMDL
MODEL      130
REMARK 921   NORMALIZED FREE ENERGY PREDICTED BY IDOCK:   17.58 KCAL/MOL
REMARK 922        TOTAL FREE ENERGY PREDICTED BY IDOCK:   20.56 KCAL/MOL
REMARK 923 INTER-LIGAND FREE ENERGY PREDICTED BY IDOCK:   15.23 KCAL/MOL
REMARK 924 INTRA-LIGAND FREE ENERGY PREDICTED BY IDOCK:    5.33 KCAL/MOL
REMARK 927      BINDING AFFINITY PREDICTED BY RF-SCORE:    0.00 PKD
ROOT
HETATM    1  C   UNL     1     -11.111   8.974  68.208  1.00  0.00     0.155 C  
HETATM    2  C   UNL     1     -11.482   9.530  69.788  1.00  0.00    -0.048 C  
HETATM    3  C   UNL     1     -11.448  11.269  70.278  1.00  0.00    -0.286 C  
HETATM    4  C   UNL     1     -11.156  11.356  71.790  1.00  0.00     4.519 C  
HETATM    5  C   UNL     1     -10.455  12.377  69.322  1.00  0.00     0.176 C  
HETATM    6  C   UNL     1      -9.406  13.099  70.097  1.00  0.00     3.736 C  
HETATM    7  C   UNL     1      -8.180  12.745  69.699  1.00  0.00     1.662 C  
HETATM    8  C   UNL     1      -6.934  12.971  70.478  1.00  0.00     1.654 C  
HETATM    9  C   UNL     1      -8.295  11.810  68.510  1.00  0.00    -0.131 C  
HETATM   10  C   UNL     1     -10.199  11.294  66.375  1.00  0.00    -0.273 C  
HETATM   11  C   UNL     1      -9.997  11.204  68.623  1.00  0.00    -0.205 C  
HETATM   12  C   UNL     1     -11.919  11.476  67.960  1.00  0.00    -0.104 C  
HETATM   13  C   UNL     1     -10.717   9.641  66.792  1.00  0.00    -0.149 C  
HETATM   14  O   UNL     1      -9.487  10.267  69.667  1.00  0.00    -0.301 OA 
HETATM   15  H   UNL     1      -9.185   9.494  69.206  1.00  0.00     0.000 HD 
HETATM   16  C   UNL     1     -12.329  11.927  66.468  1.00  0.00     1.031 C  
HETATM   17  O   UNL     1     -12.991  10.544  68.214  1.00  0.00     1.669 OA 
HETATM   18  C   UNL     1      -8.378   8.885  67.089  1.00  0.00    -0.103 C  
HETATM   19  C   UNL     1     -10.240  12.749  67.569  1.00  0.00    -0.216 C  
HETATM   20  C   UNL     1      -9.962   7.039  66.956  1.00  0.00    -0.273 C  
HETATM   21  H   UNL     1     -13.881  10.670  67.906  1.00  0.00     0.000 HD 
HETATM   22  C   UNL     1      -9.819   8.510  67.348  1.00  0.00    -0.244 C  
HETATM   23  O   UNL     1     -10.240  13.924  67.170  1.00  0.00    -0.254 OA 
HETATM   24  C   UNL     1     -11.354  11.764  65.578  1.00  0.00    -0.283 C  
ENDROOT
BRANCH   9  25
HETATM   25  O   UNL     1      -7.750  12.396  67.312  1.00  0.00    -0.160 OA 
BRANCH  25  26
HETATM   26  C   UNL     1      -7.610  13.755  67.359  1.00  0.00    -0.137 C  
HETATM   27  O   UNL     1      -8.500  14.552  67.091  1.00  0.00    -0.200 OA 
BRANCH  26  28
HETATM   28  C   UNL     1      -6.285  14.224  67.867  1.00  0.00    -0.167 C  
HETATM   29  C   UNL     1      -6.907  16.408  69.079  1.00  0.00    -0.198 C  
HETATM   30  C   UNL     1      -6.009  15.338  68.573  1.00  0.00    -0.096 C  
HETATM   31  C   UNL     1      -5.146  13.262  67.603  1.00  0.00    -0.017 C  
ENDBRANCH  26  28
ENDBRANCH  25  26
ENDBRANCH   9  25
BRANCH  16  32
HETATM   32  C   UNL     1     -13.618  12.624  66.163  1.00  0.00     4.683 C  
HETATM   33  H   UNL     1     -14.150  14.451  65.766  1.00  0.00     0.000 HD 
HETATM   34  O   UNL     1     -13.332  14.009  65.960  1.00  0.00    -0.213 OA 
ENDBRANCH  16  32
TORSDOF 4
ENDMDL
MODEL      131
REMARK 921   NORMALIZED FREE ENERGY PREDICTED BY IDOCK:   18.43 KCAL/MOL
REMARK 922        TOTAL FREE ENERGY PREDICTED BY IDOCK:   21.61 KCAL/MOL
REMARK 923 INTER-LIGAND FREE ENERGY PREDICTED BY IDOCK:   10.42 KCAL/MOL
REMARK 924 INTRA-LIGAND FREE ENERGY PREDICTED BY IDOCK:   11.20 KCAL/MOL
REMARK 927      BINDING AFFINITY PREDICTED BY RF-SCORE:    0.00 PKD
ROOT
HETATM    1  C   UNL     1     -12.686  15.296  70.207  1.00  0.00    -0.353 C  
HETATM    2  C   UNL     1     -13.076  15.632  68.570  1.00  0.00     2.438 C  
HETATM    3  C   UNL     1     -12.117  15.029  67.162  1.00  0.00     0.105 C  
HETATM    4  C   UNL     1     -12.295  16.006  65.982  1.00  0.00     2.025 C  
HETATM    5  C   UNL     1     -10.427  14.590  67.441  1.00  0.00    -0.264 C  
HETATM    6  C   UNL     1      -9.444  15.336  66.604  1.00  0.00    -0.281 C  
HETATM    7  C   UNL     1      -8.654  16.108  67.357  1.00  0.00    -0.196 C  
HETATM    8  C   UNL     1      -7.837  17.240  66.849  1.00  0.00    -0.251 C  
HETATM    9  C   UNL     1      -8.968  15.860  68.820  1.00  0.00    -0.216 C  
HETATM   10  C   UNL     1     -10.045  13.699  70.438  1.00  0.00     2.699 C  
HETATM   11  C   UNL     1     -10.615  15.112  68.769  1.00  0.00    -0.236 C  
HETATM   12  C   UNL     1     -11.650  13.341  68.765  1.00  0.00    -0.312 C  
HETATM   13  C   UNL     1     -11.569  14.436  70.994  1.00  0.00    -0.167 C  
HETATM   14  O   UNL     1     -11.131  16.502  68.604  1.00  0.00    -0.345 OA 
HETATM   15  H   UNL     1     -11.255  16.846  69.480  1.00  0.00     0.000 HD 
HETATM   16  C   UNL     1     -11.231  12.020  69.587  1.00  0.00    -0.168 C  
HETATM   17  O   UNL     1     -13.083  13.252  68.916  1.00  0.00     1.017 OA 
HETATM   18  C   UNL     1     -10.424  16.530  71.652  1.00  0.00     2.388 C  
HETATM   19  C   UNL     1      -9.525  13.579  68.633  1.00  0.00    -0.055 C  
HETATM   20  C   UNL     1     -12.681  16.361  72.551  1.00  0.00    -0.049 C  
HETATM   21  H   UNL     1     -13.562  12.432  68.914  1.00  0.00     0.000 HD 
HETATM   22  C   UNL     1     -11.780  15.915  71.399  1.00  0.00    -0.530 C  
HETATM   23  O   UNL     1      -8.679  12.756  68.249  1.00  0.00    -0.183 OA 
HETATM   24  C   UNL     1     -10.360  12.259  70.565  1.00  0.00     3.643 C  
ENDROOT
BRANCH   9  25
HETATM   25  O   UNL     1      -7.856  15.261  69.513  1.00  0.00    -0.216 OA 
BRANCH  25  26
HETATM   26  C   UNL     1      -7.281  14.207  68.859  1.00  0.00    -0.118 C  
HETATM   27  O   UNL     1      -7.786  13.096  68.760  1.00  0.00    -0.091 OA 
BRANCH  26  28
HETATM   28  C   UNL     1      -5.998  14.533  68.166  1.00  0.00    -0.139 C  
HETATM   29  C   UNL     1      -5.174  16.586  69.482  1.00  0.00    -0.134 C  
HETATM   30  C   UNL     1      -5.137  15.536  68.432  1.00  0.00    -0.096 C  
HETATM   31  C   UNL     1      -5.612  13.547  67.085  1.00  0.00     0.648 C  
ENDBRANCH  26  28
ENDBRANCH  25  26
ENDBRANCH   9  25
BRANCH  16  32
HETATM   32  C   UNL     1     -11.647  10.645  69.169  1.00  0.00    -0.271 C  
HETATM   33  H   UNL     1     -12.639   9.885  67.681  1.00  0.00     0.000 HD 
HETATM   34  O   UNL     1     -12.375  10.758  67.946  1.00  0.00     0.127 OA 
ENDBRANCH  16  32
TORSDOF 4
ENDMDL
MODEL      132
REMARK 921   NORMALIZED FREE ENERGY PREDICTED BY IDOCK:   20.00 KCAL/MOL
REMARK 922        TOTAL FREE ENERGY PREDICTED BY IDOCK:   23.55 KCAL/MOL
REMARK 923 INTER-LIGAND FREE ENERGY PREDICTED BY IDOCK:    1.07 KCAL/MOL
REMARK 924 INTRA-LIGAND FREE ENERGY PREDICTED BY IDOCK:   22.48 KCAL/MOL
REMARK 927      BINDING AFFINITY PREDICTED BY RF-SCORE:    0.00 PKD
ROOT
HETATM    1  C   UNL     1      -6.070   6.790  66.924  1.00  0.00    -0.036 C  
HETATM    2  C   UNL     1      -5.706   8.428  67.282  1.00  0.00    -0.039 C  
HETATM    3  C   UNL     1      -6.428   9.342  68.664  1.00  0.00    -0.053 C  
HETATM    4  C   UNL     1      -6.445  10.844  68.315  1.00  0.00    -0.057 C  
HETATM    5  C   UNL     1      -7.970   8.771  69.315  1.00  0.00    -0.108 C  
HETATM    6  C   UNL     1      -9.069   9.777  69.284  1.00  0.00    -0.189 C  
HETATM    7  C   UNL     1     -10.055   9.394  68.467  1.00  0.00    -0.208 C  
HETATM    8  C   UNL     1     -11.102  10.293  67.915  1.00  0.00    -0.341 C  
HETATM    9  C   UNL     1      -9.752   8.002  67.944  1.00  0.00    -0.160 C  
HETATM   10  C   UNL     1      -8.248   5.673  68.817  1.00  0.00    -0.103 C  
HETATM   11  C   UNL     1      -7.971   7.835  68.221  1.00  0.00    -0.122 C  
HETATM   12  C   UNL     1      -6.536   7.122  69.501  1.00  0.00    -0.040 C  
HETATM   13  C   UNL     1      -6.975   5.621  67.571  1.00  0.00    -0.066 C  
HETATM   14  O   UNL     1      -7.803   8.643  66.978  1.00  0.00    -0.095 OA 
HETATM   15  H   UNL     1      -7.804   8.025  66.257  1.00  0.00     0.000 HD 
HETATM   16  C   UNL     1      -6.654   5.767  70.365  1.00  0.00    -0.044 C  
HETATM   17  O   UNL     1      -5.132   7.054  69.171  1.00  0.00    -0.013 OA 
HETATM   18  C   UNL     1      -8.624   5.888  65.744  1.00  0.00    -0.154 C  
HETATM   19  C   UNL     1      -8.647   7.189  69.859  1.00  0.00    -0.141 C  
HETATM   20  C   UNL     1      -6.434   5.178  64.949  1.00  0.00    -0.035 C  
HETATM   21  H   UNL     1      -4.468   6.724  69.764  1.00  0.00     0.000 HD 
HETATM   22  C   UNL     1      -7.149   5.938  66.067  1.00  0.00    -0.074 C  
HETATM   23  O   UNL     1      -9.250   7.100  70.941  1.00  0.00    -0.152 OA 
HETATM   24  C   UNL     1      -7.597   4.939  69.924  1.00  0.00    -0.056 C  
ENDROOT
BRANCH   9  25
HETATM   25  O   UNL     1     -10.712   7.034  68.409  1.00  0.00    -0.208 OA 
BRANCH  25  26
HETATM   26  C   UNL     1     -11.766   7.566  69.098  1.00  0.00     0.908 C  
HETATM   27  O   UNL     1     -12.904   7.114  69.079  1.00  0.00     3.203 OA 
BRANCH  26  28
HETATM   28  C   UNL     1     -11.411   8.717  69.982  1.00  0.00    -0.040 C  
HETATM   29  C   UNL     1     -12.061  10.741  68.530  1.00  0.00     0.097 C  
HETATM   30  C   UNL     1     -11.530  10.035  69.724  1.00  0.00    -0.240 C  
HETATM   31  C   UNL     1     -10.932   8.313  71.360  1.00  0.00    -0.301 C  
ENDBRANCH  26  28
ENDBRANCH  25  26
ENDBRANCH   9  25
BRANCH  16  32
HETATM   32  C   UNL     1      -5.898   5.554  71.639  1.00  0.00    -0.025 C  
HETATM   33  H   UNL     1      -5.288   6.683  73.099  1.00  0.00     0.000 HD 
HETATM   34  O   UNL     1      -5.768   6.818  72.290  1.00  0.00    -0.037 OA 
ENDBRANCH  16  32
TORSDOF 4
ENDMDL
MODEL      133
REMARK 921   NORMALIZED FREE ENERGY PREDICTED BY IDOCK:   20.08 KCAL/MOL
REMARK 922        TOTAL FREE ENERGY PREDICTED BY IDOCK:   23.64 KCAL/MOL
REMARK 923 INTER-LIGAND FREE ENERGY PREDICTED BY IDOCK:   12.93 KCAL/MOL
REMARK 924 INTRA-LIGAND FREE ENERGY PREDICTED BY IDOCK:   10.71 KCAL/MOL
REMARK 927      BINDING AFFINITY PREDICTED BY RF-SCORE:    0.00 PKD
ROOT
HETATM    1  C   UNL     1     -11.521   9.957  65.141  1.00  0.00     3.800 C  
HETATM    2  C   UNL     1     -11.992   8.713  66.224  1.00  0.00     7.448 C  
HETATM    3  C   UNL     1     -11.406   8.586  67.929  1.00  0.00     0.911 C  
HETATM    4  C   UNL     1     -11.446   7.106  68.362  1.00  0.00     0.451 C  
HETATM    5  C   UNL     1      -9.880   9.380  68.339  1.00  0.00    -0.177 C  
HETATM    6  C   UNL     1      -8.835   8.472  68.892  1.00  0.00    -0.139 C  
HETATM    7  C   UNL     1      -7.782   8.390  68.073  1.00  0.00    -0.103 C  
HETATM    8  C   UNL     1      -6.751   7.320  68.118  1.00  0.00    -0.058 C  
HETATM    9  C   UNL     1      -7.979   9.348  66.914  1.00  0.00    -0.109 C  
HETATM   10  C   UNL     1      -9.410  11.828  66.413  1.00  0.00    -0.229 C  
HETATM   11  C   UNL     1      -9.762   9.657  66.931  1.00  0.00    -0.186 C  
HETATM   12  C   UNL     1     -11.235  10.928  67.580  1.00  0.00    -0.293 C  
HETATM   13  C   UNL     1     -10.598  11.280  65.204  1.00  0.00    -0.343 C  
HETATM   14  O   UNL     1      -9.894   8.345  66.233  1.00  0.00    -0.351 OA 
HETATM   15  H   UNL     1      -9.816   8.528  65.305  1.00  0.00     0.000 HD 
HETATM   16  C   UNL     1     -11.100  12.531  67.676  1.00  0.00    -0.301 C  
HETATM   17  O   UNL     1     -12.610  10.846  67.147  1.00  0.00     1.863 OA 
HETATM   18  C   UNL     1      -8.855  10.124  63.879  1.00  0.00    -0.248 C  
HETATM   19  C   UNL     1      -9.156  11.015  68.092  1.00  0.00    -0.155 C  
HETATM   20  C   UNL     1     -10.952  10.384  62.667  1.00  0.00     2.062 C  
HETATM   21  H   UNL     1     -13.292  11.435  67.448  1.00  0.00     0.000 HD 
HETATM   22  C   UNL     1     -10.348  10.261  64.066  1.00  0.00     0.293 C  
HETATM   23  O   UNL     1      -8.619  11.615  69.035  1.00  0.00     0.008 OA 
HETATM   24  C   UNL     1     -10.090  13.021  66.963  1.00  0.00    -0.243 C  
ENDROOT
BRANCH   9  25
HETATM   25  O   UNL     1      -7.000  10.406  66.921  1.00  0.00    -0.086 OA 
BRANCH  25  26
HETATM   26  C   UNL     1      -6.371  10.588  68.121  1.00  0.00    -0.058 C  
HETATM   27  O   UNL     1      -6.510  11.576  68.832  1.00  0.00    -0.054 OA 
BRANCH  26  28
HETATM   28  C   UNL     1      -5.549   9.425  68.573  1.00  0.00    -0.040 C  
HETATM   29  C   UNL     1      -5.421   9.802  71.116  1.00  0.00    -0.071 C  
HETATM   30  C   UNL     1      -5.153   9.119  69.824  1.00  0.00    -0.034 C  
HETATM   31  C   UNL     1      -5.200   8.449  67.469  1.00  0.00    -0.034 C  
ENDBRANCH  26  28
ENDBRANCH  25  26
ENDBRANCH   9  25
BRANCH  16  32
HETATM   32  C   UNL     1     -11.923  13.354  68.618  1.00  0.00    -0.327 C  
HETATM   33  H   UNL     1     -12.111  13.485  70.548  1.00  0.00     0.000 HD 
HETATM   34  O   UNL     1     -11.589  12.963  69.950  1.00  0.00    -0.262 OA 
ENDBRANCH  16  32
TORSDOF 4
ENDMDL
MODEL      134
REMARK 921   NORMALIZED FREE ENERGY PREDICTED BY IDOCK:   21.80 KCAL/MOL
REMARK 922        TOTAL FREE ENERGY PREDICTED BY IDOCK:   25.77 KCAL/MOL
REMARK 923 INTER-LIGAND FREE ENERGY PREDICTED BY IDOCK:    6.71 KCAL/MOL
REMARK 924 INTRA-LIGAND FREE ENERGY PREDICTED BY IDOCK:   19.05 KCAL/MOL
REMARK 927      BINDING AFFINITY PREDICTED BY RF-SCORE:    0.00 PKD
ROOT
HETATM    1  C   UNL     1     -11.133   6.852  69.897  1.00  0.00    -0.333 C  
HETATM    2  C   UNL     1     -11.337   5.164  69.673  1.00  0.00     1.814 C  
HETATM    3  C   UNL     1     -10.106   4.094  68.894  1.00  0.00     0.189 C  
HETATM    4  C   UNL     1     -10.824   2.886  68.259  1.00  0.00     5.111 C  
HETATM    5  C   UNL     1      -8.931   4.844  67.806  1.00  0.00    -0.118 C  
HETATM    6  C   UNL     1      -8.926   4.295  66.421  1.00  0.00    -0.120 C  
HETATM    7  C   UNL     1      -9.310   5.217  65.533  1.00  0.00    -0.093 C  
HETATM    8  C   UNL     1      -9.773   4.927  64.150  1.00  0.00     0.376 C  
HETATM    9  C   UNL     1      -9.506   6.542  66.247  1.00  0.00    -0.083 C  
HETATM   10  C   UNL     1      -8.490   7.852  68.634  1.00  0.00    -0.128 C  
HETATM   11  C   UNL     1      -9.692   6.054  67.979  1.00  0.00    -0.119 C  
HETATM   12  C   UNL     1      -8.711   5.808  69.764  1.00  0.00    -0.127 C  
HETATM   13  C   UNL     1      -9.975   7.942  69.614  1.00  0.00    -0.191 C  
HETATM   14  O   UNL     1     -11.102   5.715  67.628  1.00  0.00    -0.255 OA 
HETATM   15  H   UNL     1     -11.604   6.513  67.743  1.00  0.00     0.000 HD 
HETATM   16  C   UNL     1      -7.520   6.749  70.305  1.00  0.00    -0.090 C  
HETATM   17  O   UNL     1      -9.383   5.557  71.017  1.00  0.00    -0.149 OA 
HETATM   18  C   UNL     1     -11.285   8.837  67.713  1.00  0.00     0.541 C  
HETATM   19  C   UNL     1      -7.821   6.266  67.870  1.00  0.00    -0.103 C  
HETATM   20  C   UNL     1     -12.430   9.076  69.849  1.00  0.00     1.189 C  
HETATM   21  H   UNL     1      -8.928   5.443  71.844  1.00  0.00     0.000 HD 
HETATM   22  C   UNL     1     -11.403   8.233  69.093  1.00  0.00     0.497 C  
HETATM   23  O   UNL     1      -6.633   6.155  67.529  1.00  0.00    -0.051 OA 
HETATM   24  C   UNL     1      -7.450   7.923  69.684  1.00  0.00    -0.092 C  
ENDROOT
BRANCH   9  25
HETATM   25  O   UNL     1      -8.556   7.532  65.809  1.00  0.00    -0.149 OA 
BRANCH  25  26
HETATM   26  C   UNL     1      -8.215   8.451  66.762  1.00  0.00    -0.102 C  
HETATM   27  O   UNL     1      -7.889   8.170  67.909  1.00  0.00    -0.117 OA 
BRANCH  26  28
HETATM   28  C   UNL     1      -8.172   9.863  66.275  1.00  0.00    -0.114 C  
HETATM   29  C   UNL     1      -6.132   9.837  64.706  1.00  0.00    -0.093 C  
HETATM   30  C   UNL     1      -7.290  10.426  65.426  1.00  0.00    -0.124 C  
HETATM   31  C   UNL     1      -9.325  10.718  66.757  1.00  0.00    -0.182 C  
ENDBRANCH  26  28
ENDBRANCH  25  26
ENDBRANCH   9  25
BRANCH  16  32
HETATM   32  C   UNL     1      -6.493   6.268  71.281  1.00  0.00    -0.050 C  
HETATM   33  H   UNL     1      -4.575   6.491  71.504  1.00  0.00     0.000 HD 
HETATM   34  O   UNL     1      -5.227   6.796  70.884  1.00  0.00    -0.022 OA 
ENDBRANCH  16  32
TORSDOF 4
ENDMDL
MODEL      135
REMARK 921   NORMALIZED FREE ENERGY PREDICTED BY IDOCK:   23.32 KCAL/MOL
REMARK 922        TOTAL FREE ENERGY PREDICTED BY IDOCK:   27.64 KCAL/MOL
REMARK 923 INTER-LIGAND FREE ENERGY PREDICTED BY IDOCK:    6.35 KCAL/MOL
REMARK 924 INTRA-LIGAND FREE ENERGY PREDICTED BY IDOCK:   21.29 KCAL/MOL
REMARK 927      BINDING AFFINITY PREDICTED BY RF-SCORE:    0.00 PKD
ROOT
HETATM    1  C   UNL     1     -10.279   3.625  67.499  1.00  0.00     0.809 C  
HETATM    2  C   UNL     1     -10.907   3.665  69.095  1.00  0.00     3.670 C  
HETATM    3  C   UNL     1     -10.678   5.049  70.234  1.00  0.00     0.015 C  
HETATM    4  C   UNL     1     -10.741   4.521  71.681  1.00  0.00     0.117 C  
HETATM    5  C   UNL     1      -9.304   6.127  69.957  1.00  0.00    -0.166 C  
HETATM    6  C   UNL     1      -8.356   6.235  71.102  1.00  0.00    -0.124 C  
HETATM    7  C   UNL     1      -7.155   5.742  70.785  1.00  0.00    -0.070 C  
HETATM    8  C   UNL     1      -6.109   5.351  71.767  1.00  0.00    -0.030 C  
HETATM    9  C   UNL     1      -7.151   5.348  69.320  1.00  0.00    -0.060 C  
HETATM   10  C   UNL     1      -8.555   6.123  66.896  1.00  0.00    -0.109 C  
HETATM   11  C   UNL     1      -8.912   5.200  68.928  1.00  0.00    -0.100 C  
HETATM   12  C   UNL     1     -10.540   6.171  68.146  1.00  0.00    -0.264 C  
HETATM   13  C   UNL     1      -9.446   4.622  66.541  1.00  0.00    -0.171 C  
HETATM   14  O   UNL     1      -8.841   3.859  69.578  1.00  0.00    -0.077 OA 
HETATM   15  H   UNL     1      -8.583   3.247  68.899  1.00  0.00     0.000 HD 
HETATM   16  C   UNL     1     -10.498   7.208  66.913  1.00  0.00    -0.364 C  
HETATM   17  O   UNL     1     -11.792   5.518  67.845  1.00  0.00     1.584 OA 
HETATM   18  C   UNL     1      -7.420   3.236  66.861  1.00  0.00    -0.075 C  
HETATM   19  C   UNL     1      -8.616   7.024  68.549  1.00  0.00    -0.123 C  
HETATM   20  C   UNL     1      -9.233   2.028  65.771  1.00  0.00     0.009 C  
HETATM   21  H   UNL     1     -12.547   5.969  67.483  1.00  0.00     0.000 HD 
HETATM   22  C   UNL     1      -8.924   3.178  66.731  1.00  0.00    -0.172 C  
HETATM   23  O   UNL     1      -8.310   8.222  68.653  1.00  0.00    -0.122 OA 
HETATM   24  C   UNL     1      -9.385   7.123  66.188  1.00  0.00    -0.097 C  
ENDROOT
BRANCH   9  25
HETATM   25  O   UNL     1      -6.242   6.157  68.549  1.00  0.00    -0.032 OA 
BRANCH  25  26
HETATM   26  C   UNL     1      -5.623   7.148  69.260  1.00  0.00    -0.015 C  
HETATM   27  O   UNL     1      -5.227   8.201  68.777  1.00  0.00    -0.026 OA 
BRANCH  26  28
HETATM   28  C   UNL     1      -5.541   6.897  70.731  1.00  0.00    -0.024 C  
HETATM   29  C   UNL     1      -5.770   9.270  71.702  1.00  0.00    -0.074 C  
HETATM   30  C   UNL     1      -5.593   7.795  71.734  1.00  0.00    -0.035 C  
HETATM   31  C   UNL     1      -5.469   5.432  71.105  1.00  0.00    -0.009 C  
ENDBRANCH  26  28
ENDBRANCH  25  26
ENDBRANCH   9  25
BRANCH  16  32
HETATM   32  C   UNL     1     -11.530   8.273  66.719  1.00  0.00     2.465 C  
HETATM   33  H   UNL     1     -11.513  10.152  66.222  1.00  0.00     0.000 HD 
HETATM   34  O   UNL     1     -10.857   9.476  66.345  1.00  0.00     0.025 OA 
ENDBRANCH  16  32
TORSDOF 4
ENDMDL
MODEL      136
REMARK 921   NORMALIZED FREE ENERGY PREDICTED BY IDOCK:   23.63 KCAL/MOL
REMARK 922        TOTAL FREE ENERGY PREDICTED BY IDOCK:   28.03 KCAL/MOL
REMARK 923 INTER-LIGAND FREE ENERGY PREDICTED BY IDOCK:   19.30 KCAL/MOL
REMARK 924 INTRA-LIGAND FREE ENERGY PREDICTED BY IDOCK:    8.73 KCAL/MOL
REMARK 927      BINDING AFFINITY PREDICTED BY RF-SCORE:    0.00 PKD
ROOT
HETATM    1  C   UNL     1     -10.856   9.642  67.721  1.00  0.00    -0.278 C  
HETATM    2  C   UNL     1      -9.605  10.774  68.035  1.00  0.00    -0.172 C  
HETATM    3  C   UNL     1      -8.126  10.951  67.012  1.00  0.00    -0.131 C  
HETATM    4  C   UNL     1      -6.978  11.498  67.885  1.00  0.00    -0.075 C  
HETATM    5  C   UNL     1      -7.637   9.570  66.022  1.00  0.00    -0.100 C  
HETATM    6  C   UNL     1      -6.260   9.066  66.292  1.00  0.00    -0.064 C  
HETATM    7  C   UNL     1      -6.287   7.826  66.790  1.00  0.00    -0.054 C  
HETATM    8  C   UNL     1      -5.161   7.173  67.507  1.00  0.00    -0.016 C  
HETATM    9  C   UNL     1      -7.719   7.325  66.795  1.00  0.00    -0.109 C  
HETATM   10  C   UNL     1     -10.165   7.830  65.309  1.00  0.00     2.830 C  
HETATM   11  C   UNL     1      -8.690   8.848  66.686  1.00  0.00    -0.127 C  
HETATM   12  C   UNL     1      -9.670  10.121  65.411  1.00  0.00    -0.291 C  
HETATM   13  C   UNL     1     -11.183   8.540  66.588  1.00  0.00     1.488 C  
HETATM   14  O   UNL     1      -8.440   8.994  68.150  1.00  0.00    -0.127 OA 
HETATM   15  H   UNL     1      -9.135   8.517  68.588  1.00  0.00     0.000 HD 
HETATM   16  C   UNL     1     -10.494   9.669  64.101  1.00  0.00     2.354 C  
HETATM   17  O   UNL     1     -10.528  11.194  65.855  1.00  0.00    -0.252 OA 
HETATM   18  C   UNL     1     -10.603   6.734  68.179  1.00  0.00    -0.279 C  
HETATM   19  C   UNL     1      -8.446   8.452  64.858  1.00  0.00    -0.122 C  
HETATM   20  C   UNL     1     -12.509   8.064  68.907  1.00  0.00     4.134 C  
HETATM   21  H   UNL     1     -10.981  11.783  65.264  1.00  0.00     0.000 HD 
HETATM   22  C   UNL     1     -11.229   8.105  68.072  1.00  0.00     0.560 C  
HETATM   23  O   UNL     1      -7.928   8.205  63.758  1.00  0.00    -0.142 OA 
HETATM   24  C   UNL     1     -10.808   8.377  64.094  1.00  0.00    10.417 C  
ENDROOT
BRANCH   9  25
HETATM   25  O   UNL     1      -7.901   6.213  65.898  1.00  0.00    -0.100 OA 
BRANCH  25  26
HETATM   26  C   UNL     1      -8.920   5.368  66.242  1.00  0.00    -0.137 C  
HETATM   27  O   UNL     1      -9.695   4.859  65.442  1.00  0.00    -0.149 OA 
BRANCH  26  28
HETATM   28  C   UNL     1      -8.971   5.017  67.693  1.00  0.00    -0.115 C  
HETATM   29  C   UNL     1      -6.882   3.540  67.971  1.00  0.00    -0.050 C  
HETATM   30  C   UNL     1      -8.119   4.245  68.395  1.00  0.00    -0.081 C  
HETATM   31  C   UNL     1     -10.091   5.696  68.454  1.00  0.00    -0.224 C  
ENDBRANCH  26  28
ENDBRANCH  25  26
ENDBRANCH   9  25
BRANCH  16  32
HETATM   32  C   UNL     1     -10.720  10.581  62.937  1.00  0.00     1.110 C  
HETATM   33  H   UNL     1     -10.959  12.495  62.696  1.00  0.00     0.000 HD 
HETATM   34  O   UNL     1     -10.816  11.916  63.435  1.00  0.00    -0.398 OA 
ENDBRANCH  16  32
TORSDOF 4
ENDMDL
MODEL      137
REMARK 921   NORMALIZED FREE ENERGY PREDICTED BY IDOCK:   28.29 KCAL/MOL
REMARK 922        TOTAL FREE ENERGY PREDICTED BY IDOCK:   33.78 KCAL/MOL
REMARK 923 INTER-LIGAND FREE ENERGY PREDICTED BY IDOCK:   34.09 KCAL/MOL
REMARK 924 INTRA-LIGAND FREE ENERGY PREDICTED BY IDOCK:   -0.30 KCAL/MOL
REMARK 927      BINDING AFFINITY PREDICTED BY RF-SCORE:    0.00 PKD
ROOT
HETATM    1  C   UNL     1      -9.860  12.519  69.275  1.00  0.00     0.624 C  
HETATM    2  C   UNL     1      -9.948  12.697  67.571  1.00  0.00    -0.205 C  
HETATM    3  C   UNL     1      -9.253  14.098  66.667  1.00  0.00    -0.272 C  
HETATM    4  C   UNL     1     -10.052  14.297  65.362  1.00  0.00    -0.379 C  
HETATM    5  C   UNL     1      -8.999  15.608  67.552  1.00  0.00    -0.199 C  
HETATM    6  C   UNL     1      -9.711  16.789  66.987  1.00  0.00    -0.254 C  
HETATM    7  C   UNL     1     -10.638  17.247  67.834  1.00  0.00    -0.384 C  
HETATM    8  C   UNL     1     -11.761  18.147  67.462  1.00  0.00     1.685 C  
HETATM    9  C   UNL     1     -10.555  16.464  69.131  1.00  0.00    -0.308 C  
HETATM   10  C   UNL     1      -8.536  14.980  70.604  1.00  0.00     1.731 C  
HETATM   11  C   UNL     1      -9.669  14.960  68.649  1.00  0.00    -0.226 C  
HETATM   12  C   UNL     1      -7.831  14.054  68.568  1.00  0.00    -0.140 C  
HETATM   13  C   UNL     1      -9.206  13.332  70.507  1.00  0.00     5.685 C  
HETATM   14  O   UNL     1     -10.978  14.481  68.117  1.00  0.00    -0.241 OA 
HETATM   15  H   UNL     1     -11.419  14.054  68.841  1.00  0.00     0.000 HD 
HETATM   16  C   UNL     1      -6.667  14.217  69.670  1.00  0.00    -0.092 C  
HETATM   17  O   UNL     1      -7.641  12.659  68.247  1.00  0.00    -0.116 OA 
HETATM   18  C   UNL     1     -11.457  14.109  71.186  1.00  0.00     0.297 C  
HETATM   19  C   UNL     1      -8.229  16.087  69.112  1.00  0.00    -0.241 C  
HETATM   20  C   UNL     1     -11.214  11.688  71.301  1.00  0.00     2.536 C  
HETATM   21  H   UNL     1      -6.790  12.239  68.209  1.00  0.00     0.000 HD 
HETATM   22  C   UNL     1     -10.701  12.942  70.593  1.00  0.00     2.919 C  
HETATM   23  O   UNL     1      -7.439  17.043  69.158  1.00  0.00    -0.235 OA 
HETATM   24  C   UNL     1      -7.102  14.693  70.833  1.00  0.00     0.947 C  
ENDROOT
BRANCH   9  25
HETATM   25  O   UNL     1     -10.146  17.295  70.234  1.00  0.00     0.677 OA 
BRANCH  25  26
HETATM   26  C   UNL     1     -11.160  18.004  70.816  1.00  0.00     2.804 C  
HETATM   27  O   UNL     1     -11.745  18.938  70.282  1.00  0.00     5.601 OA 
BRANCH  26  28
HETATM   28  C   UNL     1     -11.589  17.490  72.151  1.00  0.00     1.932 C  
HETATM   29  C   UNL     1     -13.915  16.515  71.639  1.00  0.00     3.258 C  
HETATM   30  C   UNL     1     -12.746  16.882  72.479  1.00  0.00     1.572 C  
HETATM   31  C   UNL     1     -10.535  17.617  73.231  1.00  0.00     5.277 C  
ENDBRANCH  26  28
ENDBRANCH  25  26
ENDBRANCH   9  25
BRANCH  16  32
HETATM   32  C   UNL     1      -5.219  14.018  69.349  1.00  0.00    -0.082 C  
HETATM   33  H   UNL     1      -4.217  13.106  67.955  1.00  0.00     0.000 HD 
HETATM   34  O   UNL     1      -5.136  13.232  68.159  1.00  0.00    -0.086 OA 
ENDBRANCH  16  32
TORSDOF 4
ENDMDL
MODEL      138
REMARK 921   NORMALIZED FREE ENERGY PREDICTED BY IDOCK:   28.67 KCAL/MOL
REMARK 922        TOTAL FREE ENERGY PREDICTED BY IDOCK:   34.25 KCAL/MOL
REMARK 923 INTER-LIGAND FREE ENERGY PREDICTED BY IDOCK:   16.67 KCAL/MOL
REMARK 924 INTRA-LIGAND FREE ENERGY PREDICTED BY IDOCK:   17.58 KCAL/MOL
REMARK 927      BINDING AFFINITY PREDICTED BY RF-SCORE:    0.00 PKD
ROOT
HETATM    1  C   UNL     1     -11.980  16.008  68.689  1.00  0.00    -0.026 C  
HETATM    2  C   UNL     1     -10.556  16.842  69.157  1.00  0.00    -0.343 C  
HETATM    3  C   UNL     1      -9.041  16.882  68.172  1.00  0.00    -0.231 C  
HETATM    4  C   UNL     1      -7.838  17.091  69.113  1.00  0.00    -0.089 C  
HETATM    5  C   UNL     1      -8.782  15.581  67.004  1.00  0.00    -0.258 C  
HETATM    6  C   UNL     1      -7.525  14.804  67.206  1.00  0.00    -0.173 C  
HETATM    7  C   UNL     1      -7.787  13.534  67.530  1.00  0.00    -0.184 C  
HETATM    8  C   UNL     1      -6.817  12.598  68.154  1.00  0.00    -0.090 C  
HETATM    9  C   UNL     1      -9.285  13.305  67.464  1.00  0.00    -0.213 C  
HETATM   10  C   UNL     1     -11.560  14.439  66.055  1.00  0.00    -0.364 C  
HETATM   11  C   UNL     1      -9.965  14.979  67.561  1.00  0.00    -0.226 C  
HETATM   12  C   UNL     1     -10.666  16.568  66.468  1.00  0.00    -0.144 C  
HETATM   13  C   UNL     1     -12.469  15.144  67.415  1.00  0.00     0.861 C  
HETATM   14  O   UNL     1      -9.732  14.881  69.031  1.00  0.00    -0.216 OA 
HETATM   15  H   UNL     1     -10.513  14.485  69.399  1.00  0.00     0.000 HD 
HETATM   16  C   UNL     1     -11.521  16.452  65.108  1.00  0.00     0.226 C  
HETATM   17  O   UNL     1     -11.329  17.709  67.052  1.00  0.00     0.316 OA 
HETATM   18  C   UNL     1     -12.266  13.068  68.747  1.00  0.00    -0.047 C  
HETATM   19  C   UNL     1      -9.746  14.793  65.697  1.00  0.00    -0.278 C  
HETATM   20  C   UNL     1     -13.921  14.612  69.645  1.00  0.00     3.397 C  
HETATM   21  H   UNL     1     -11.653  18.445  66.546  1.00  0.00     0.000 HD 
HETATM   22  C   UNL     1     -12.632  14.531  68.826  1.00  0.00     0.335 C  
HETATM   23  O   UNL     1      -9.251  14.606  64.574  1.00  0.00     1.472 OA 
HETATM   24  C   UNL     1     -12.062  15.250  64.924  1.00  0.00    -0.039 C  
ENDROOT
BRANCH   9  25
HETATM   25  O   UNL     1      -9.640  12.374  66.423  1.00  0.00    -0.237 OA 
BRANCH  25  26
HETATM   26  C   UNL     1      -9.136  12.683  65.191  1.00  0.00     0.787 C  
HETATM   27  O   UNL     1      -8.054  13.225  65.002  1.00  0.00     3.936 OA 
BRANCH  26  28
HETATM   28  C   UNL     1      -9.973  12.215  64.044  1.00  0.00    -0.301 C  
HETATM   29  C   UNL     1     -12.228  13.365  64.509  1.00  0.00    -0.450 C  
HETATM   30  C   UNL     1     -11.263  12.501  63.782  1.00  0.00    -0.524 C  
HETATM   31  C   UNL     1      -9.220  11.380  63.030  1.00  0.00    -0.281 C  
ENDBRANCH  26  28
ENDBRANCH  25  26
ENDBRANCH   9  25
BRANCH  16  32
HETATM   32  C   UNL     1     -11.548  17.537  64.078  1.00  0.00     4.156 C  
HETATM   33  H   UNL     1     -12.705  18.011  62.589  1.00  0.00     0.000 HD 
HETATM   34  O   UNL     1     -12.687  17.322  63.242  1.00  0.00     5.898 OA 
ENDBRANCH  16  32
TORSDOF 4
ENDMDL
MODEL      139
REMARK 921   NORMALIZED FREE ENERGY PREDICTED BY IDOCK:   36.09 KCAL/MOL
REMARK 922        TOTAL FREE ENERGY PREDICTED BY IDOCK:   43.39 KCAL/MOL
REMARK 923 INTER-LIGAND FREE ENERGY PREDICTED BY IDOCK:   26.70 KCAL/MOL
REMARK 924 INTRA-LIGAND FREE ENERGY PREDICTED BY IDOCK:   16.69 KCAL/MOL
REMARK 927      BINDING AFFINITY PREDICTED BY RF-SCORE:    0.00 PKD
ROOT
HETATM    1  C   UNL     1     -10.957   5.283  66.018  1.00  0.00     0.021 C  
HETATM    2  C   UNL     1      -9.984   6.088  64.857  1.00  0.00     1.718 C  
HETATM    3  C   UNL     1      -8.371   6.816  65.225  1.00  0.00    -0.108 C  
HETATM    4  C   UNL     1      -8.110   7.975  64.241  1.00  0.00    -0.117 C  
HETATM    5  C   UNL     1      -8.024   7.249  66.904  1.00  0.00    -0.112 C  
HETATM    6  C   UNL     1      -7.684   8.684  67.119  1.00  0.00    -0.096 C  
HETATM    7  C   UNL     1      -8.607   9.293  67.871  1.00  0.00    -0.120 C  
HETATM    8  C   UNL     1      -8.787  10.765  67.971  1.00  0.00    -0.132 C  
HETATM    9  C   UNL     1      -9.622   8.267  68.337  1.00  0.00    -0.144 C  
HETATM   10  C   UNL     1      -9.691   5.405  68.839  1.00  0.00    -0.205 C  
HETATM   11  C   UNL     1      -9.395   6.901  67.172  1.00  0.00    -0.141 C  
HETATM   12  C   UNL     1      -8.463   5.100  66.864  1.00  0.00    -0.106 C  
HETATM   13  C   UNL     1     -10.833   4.879  67.576  1.00  0.00     0.509 C  
HETATM   14  O   UNL     1     -10.223   7.703  66.225  1.00  0.00    -0.476 OA 
HETATM   15  H   UNL     1     -11.128   7.474  66.402  1.00  0.00     0.000 HD 
HETATM   16  C   UNL     1      -8.195   3.988  67.999  1.00  0.00    -0.095 C  
HETATM   17  O   UNL     1      -8.765   4.222  65.759  1.00  0.00    -0.116 OA 
HETATM   18  C   UNL     1     -12.447   6.662  68.165  1.00  0.00     5.108 C  
HETATM   19  C   UNL     1      -8.150   6.436  68.510  1.00  0.00    -0.110 C  
HETATM   20  C   UNL     1     -13.409   4.948  66.727  1.00  0.00    18.252 C  
HETATM   21  H   UNL     1      -8.333   3.388  65.617  1.00  0.00     0.000 HD 
HETATM   22  C   UNL     1     -12.099   5.636  67.111  1.00  0.00     4.206 C  
HETATM   23  O   UNL     1      -7.201   6.467  69.309  1.00  0.00    -0.084 OA 
HETATM   24  C   UNL     1      -8.943   4.153  69.087  1.00  0.00    -0.164 C  
ENDROOT
BRANCH   9  25
HETATM   25  O   UNL     1      -9.589   8.091  69.767  1.00  0.00    -0.170 OA 
BRANCH  25  26
HETATM   26  C   UNL     1      -8.339   8.155  70.317  1.00  0.00    -0.124 C  
HETATM   27  O   UNL     1      -7.767   7.210  70.846  1.00  0.00    -0.091 OA 
BRANCH  26  28
HETATM   28  C   UNL     1      -7.652   9.470  70.143  1.00  0.00    -0.146 C  
HETATM   29  C   UNL     1      -5.283   8.968  71.014  1.00  0.00    -0.029 C  
HETATM   30  C   UNL     1      -6.380   9.794  70.449  1.00  0.00    -0.093 C  
HETATM   31  C   UNL     1      -8.499  10.524  69.463  1.00  0.00    -0.060 C  
ENDBRANCH  26  28
ENDBRANCH  25  26
ENDBRANCH   9  25
BRANCH  16  32
HETATM   32  C   UNL     1      -7.089   2.986  67.901  1.00  0.00    -0.050 C  
HETATM   33  H   UNL     1      -5.241   2.891  68.497  1.00  0.00     0.000 HD 
HETATM   34  O   UNL     1      -5.943   3.528  68.559  1.00  0.00    -0.022 OA 
ENDBRANCH  16  32
TORSDOF 4
ENDMDL
MODEL      140
REMARK 921   NORMALIZED FREE ENERGY PREDICTED BY IDOCK:   42.32 KCAL/MOL
REMARK 922        TOTAL FREE ENERGY PREDICTED BY IDOCK:   51.08 KCAL/MOL
REMARK 923 INTER-LIGAND FREE ENERGY PREDICTED BY IDOCK:   20.05 KCAL/MOL
REMARK 924 INTRA-LIGAND FREE ENERGY PREDICTED BY IDOCK:   31.03 KCAL/MOL
REMARK 927      BINDING AFFINITY PREDICTED BY RF-SCORE:    0.00 PKD
ROOT
HETATM    1  C   UNL     1      -8.729   6.790  64.805  1.00  0.00     0.315 C  
HETATM    2  C   UNL     1      -8.090   8.049  65.779  1.00  0.00    -0.121 C  
HETATM    3  C   UNL     1      -7.648   7.850  67.520  1.00  0.00    -0.105 C  
HETATM    4  C   UNL     1      -7.770   9.216  68.225  1.00  0.00    -0.091 C  
HETATM    5  C   UNL     1      -8.418   6.540  68.423  1.00  0.00    -0.120 C  
HETATM    6  C   UNL     1      -9.181   6.978  69.627  1.00  0.00    -0.146 C  
HETATM    7  C   UNL     1     -10.487   6.731  69.489  1.00  0.00    -0.248 C  
HETATM    8  C   UNL     1     -11.562   7.357  70.303  1.00  0.00    -0.155 C  
HETATM    9  C   UNL     1     -10.716   5.981  68.191  1.00  0.00    -0.278 C  
HETATM   10  C   UNL     1      -9.202   4.212  66.450  1.00  0.00    -0.161 C  
HETATM   11  C   UNL     1      -9.214   6.328  67.242  1.00  0.00    -0.118 C  
HETATM   12  C   UNL     1      -7.354   5.628  66.736  1.00  0.00    -0.083 C  
HETATM   13  C   UNL     1      -9.074   5.224  64.989  1.00  0.00    -0.029 C  
HETATM   14  O   UNL     1      -9.843   7.643  66.920  1.00  0.00    -0.195 OA 
HETATM   15  H   UNL     1     -10.367   7.503  66.141  1.00  0.00     0.000 HD 
HETATM   16  C   UNL     1      -6.982   4.080  66.488  1.00  0.00    -0.059 C  
HETATM   17  O   UNL     1      -6.527   6.223  65.713  1.00  0.00    -0.040 OA 
HETATM   18  C   UNL     1     -11.490   5.762  65.038  1.00  0.00     3.731 C  
HETATM   19  C   UNL     1      -8.693   4.774  68.174  1.00  0.00    -0.102 C  
HETATM   20  C   UNL     1     -10.431   6.346  62.924  1.00  0.00     6.087 C  
HETATM   21  H   UNL     1      -5.665   5.898  65.479  1.00  0.00     0.000 HD 
HETATM   22  C   UNL     1     -10.169   6.156  64.418  1.00  0.00     3.676 C  
HETATM   23  O   UNL     1      -8.439   3.962  69.078  1.00  0.00    -0.075 OA 
HETATM   24  C   UNL     1      -8.044   3.308  66.275  1.00  0.00    -0.092 C  
ENDROOT
BRANCH   9  25
HETATM   25  O   UNL     1     -11.205   4.646  68.422  1.00  0.00     1.704 OA 
BRANCH  25  26
HETATM   26  C   UNL     1     -10.362   3.850  69.145  1.00  0.00     1.050 C  
HETATM   27  O   UNL     1     -10.080   4.031  70.323  1.00  0.00    -0.120 OA 
BRANCH  26  28
HETATM   28  C   UNL     1      -9.862   2.648  68.411  1.00  0.00     0.319 C  
HETATM   29  C   UNL     1      -7.311   2.867  68.678  1.00  0.00    -0.049 C  
HETATM   30  C   UNL     1      -8.586   2.260  68.216  1.00  0.00    -0.109 C  
HETATM   31  C   UNL     1     -10.957   1.735  67.901  1.00  0.00     5.702 C  
ENDBRANCH  26  28
ENDBRANCH  25  26
ENDBRANCH   9  25
BRANCH  16  32
HETATM   32  C   UNL     1      -5.594   3.547  66.660  1.00  0.00    -0.021 C  
HETATM   33  H   UNL     1      -4.760   2.164  67.741  1.00  0.00     0.000 HD 
HETATM   34  O   UNL     1      -5.641   2.502  67.632  1.00  0.00    -0.017 OA 
ENDBRANCH  16  32
TORSDOF 4
ENDMDL
MODEL      141
REMARK 921   NORMALIZED FREE ENERGY PREDICTED BY IDOCK:   50.11 KCAL/MOL
REMARK 922        TOTAL FREE ENERGY PREDICTED BY IDOCK:   60.69 KCAL/MOL
REMARK 923 INTER-LIGAND FREE ENERGY PREDICTED BY IDOCK:   49.96 KCAL/MOL
REMARK 924 INTRA-LIGAND FREE ENERGY PREDICTED BY IDOCK:   10.74 KCAL/MOL
REMARK 927      BINDING AFFINITY PREDICTED BY RF-SCORE:    0.00 PKD
ROOT
HETATM    1  C   UNL     1      -9.657  15.511  68.033  1.00  0.00    -0.203 C  
HETATM    2  C   UNL     1      -8.207  16.131  68.708  1.00  0.00    -0.216 C  
HETATM    3  C   UNL     1      -6.726  15.137  69.001  1.00  0.00    -0.120 C  
HETATM    4  C   UNL     1      -5.929  15.761  70.165  1.00  0.00    -0.133 C  
HETATM    5  C   UNL     1      -6.925  13.388  69.165  1.00  0.00    -0.044 C  
HETATM    6  C   UNL     1      -6.430  12.823  70.453  1.00  0.00     0.431 C  
HETATM    7  C   UNL     1      -7.433  12.316  71.176  1.00  0.00     6.391 C  
HETATM    8  C   UNL     1      -7.367  12.020  72.632  1.00  0.00    12.409 C  
HETATM    9  C   UNL     1      -8.715  12.393  70.370  1.00  0.00     5.729 C  
HETATM   10  C   UNL     1      -9.474  12.457  67.565  1.00  0.00    -0.187 C  
HETATM   11  C   UNL     1      -8.341  13.645  69.117  1.00  0.00     0.418 C  
HETATM   12  C   UNL     1      -7.702  13.948  67.192  1.00  0.00     0.029 C  
HETATM   13  C   UNL     1     -10.169  14.094  67.452  1.00  0.00    -0.244 C  
HETATM   14  O   UNL     1      -8.620  14.651  70.184  1.00  0.00    -0.043 OA 
HETATM   15  H   UNL     1      -9.554  14.820  70.152  1.00  0.00     0.000 HD 
HETATM   16  C   UNL     1      -8.060  13.004  65.936  1.00  0.00     1.927 C  
HETATM   17  O   UNL     1      -7.746  15.229  66.527  1.00  0.00    -0.235 OA 
HETATM   18  C   UNL     1     -11.536  13.754  69.488  1.00  0.00    -0.327 C  
HETATM   19  C   UNL     1      -7.757  12.081  68.240  1.00  0.00    -0.127 C  
HETATM   20  C   UNL     1     -12.219  15.706  68.201  1.00  0.00     0.421 C  
HETATM   21  H   UNL     1      -7.450  15.369  65.635  1.00  0.00     0.000 HD 
HETATM   22  C   UNL     1     -11.029  14.803  68.525  1.00  0.00    -0.265 C  
HETATM   23  O   UNL     1      -7.164  11.025  67.968  1.00  0.00    -0.082 OA 
HETATM   24  C   UNL     1      -9.102  12.206  66.155  1.00  0.00    -0.101 C  
ENDROOT
BRANCH   9  25
HETATM   25  O   UNL     1      -9.224  11.086  70.043  1.00  0.00     0.766 OA 
BRANCH  25  26
HETATM   26  C   UNL     1      -8.365  10.058  70.319  1.00  0.00     0.081 C  
HETATM   27  O   UNL     1      -8.242   9.536  71.419  1.00  0.00    -0.239 OA 
BRANCH  26  28
HETATM   28  C   UNL     1      -7.629   9.531  69.130  1.00  0.00    -0.075 C  
HETATM   29  C   UNL     1      -5.613   8.353  70.215  1.00  0.00    -0.021 C  
HETATM   30  C   UNL     1      -6.477   8.831  69.105  1.00  0.00    -0.043 C  
HETATM   31  C   UNL     1      -8.335   9.764  67.812  1.00  0.00    -0.114 C  
ENDBRANCH  26  28
ENDBRANCH  25  26
ENDBRANCH   9  25
BRANCH  16  32
HETATM   32  C   UNL     1      -7.192  12.914  64.721  1.00  0.00     9.353 C  
HETATM   33  H   UNL     1      -5.779  13.997  63.940  1.00  0.00     0.000 HD 
HETATM   34  O   UNL     1      -6.330  14.053  64.711  1.00  0.00    14.821 OA 
ENDBRANCH  16  32
TORSDOF 4
ENDMDL
MODEL      142
REMARK 921   NORMALIZED FREE ENERGY PREDICTED BY IDOCK:   59.59 KCAL/MOL
REMARK 922        TOTAL FREE ENERGY PREDICTED BY IDOCK:   72.39 KCAL/MOL
REMARK 923 INTER-LIGAND FREE ENERGY PREDICTED BY IDOCK:   69.96 KCAL/MOL
REMARK 924 INTRA-LIGAND FREE ENERGY PREDICTED BY IDOCK:    2.43 KCAL/MOL
REMARK 927      BINDING AFFINITY PREDICTED BY RF-SCORE:    0.00 PKD
ROOT
HETATM    1  C   UNL     1      -8.866  14.525  67.933  1.00  0.00    -0.176 C  
HETATM    2  C   UNL     1      -8.760  15.168  66.346  1.00  0.00    -0.219 C  
HETATM    3  C   UNL     1      -9.868  14.703  64.996  1.00  0.00    -0.065 C  
HETATM    4  C   UNL     1      -9.130  14.896  63.656  1.00  0.00    10.922 C  
HETATM    5  C   UNL     1     -10.695  13.144  65.105  1.00  0.00    -0.329 C  
HETATM    6  C   UNL     1     -10.430  12.217  63.968  1.00  0.00    -0.427 C  
HETATM    7  C   UNL     1      -9.775  11.125  64.376  1.00  0.00    -0.312 C  
HETATM    8  C   UNL     1      -9.035  10.194  63.485  1.00  0.00    -0.265 C  
HETATM    9  C   UNL     1      -9.636  11.166  65.886  1.00  0.00    -0.218 C  
HETATM   10  C   UNL     1     -11.055  12.346  68.132  1.00  0.00    -0.288 C  
HETATM   11  C   UNL     1      -9.893  12.914  66.278  1.00  0.00    -0.273 C  
HETATM   12  C   UNL     1     -11.273  14.312  66.870  1.00  0.00    -0.326 C  
HETATM   13  C   UNL     1      -9.830  13.498  68.722  1.00  0.00    -0.050 C  
HETATM   14  O   UNL     1      -8.474  13.113  65.861  1.00  0.00     0.240 OA 
HETATM   15  H   UNL     1      -7.946  12.961  66.635  1.00  0.00     0.000 HD 
HETATM   16  C   UNL     1     -12.472  14.047  67.914  1.00  0.00     0.210 C  
HETATM   17  O   UNL     1     -10.930  15.658  67.260  1.00  0.00    -0.311 OA 
HETATM   18  C   UNL     1      -8.050  11.779  68.660  1.00  0.00    -0.104 C  
HETATM   19  C   UNL     1     -11.664  12.270  66.352  1.00  0.00    -0.365 C  
HETATM   20  C   UNL     1      -7.407  13.766  69.915  1.00  0.00     0.597 C  
HETATM   21  H   UNL     1     -11.569  16.306  67.534  1.00  0.00     0.000 HD 
HETATM   22  C   UNL     1      -8.302  13.264  68.781  1.00  0.00     0.105 C  
HETATM   23  O   UNL     1     -12.748  11.744  66.053  1.00  0.00     0.961 OA 
HETATM   24  C   UNL     1     -12.297  12.956  68.654  1.00  0.00     0.196 C  
ENDROOT
BRANCH   9  25
HETATM   25  O   UNL     1     -10.373  10.104  66.522  1.00  0.00    -0.231 OA 
BRANCH  25  26
HETATM   26  C   UNL     1     -10.630   9.030  65.715  1.00  0.00     1.270 C  
HETATM   27  O   UNL     1      -9.956   8.721  64.741  1.00  0.00     1.039 OA 
BRANCH  26  28
HETATM   28  C   UNL     1     -11.768   8.174  66.167  1.00  0.00     5.999 C  
HETATM   29  C   UNL     1     -13.632   8.827  64.517  1.00  0.00    21.863 C  
HETATM   30  C   UNL     1     -13.016   8.110  65.663  1.00  0.00    18.674 C  
HETATM   31  C   UNL     1     -11.414   7.215  67.284  1.00  0.00     0.499 C  
ENDBRANCH  26  28
ENDBRANCH  25  26
ENDBRANCH   9  25
BRANCH  16  32
HETATM   32  C   UNL     1     -13.732  14.854  67.915  1.00  0.00     7.071 C  
HETATM   33  H   UNL     1     -15.080  15.324  69.234  1.00  0.00     0.000 HD 
HETATM   34  O   UNL     1     -14.280  14.811  69.233  1.00  0.00     4.270 OA 
ENDBRANCH  16  32
TORSDOF 4
ENDMDL
MODEL      143
REMARK 921   NORMALIZED FREE ENERGY PREDICTED BY IDOCK:   62.57 KCAL/MOL
REMARK 922        TOTAL FREE ENERGY PREDICTED BY IDOCK:   76.08 KCAL/MOL
REMARK 923 INTER-LIGAND FREE ENERGY PREDICTED BY IDOCK:   51.24 KCAL/MOL
REMARK 924 INTRA-LIGAND FREE ENERGY PREDICTED BY IDOCK:   24.84 KCAL/MOL
REMARK 927      BINDING AFFINITY PREDICTED BY RF-SCORE:    0.00 PKD
ROOT
HETATM    1  C   UNL     1      -8.188   8.902  66.501  1.00  0.00    -0.114 C  
HETATM    2  C   UNL     1      -7.744   7.248  66.605  1.00  0.00    -0.101 C  
HETATM    3  C   UNL     1      -8.743   5.987  67.429  1.00  0.00    -0.104 C  
HETATM    4  C   UNL     1      -7.814   4.859  67.923  1.00  0.00    -0.086 C  
HETATM    5  C   UNL     1      -9.892   6.520  68.662  1.00  0.00    -0.143 C  
HETATM    6  C   UNL     1      -9.689   5.911  70.008  1.00  0.00    -0.209 C  
HETATM    7  C   UNL     1      -9.342   6.835  70.909  1.00  0.00    -0.157 C  
HETATM    8  C   UNL     1      -8.712   6.546  72.224  1.00  0.00    -0.130 C  
HETATM    9  C   UNL     1      -9.392   8.205  70.260  1.00  0.00    -0.155 C  
HETATM   10  C   UNL     1     -10.801   9.475  68.058  1.00  0.00    -0.225 C  
HETATM   11  C   UNL     1      -9.316   7.828  68.492  1.00  0.00    -0.147 C  
HETATM   12  C   UNL     1     -10.428   7.535  66.793  1.00  0.00    -0.249 C  
HETATM   13  C   UNL     1      -9.444   9.811  66.953  1.00  0.00    -0.202 C  
HETATM   14  O   UNL     1      -7.846   7.667  68.692  1.00  0.00    -0.116 OA 
HETATM   15  H   UNL     1      -7.466   8.530  68.579  1.00  0.00     0.000 HD 
HETATM   16  C   UNL     1     -11.779   8.330  66.420  1.00  0.00     5.051 C  
HETATM   17  O   UNL     1      -9.856   7.435  65.471  1.00  0.00     0.121 OA 
HETATM   18  C   UNL     1      -8.081  10.786  68.775  1.00  0.00    -0.143 C  
HETATM   19  C   UNL     1     -11.179   7.780  68.785  1.00  0.00     0.445 C  
HETATM   20  C   UNL     1      -7.194  11.277  66.561  1.00  0.00    -0.096 C  
HETATM   21  H   UNL     1     -10.371   7.299  64.684  1.00  0.00     0.000 HD 
HETATM   22  C   UNL     1      -8.022  10.268  67.357  1.00  0.00    -0.107 C  
HETATM   23  O   UNL     1     -12.303   7.493  69.226  1.00  0.00     1.545 OA 
HETATM   24  C   UNL     1     -11.940   9.454  67.114  1.00  0.00     4.365 C  
ENDROOT
BRANCH   9  25
HETATM   25  O   UNL     1     -10.416   9.037  70.841  1.00  0.00    -0.215 OA 
BRANCH  25  26
HETATM   26  C   UNL     1     -11.309   9.547  69.941  1.00  0.00    -0.126 C  
HETATM   27  O   UNL     1     -11.642   8.988  68.903  1.00  0.00     0.504 OA 
BRANCH  26  28
HETATM   28  C   UNL     1     -11.949  10.830  70.363  1.00  0.00    -0.448 C  
HETATM   29  C   UNL     1     -10.875  11.245  72.664  1.00  0.00    10.773 C  
HETATM   30  C   UNL     1     -11.765  11.518  71.507  1.00  0.00     1.294 C  
HETATM   31  C   UNL     1     -12.855  11.443  69.315  1.00  0.00     0.828 C  
ENDBRANCH  26  28
ENDBRANCH  25  26
ENDBRANCH   9  25
BRANCH  16  32
HETATM   32  C   UNL     1     -12.826   7.760  65.516  1.00  0.00    16.879 C  
HETATM   33  H   UNL     1     -14.388   6.625  65.738  1.00  0.00     0.000 HD 
HETATM   34  O   UNL     1     -13.723   6.987  66.312  1.00  0.00    12.703 OA 
ENDBRANCH  16  32
TORSDOF 4
ENDMDL
MODEL      144
REMARK 921   NORMALIZED FREE ENERGY PREDICTED BY IDOCK:   63.74 KCAL/MOL
REMARK 922        TOTAL FREE ENERGY PREDICTED BY IDOCK:   77.52 KCAL/MOL
REMARK 923 INTER-LIGAND FREE ENERGY PREDICTED BY IDOCK:   50.72 KCAL/MOL
REMARK 924 INTRA-LIGAND FREE ENERGY PREDICTED BY IDOCK:   26.79 KCAL/MOL
REMARK 927      BINDING AFFINITY PREDICTED BY RF-SCORE:    0.00 PKD
ROOT
HETATM    1  C   UNL     1      -7.175   8.252  68.452  1.00  0.00    -0.092 C  
HETATM    2  C   UNL     1      -6.281   9.696  68.213  1.00  0.00    -0.055 C  
HETATM    3  C   UNL     1      -6.943  11.169  67.402  1.00  0.00    -0.093 C  
HETATM    4  C   UNL     1      -5.778  11.955  66.766  1.00  0.00    -0.060 C  
HETATM    5  C   UNL     1      -8.311  10.960  66.302  1.00  0.00    -0.164 C  
HETATM    6  C   UNL     1      -8.070  11.437  64.910  1.00  0.00     0.763 C  
HETATM    7  C   UNL     1      -8.096  10.424  64.039  1.00  0.00    -0.092 C  
HETATM    8  C   UNL     1      -7.539  10.470  62.662  1.00  0.00    -0.128 C  
HETATM    9  C   UNL     1      -8.481   9.151  64.771  1.00  0.00    -0.178 C  
HETATM   10  C   UNL     1      -9.979   8.427  67.154  1.00  0.00    -0.304 C  
HETATM   11  C   UNL     1      -8.128   9.547  66.501  1.00  0.00    -0.112 C  
HETATM   12  C   UNL     1      -8.936  10.210  68.265  1.00  0.00    -0.120 C  
HETATM   13  C   UNL     1      -8.678   7.741  68.160  1.00  0.00    -0.126 C  
HETATM   14  O   UNL     1      -6.701   9.259  66.171  1.00  0.00    -0.072 OA 
HETATM   15  H   UNL     1      -6.580   8.326  66.303  1.00  0.00     0.000 HD 
HETATM   16  C   UNL     1     -10.418   9.863  68.795  1.00  0.00    -0.234 C  
HETATM   17  O   UNL     1      -8.236  10.179  69.527  1.00  0.00    -0.148 OA 
HETATM   18  C   UNL     1      -7.842   6.348  66.293  1.00  0.00    -0.101 C  
HETATM   19  C   UNL     1      -9.915  10.133  66.361  1.00  0.00    -0.234 C  
HETATM   20  C   UNL     1      -6.926   5.689  68.452  1.00  0.00    -0.065 C  
HETATM   21  H   UNL     1      -8.611  10.487  70.344  1.00  0.00     0.000 HD 
HETATM   22  C   UNL     1      -7.497   6.871  67.668  1.00  0.00    -0.098 C  
HETATM   23  O   UNL     1     -10.943  10.725  65.997  1.00  0.00    -0.095 OA 
HETATM   24  C   UNL     1     -10.966   8.815  68.185  1.00  0.00     0.084 C  
ENDROOT
BRANCH   9  25
HETATM   25  O   UNL     1      -9.753   8.641  64.327  1.00  0.00     1.307 OA 
BRANCH  25  26
HETATM   26  C   UNL     1     -10.808   8.969  65.133  1.00  0.00     4.122 C  
HETATM   27  O   UNL     1     -10.708   9.259  66.318  1.00  0.00    -0.001 OA 
BRANCH  26  28
HETATM   28  C   UNL     1     -12.123   9.049  64.429  1.00  0.00    15.443 C  
HETATM   29  C   UNL     1     -12.451  11.589  64.169  1.00  0.00     0.124 C  
HETATM   30  C   UNL     1     -12.799  10.150  64.045  1.00  0.00     8.765 C  
HETATM   31  C   UNL     1     -12.703   7.703  64.049  1.00  0.00    23.375 C  
ENDBRANCH  26  28
ENDBRANCH  25  26
ENDBRANCH   9  25
BRANCH  16  32
HETATM   32  C   UNL     1     -11.161  10.745  69.748  1.00  0.00    -0.297 C  
HETATM   33  H   UNL     1     -12.954  11.491  69.842  1.00  0.00     0.000 HD 
HETATM   34  O   UNL     1     -12.482  10.931  69.237  1.00  0.00    -0.392 OA 
ENDBRANCH  16  32
TORSDOF 4
ENDMDL
MODEL      145
REMARK 921   NORMALIZED FREE ENERGY PREDICTED BY IDOCK:   75.19 KCAL/MOL
REMARK 922        TOTAL FREE ENERGY PREDICTED BY IDOCK:   91.64 KCAL/MOL
REMARK 923 INTER-LIGAND FREE ENERGY PREDICTED BY IDOCK:   78.75 KCAL/MOL
REMARK 924 INTRA-LIGAND FREE ENERGY PREDICTED BY IDOCK:   12.89 KCAL/MOL
REMARK 927      BINDING AFFINITY PREDICTED BY RF-SCORE:    0.00 PKD
ROOT
HETATM    1  C   UNL     1     -10.720  14.217  70.335  1.00  0.00     0.529 C  
HETATM    2  C   UNL     1     -10.610  12.788  71.278  1.00  0.00     6.231 C  
HETATM    3  C   UNL     1      -9.048  12.015  71.756  1.00  0.00    17.333 C  
HETATM    4  C   UNL     1      -9.281  10.505  71.964  1.00  0.00     7.717 C  
HETATM    5  C   UNL     1      -7.621  12.358  70.770  1.00  0.00     5.057 C  
HETATM    6  C   UNL     1      -6.966  11.156  70.181  1.00  0.00     0.256 C  
HETATM    7  C   UNL     1      -7.045  11.165  68.847  1.00  0.00    -0.101 C  
HETATM    8  C   UNL     1      -6.843   9.980  67.973  1.00  0.00    -0.068 C  
HETATM    9  C   UNL     1      -7.679  12.468  68.397  1.00  0.00    -0.136 C  
HETATM   10  C   UNL     1      -7.930  15.182  69.407  1.00  0.00    -0.205 C  
HETATM   11  C   UNL     1      -8.521  13.054  69.888  1.00  0.00     2.696 C  
HETATM   12  C   UNL     1      -8.365  14.277  71.527  1.00  0.00     5.851 C  
HETATM   13  C   UNL     1      -9.690  15.269  69.674  1.00  0.00    -0.208 C  
HETATM   14  O   UNL     1      -9.600  12.084  69.539  1.00  0.00     0.104 OA 
HETATM   15  H   UNL     1     -10.193  12.544  68.958  1.00  0.00     0.000 HD 
HETATM   16  C   UNL     1      -7.634  15.713  71.547  1.00  0.00     4.268 C  
HETATM   17  O   UNL     1      -9.468  14.577  72.409  1.00  0.00     4.096 OA 
HETATM   18  C   UNL     1     -10.169  14.328  67.435  1.00  0.00    -0.247 C  
HETATM   19  C   UNL     1      -6.819  13.835  70.111  1.00  0.00     0.303 C  
HETATM   20  C   UNL     1     -12.129  15.323  68.485  1.00  0.00    -0.115 C  
HETATM   21  H   UNL     1      -9.395  15.143  73.168  1.00  0.00     0.000 HD 
HETATM   22  C   UNL     1     -10.787  14.650  68.776  1.00  0.00    -0.261 C  
HETATM   23  O   UNL     1      -5.594  13.994  70.232  1.00  0.00    -0.106 OA 
HETATM   24  C   UNL     1      -7.448  16.229  70.334  1.00  0.00     1.710 C  
ENDROOT
BRANCH   9  25
HETATM   25  O   UNL     1      -6.758  13.282  67.646  1.00  0.00    -0.144 OA 
BRANCH  25  26
HETATM   26  C   UNL     1      -6.398  12.760  66.434  1.00  0.00     2.081 C  
HETATM   27  O   UNL     1      -5.653  13.314  65.637  1.00  0.00     5.119 OA 
BRANCH  26  28
HETATM   28  C   UNL     1      -6.911  11.380  66.177  1.00  0.00     0.150 C  
HETATM   29  C   UNL     1      -5.158   9.915  67.361  1.00  0.00    -0.034 C  
HETATM   30  C   UNL     1      -6.375  10.205  66.561  1.00  0.00    -0.074 C  
HETATM   31  C   UNL     1      -8.243  11.341  65.457  1.00  0.00     0.199 C  
ENDBRANCH  26  28
ENDBRANCH  25  26
ENDBRANCH   9  25
BRANCH  16  32
HETATM   32  C   UNL     1      -7.067  16.312  72.795  1.00  0.00     9.033 C  
HETATM   33  H   UNL     1      -6.866  18.110  73.507  1.00  0.00     0.000 HD 
HETATM   34  O   UNL     1      -7.225  17.729  72.715  1.00  0.00     7.716 OA 
ENDBRANCH  16  32
TORSDOF 4
ENDMDL
MODEL      146
REMARK 921   NORMALIZED FREE ENERGY PREDICTED BY IDOCK:   81.17 KCAL/MOL
REMARK 922        TOTAL FREE ENERGY PREDICTED BY IDOCK:   99.01 KCAL/MOL
REMARK 923 INTER-LIGAND FREE ENERGY PREDICTED BY IDOCK:   76.86 KCAL/MOL
REMARK 924 INTRA-LIGAND FREE ENERGY PREDICTED BY IDOCK:   22.15 KCAL/MOL
REMARK 927      BINDING AFFINITY PREDICTED BY RF-SCORE:    0.00 PKD
ROOT
HETATM    1  C   UNL     1     -11.025  13.367  72.610  1.00  0.00     6.936 C  
HETATM    2  C   UNL     1     -12.495  13.731  71.803  1.00  0.00    -0.254 C  
HETATM    3  C   UNL     1     -13.248  12.666  70.552  1.00  0.00     0.604 C  
HETATM    4  C   UNL     1     -14.095  13.535  69.601  1.00  0.00     5.604 C  
HETATM    5  C   UNL     1     -12.199  11.531  69.694  1.00  0.00    -0.296 C  
HETATM    6  C   UNL     1     -12.187  11.692  68.212  1.00  0.00     0.168 C  
HETATM    7  C   UNL     1     -10.982  12.074  67.776  1.00  0.00    -0.279 C  
HETATM    8  C   UNL     1     -10.710  12.677  66.445  1.00  0.00    -0.278 C  
HETATM    9  C   UNL     1     -10.015  12.095  68.945  1.00  0.00     0.043 C  
HETATM   10  C   UNL     1      -9.745  10.770  71.518  1.00  0.00     5.950 C  
HETATM   11  C   UNL     1     -11.109  12.170  70.385  1.00  0.00     1.098 C  
HETATM   12  C   UNL     1     -12.051  11.062  71.832  1.00  0.00     0.727 C  
HETATM   13  C   UNL     1      -9.962  12.152  72.621  1.00  0.00    20.065 C  
HETATM   14  O   UNL     1     -11.227  13.629  70.093  1.00  0.00    -0.485 OA 
HETATM   15  H   UNL     1     -10.509  14.050  70.549  1.00  0.00     0.000 HD 
HETATM   16  C   UNL     1     -11.437   9.754  72.544  1.00  0.00     1.640 C  
HETATM   17  O   UNL     1     -12.724  11.641  72.970  1.00  0.00     1.488 OA 
HETATM   18  C   UNL     1      -8.361  13.541  71.344  1.00  0.00     9.281 C  
HETATM   19  C   UNL     1     -10.956  10.305  70.153  1.00  0.00    -0.314 C  
HETATM   20  C   UNL     1      -8.890  14.472  73.531  1.00  0.00     9.678 C  
HETATM   21  H   UNL     1     -13.161  11.128  73.640  1.00  0.00     0.000 HD 
HETATM   22  C   UNL     1      -9.433  13.590  72.407  1.00  0.00    13.896 C  
HETATM   23  O   UNL     1     -10.985   9.164  69.664  1.00  0.00    -0.226 OA 
HETATM   24  C   UNL     1     -10.120   9.640  72.397  1.00  0.00     2.379 C  
ENDROOT
BRANCH   9  25
HETATM   25  O   UNL     1      -8.977  11.107  68.801  1.00  0.00    -0.169 OA 
BRANCH  25  26
HETATM   26  C   UNL     1      -9.353   9.836  69.136  1.00  0.00    -0.182 C  
HETATM   27  O   UNL     1      -9.682   9.486  70.262  1.00  0.00    -0.231 OA 
BRANCH  26  28
HETATM   28  C   UNL     1      -9.433   8.889  67.982  1.00  0.00    -0.158 C  
HETATM   29  C   UNL     1      -7.262   9.407  66.700  1.00  0.00    -0.086 C  
HETATM   30  C   UNL     1      -8.557   8.732  66.970  1.00  0.00    -0.119 C  
HETATM   31  C   UNL     1     -10.621   7.952  68.033  1.00  0.00    -0.194 C  
ENDBRANCH  26  28
ENDBRANCH  25  26
ENDBRANCH   9  25
BRANCH  16  32
HETATM   32  C   UNL     1     -12.296   8.690  73.153  1.00  0.00     0.895 C  
HETATM   33  H   UNL     1     -13.773   7.580  72.549  1.00  0.00     0.000 HD 
HETATM   34  O   UNL     1     -13.228   8.256  72.162  1.00  0.00    -0.318 OA 
ENDBRANCH  16  32
TORSDOF 4
ENDMDL
