MODEL        1
REMARK 921   NORMALIZED FREE ENERGY PREDICTED BY IDOCK:   -5.78 KCAL/MOL
REMARK 922        TOTAL FREE ENERGY PREDICTED BY IDOCK:   -6.60 KCAL/MOL
REMARK 923 INTER-LIGAND FREE ENERGY PREDICTED BY IDOCK:   -6.46 KCAL/MOL
REMARK 924 INTRA-LIGAND FREE ENERGY PREDICTED BY IDOCK:   -0.14 KCAL/MOL
REMARK 927      BINDING AFFINITY PREDICTED BY RF-SCORE:    0.00 PKD
ROOT
HETATM    1  N   UNL     1     -11.749  16.093  63.917  1.00  0.00    -1.452 NA 
HETATM    2  C   UNL     1     -11.902  14.804  64.284  1.00  0.00    -0.319 C  
HETATM    3  H1  UNL     1     -11.443  16.671  64.700  1.00  0.00     0.000 HD 
HETATM    4  H2  UNL     1     -11.918  16.446  62.975  1.00  0.00     0.000 HD 
HETATM    5  N   UNL     1     -12.307  14.039  63.248  1.00  0.00    -1.145 NA 
HETATM    6  N   UNL     1     -11.626  14.463  65.487  1.00  0.00    -0.341 NA 
HETATM    7  H1  UNL     1     -12.423  13.064  63.525  1.00  0.00     0.000 HD 
HETATM    8  H2  UNL     1     -12.477  14.392  62.306  1.00  0.00     0.000 HD 
HETATM    9  H   UNL     1     -11.335  15.156  66.178  1.00  0.00     0.000 HD 
ENDROOT
BRANCH   6  10
HETATM   10  C   UNL     1     -11.740  13.053  65.840  1.00  0.00    -0.394 C  
BRANCH  10  11
HETATM   11  C   UNL     1     -11.792  12.855  67.336  1.00  0.00    -0.418 A  
HETATM   12  C   UNL     1     -11.873  13.960  68.196  1.00  0.00    -0.407 A  
HETATM   13  C   UNL     1     -11.895  13.771  69.579  1.00  0.00    -0.339 A  
HETATM   14  C   UNL     1     -11.854  12.486  70.119  1.00  0.00    -0.336 A  
HETATM   15  I   UNL     1     -11.980  15.418  70.846  1.00  0.00    -0.576 I  
HETATM   16  C   UNL     1     -11.804  11.381  69.269  1.00  0.00    -0.417 A  
HETATM   17  C   UNL     1     -11.777  11.564  67.884  1.00  0.00    -0.317 A  
ENDBRANCH  10  11
ENDBRANCH   6  10
TORSDOF 2
ENDMDL
MODEL        2
REMARK 921   NORMALIZED FREE ENERGY PREDICTED BY IDOCK:   -5.75 KCAL/MOL
REMARK 922        TOTAL FREE ENERGY PREDICTED BY IDOCK:   -6.56 KCAL/MOL
REMARK 923 INTER-LIGAND FREE ENERGY PREDICTED BY IDOCK:   -6.43 KCAL/MOL
REMARK 924 INTRA-LIGAND FREE ENERGY PREDICTED BY IDOCK:   -0.14 KCAL/MOL
REMARK 927      BINDING AFFINITY PREDICTED BY RF-SCORE:    0.00 PKD
ROOT
HETATM    1  N   UNL     1     -11.639  16.244  63.889  1.00  0.00    -1.573 NA 
HETATM    2  C   UNL     1     -11.817  15.020  64.429  1.00  0.00    -0.339 C  
HETATM    3  H1  UNL     1     -11.197  16.884  64.549  1.00  0.00     0.000 HD 
HETATM    4  H2  UNL     1     -11.913  16.498  62.940  1.00  0.00     0.000 HD 
HETATM    5  N   UNL     1     -12.402  14.174  63.556  1.00  0.00    -1.127 NA 
HETATM    6  N   UNL     1     -11.403  14.801  65.621  1.00  0.00    -0.345 NA 
HETATM    7  H1  UNL     1     -12.536  13.248  63.964  1.00  0.00     0.000 HD 
HETATM    8  H2  UNL     1     -12.676  14.428  62.607  1.00  0.00     0.000 HD 
HETATM    9  H   UNL     1     -10.982  15.545  66.178  1.00  0.00     0.000 HD 
ENDROOT
BRANCH   6  10
HETATM   10  C   UNL     1     -11.552  13.453  66.157  1.00  0.00    -0.346 C  
BRANCH  10  11
HETATM   11  C   UNL     1     -11.739  13.467  67.656  1.00  0.00    -0.398 A  
HETATM   12  C   UNL     1     -11.769  12.266  68.379  1.00  0.00    -0.390 A  
HETATM   13  C   UNL     1     -11.967  12.285  69.761  1.00  0.00    -0.295 A  
HETATM   14  C   UNL     1     -12.121  13.494  70.438  1.00  0.00    -0.415 A  
HETATM   15  I   UNL     1     -12.043  10.496  70.819  1.00  0.00    -0.497 I  
HETATM   16  C   UNL     1     -12.063  14.694  69.729  1.00  0.00    -0.371 A  
HETATM   17  C   UNL     1     -11.869  14.682  68.346  1.00  0.00    -0.330 A  
ENDBRANCH  10  11
ENDBRANCH   6  10
TORSDOF 2
ENDMDL
MODEL        3
REMARK 921   NORMALIZED FREE ENERGY PREDICTED BY IDOCK:   -5.69 KCAL/MOL
REMARK 922        TOTAL FREE ENERGY PREDICTED BY IDOCK:   -6.49 KCAL/MOL
REMARK 923 INTER-LIGAND FREE ENERGY PREDICTED BY IDOCK:   -6.36 KCAL/MOL
REMARK 924 INTRA-LIGAND FREE ENERGY PREDICTED BY IDOCK:   -0.14 KCAL/MOL
REMARK 927      BINDING AFFINITY PREDICTED BY RF-SCORE:    0.00 PKD
ROOT
HETATM    1  N   UNL     1     -14.272   8.730  73.285  1.00  0.00    -1.147 NA 
HETATM    2  C   UNL     1     -13.753   9.334  72.196  1.00  0.00    -0.453 C  
HETATM    3  H1  UNL     1     -14.165   9.307  74.119  1.00  0.00     0.000 HD 
HETATM    4  H2  UNL     1     -14.715   7.812  73.276  1.00  0.00     0.000 HD 
HETATM    5  N   UNL     1     -13.893   8.569  71.092  1.00  0.00    -0.590 NA 
HETATM    6  N   UNL     1     -13.250  10.506  72.315  1.00  0.00    -0.577 NA 
HETATM    7  H1  UNL     1     -13.501   9.026  70.268  1.00  0.00     0.000 HD 
HETATM    8  H2  UNL     1     -14.336   7.651  71.083  1.00  0.00     0.000 HD 
HETATM    9  H   UNL     1     -13.199  10.968  73.224  1.00  0.00     0.000 HD 
ENDROOT
BRANCH   6  10
HETATM   10  C   UNL     1     -12.753  11.160  71.110  1.00  0.00    -0.408 C  
BRANCH  10  11
HETATM   11  C   UNL     1     -12.844  12.664  71.215  1.00  0.00    -0.344 A  
HETATM   12  C   UNL     1     -12.041  13.482  70.406  1.00  0.00    -0.415 A  
HETATM   13  C   UNL     1     -12.113  14.871  70.525  1.00  0.00    -0.320 A  
HETATM   14  C   UNL     1     -12.992  15.459  71.434  1.00  0.00    -0.532 A  
HETATM   15  I   UNL     1     -10.893  16.074  69.346  1.00  0.00    -0.369 I  
HETATM   16  C   UNL     1     -13.814  14.652  72.220  1.00  0.00    -0.583 A  
HETATM   17  C   UNL     1     -13.745  13.262  72.109  1.00  0.00    -0.619 A  
ENDBRANCH  10  11
ENDBRANCH   6  10
TORSDOF 2
ENDMDL
MODEL        4
REMARK 921   NORMALIZED FREE ENERGY PREDICTED BY IDOCK:   -5.52 KCAL/MOL
REMARK 922        TOTAL FREE ENERGY PREDICTED BY IDOCK:   -6.31 KCAL/MOL
REMARK 923 INTER-LIGAND FREE ENERGY PREDICTED BY IDOCK:   -6.18 KCAL/MOL
REMARK 924 INTRA-LIGAND FREE ENERGY PREDICTED BY IDOCK:   -0.12 KCAL/MOL
REMARK 927      BINDING AFFINITY PREDICTED BY RF-SCORE:    0.00 PKD
ROOT
HETATM    1  N   UNL     1     -12.844  11.690  63.135  1.00  0.00    -0.865 NA 
HETATM    2  C   UNL     1     -12.421  12.698  63.927  1.00  0.00    -0.407 C  
HETATM    3  H1  UNL     1     -12.917  10.814  63.651  1.00  0.00     0.000 HD 
HETATM    4  H2  UNL     1     -13.063  11.792  62.144  1.00  0.00     0.000 HD 
HETATM    5  N   UNL     1     -12.324  13.857  63.243  1.00  0.00    -1.148 NA 
HETATM    6  N   UNL     1     -12.209  12.465  65.168  1.00  0.00    -0.521 NA 
HETATM    7  H1  UNL     1     -12.005  14.619  63.842  1.00  0.00     0.000 HD 
HETATM    8  H2  UNL     1     -12.543  13.959  62.252  1.00  0.00     0.000 HD 
HETATM    9  H   UNL     1     -12.314  11.526  65.554  1.00  0.00     0.000 HD 
ENDROOT
BRANCH   6  10
HETATM   10  C   UNL     1     -11.813  13.585  66.013  1.00  0.00    -0.379 C  
BRANCH  10  11
HETATM   11  C   UNL     1     -11.864  13.223  67.478  1.00  0.00    -0.403 A  
HETATM   12  C   UNL     1     -12.033  14.220  68.451  1.00  0.00    -0.344 A  
HETATM   13  C   UNL     1     -12.055  13.881  69.805  1.00  0.00    -0.345 A  
HETATM   14  C   UNL     1     -11.927  12.551  70.204  1.00  0.00    -0.377 A  
HETATM   15  I   UNL     1     -12.271  15.371  71.240  1.00  0.00    -0.611 I  
HETATM   16  C   UNL     1     -11.789  11.552  69.242  1.00  0.00    -0.414 A  
HETATM   17  C   UNL     1     -11.762  11.884  67.886  1.00  0.00    -0.368 A  
ENDBRANCH  10  11
ENDBRANCH   6  10
TORSDOF 2
ENDMDL
MODEL        5
REMARK 921   NORMALIZED FREE ENERGY PREDICTED BY IDOCK:   -5.33 KCAL/MOL
REMARK 922        TOTAL FREE ENERGY PREDICTED BY IDOCK:   -6.10 KCAL/MOL
REMARK 923 INTER-LIGAND FREE ENERGY PREDICTED BY IDOCK:   -5.94 KCAL/MOL
REMARK 924 INTRA-LIGAND FREE ENERGY PREDICTED BY IDOCK:   -0.16 KCAL/MOL
REMARK 927      BINDING AFFINITY PREDICTED BY RF-SCORE:    0.00 PKD
ROOT
HETATM    1  N   UNL     1     -14.249   8.801  73.260  1.00  0.00    -1.147 NA 
HETATM    2  C   UNL     1     -13.734   9.108  72.051  1.00  0.00    -0.448 C  
HETATM    3  H1  UNL     1     -13.777   9.309  74.008  1.00  0.00     0.000 HD 
HETATM    4  H2  UNL     1     -15.014   8.144  73.408  1.00  0.00     0.000 HD 
HETATM    5  N   UNL     1     -14.359   8.436  71.062  1.00  0.00    -0.652 NA 
HETATM    6  N   UNL     1     -12.795   9.976  71.978  1.00  0.00    -0.408 NA 
HETATM    7  H1  UNL     1     -13.970   8.668  70.147  1.00  0.00     0.000 HD 
HETATM    8  H2  UNL     1     -15.125   7.779  71.209  1.00  0.00     0.000 HD 
HETATM    9  H   UNL     1     -12.406  10.404  72.819  1.00  0.00     0.000 HD 
ENDROOT
BRANCH   6  10
HETATM   10  C   UNL     1     -12.300  10.334  70.654  1.00  0.00    -0.325 C  
BRANCH  10  11
HETATM   11  C   UNL     1     -12.270  11.831  70.457  1.00  0.00    -0.438 A  
HETATM   12  C   UNL     1     -12.599  12.694  71.513  1.00  0.00    -0.256 A  
HETATM   13  C   UNL     1     -12.593  14.076  71.317  1.00  0.00    -0.367 A  
HETATM   14  C   UNL     1     -12.245  14.614  70.078  1.00  0.00    -0.385 A  
HETATM   15  I   UNL     1     -13.116  15.344  72.880  1.00  0.00    -0.754 I  
HETATM   16  C   UNL     1     -11.888  13.763  69.032  1.00  0.00    -0.397 A  
HETATM   17  C   UNL     1     -11.896  12.379  69.221  1.00  0.00    -0.361 A  
ENDBRANCH  10  11
ENDBRANCH   6  10
TORSDOF 2
ENDMDL
MODEL        6
REMARK 921   NORMALIZED FREE ENERGY PREDICTED BY IDOCK:   -5.25 KCAL/MOL
REMARK 922        TOTAL FREE ENERGY PREDICTED BY IDOCK:   -6.01 KCAL/MOL
REMARK 923 INTER-LIGAND FREE ENERGY PREDICTED BY IDOCK:   -5.87 KCAL/MOL
REMARK 924 INTRA-LIGAND FREE ENERGY PREDICTED BY IDOCK:   -0.13 KCAL/MOL
REMARK 927      BINDING AFFINITY PREDICTED BY RF-SCORE:    0.00 PKD
ROOT
HETATM    1  N   UNL     1     -14.344   7.620  71.127  1.00  0.00    -0.672 NA 
HETATM    2  C   UNL     1     -13.915   8.776  71.677  1.00  0.00    -0.394 C  
HETATM    3  H1  UNL     1     -14.043   7.533  70.157  1.00  0.00     0.000 HD 
HETATM    4  H2  UNL     1     -14.901   6.923  71.620  1.00  0.00     0.000 HD 
HETATM    5  N   UNL     1     -14.314   8.892  72.961  1.00  0.00    -1.154 NA 
HETATM    6  N   UNL     1     -13.190   9.565  70.975  1.00  0.00    -0.558 NA 
HETATM    7  H1  UNL     1     -13.988   9.765  73.376  1.00  0.00     0.000 HD 
HETATM    8  H2  UNL     1     -14.870   8.194  73.454  1.00  0.00     0.000 HD 
HETATM    9  H   UNL     1     -12.971   9.354  70.001  1.00  0.00     0.000 HD 
ENDROOT
BRANCH   6  10
HETATM   10  C   UNL     1     -12.688  10.776  71.613  1.00  0.00    -0.414 C  
BRANCH  10  11
HETATM   11  C   UNL     1     -12.377  11.852  70.599  1.00  0.00    -0.405 A  
HETATM   12  C   UNL     1     -12.034  11.509  69.283  1.00  0.00    -0.397 A  
HETATM   13  C   UNL     1     -11.723  12.508  68.357  1.00  0.00    -0.328 A  
HETATM   14  C   UNL     1     -11.766  13.852  68.725  1.00  0.00    -0.392 A  
HETATM   15  I   UNL     1     -11.184  11.987  66.417  1.00  0.00    -0.346 I  
HETATM   16  C   UNL     1     -12.135  14.201  70.024  1.00  0.00    -0.409 A  
HETATM   17  C   UNL     1     -12.443  13.207  70.956  1.00  0.00    -0.406 A  
ENDBRANCH  10  11
ENDBRANCH   6  10
TORSDOF 2
ENDMDL
MODEL        7
REMARK 921   NORMALIZED FREE ENERGY PREDICTED BY IDOCK:   -5.24 KCAL/MOL
REMARK 922        TOTAL FREE ENERGY PREDICTED BY IDOCK:   -5.99 KCAL/MOL
REMARK 923 INTER-LIGAND FREE ENERGY PREDICTED BY IDOCK:   -5.81 KCAL/MOL
REMARK 924 INTRA-LIGAND FREE ENERGY PREDICTED BY IDOCK:   -0.18 KCAL/MOL
REMARK 927      BINDING AFFINITY PREDICTED BY RF-SCORE:    0.00 PKD
ROOT
HETATM    1  N   UNL     1     -10.251  17.049  65.446  1.00  0.00    -0.617 NA 
HETATM    2  C   UNL     1     -11.101  16.073  65.064  1.00  0.00    -0.336 C  
HETATM    3  H1  UNL     1      -9.806  16.830  66.337  1.00  0.00     0.000 HD 
HETATM    4  H2  UNL     1     -10.076  17.899  64.911  1.00  0.00     0.000 HD 
HETATM    5  N   UNL     1     -11.690  16.362  63.885  1.00  0.00    -1.527 NA 
HETATM    6  N   UNL     1     -11.218  15.029  65.797  1.00  0.00    -0.337 NA 
HETATM    7  H1  UNL     1     -12.333  15.624  63.596  1.00  0.00     0.000 HD 
HETATM    8  H2  UNL     1     -11.515  17.212  63.350  1.00  0.00     0.000 HD 
HETATM    9  H   UNL     1     -10.713  14.945  66.680  1.00  0.00     0.000 HD 
ENDROOT
BRANCH   6  10
HETATM   10  C   UNL     1     -12.096  13.963  65.330  1.00  0.00    -0.410 C  
BRANCH  10  11
HETATM   11  C   UNL     1     -11.321  12.714  64.985  1.00  0.00    -0.345 A  
HETATM   12  C   UNL     1     -10.957  11.803  65.988  1.00  0.00    -0.355 A  
HETATM   13  C   UNL     1     -10.218  10.663  65.666  1.00  0.00    -0.253 A  
HETATM   14  C   UNL     1      -9.850  10.408  64.345  1.00  0.00    -0.395 A  
HETATM   15  I   UNL     1      -9.655   9.338  67.166  1.00  0.00    -0.259 I  
HETATM   16  C   UNL     1     -10.234  11.294  63.338  1.00  0.00    -0.454 A  
HETATM   17  C   UNL     1     -10.969  12.438  63.655  1.00  0.00    -0.525 A  
ENDBRANCH  10  11
ENDBRANCH   6  10
TORSDOF 2
ENDMDL
MODEL        8
REMARK 921   NORMALIZED FREE ENERGY PREDICTED BY IDOCK:   -5.21 KCAL/MOL
REMARK 922        TOTAL FREE ENERGY PREDICTED BY IDOCK:   -5.96 KCAL/MOL
REMARK 923 INTER-LIGAND FREE ENERGY PREDICTED BY IDOCK:   -5.82 KCAL/MOL
REMARK 924 INTRA-LIGAND FREE ENERGY PREDICTED BY IDOCK:   -0.14 KCAL/MOL
REMARK 927      BINDING AFFINITY PREDICTED BY RF-SCORE:    0.00 PKD
ROOT
HETATM    1  N   UNL     1     -12.091  11.595  63.248  1.00  0.00    -0.914 NA 
HETATM    2  C   UNL     1     -12.055  12.771  63.909  1.00  0.00    -0.486 C  
HETATM    3  H1  UNL     1     -11.848  10.815  63.859  1.00  0.00     0.000 HD 
HETATM    4  H2  UNL     1     -12.330  11.498  62.262  1.00  0.00     0.000 HD 
HETATM    5  N   UNL     1     -12.376  13.803  63.101  1.00  0.00    -1.106 NA 
HETATM    6  N   UNL     1     -11.776  12.773  65.159  1.00  0.00    -0.341 NA 
HETATM    7  H1  UNL     1     -12.349  14.692  63.601  1.00  0.00     0.000 HD 
HETATM    8  H2  UNL     1     -12.615  13.707  62.114  1.00  0.00     0.000 HD 
HETATM    9  H   UNL     1     -11.540  11.908  65.648  1.00  0.00     0.000 HD 
ENDROOT
BRANCH   6  10
HETATM   10  C   UNL     1     -11.805  14.050  65.862  1.00  0.00    -0.383 C  
BRANCH  10  11
HETATM   11  C   UNL     1     -11.847  13.861  67.360  1.00  0.00    -0.437 A  
HETATM   12  C   UNL     1     -11.727  12.579  67.917  1.00  0.00    -0.416 A  
HETATM   13  C   UNL     1     -11.792  12.408  69.301  1.00  0.00    -0.304 A  
HETATM   14  C   UNL     1     -11.958  13.507  70.143  1.00  0.00    -0.399 A  
HETATM   15  I   UNL     1     -11.647  10.500  70.115  1.00  0.00    -0.442 I  
HETATM   16  C   UNL     1     -12.049  14.787  69.597  1.00  0.00    -0.346 A  
HETATM   17  C   UNL     1     -11.989  14.965  68.214  1.00  0.00    -0.245 A  
ENDBRANCH  10  11
ENDBRANCH   6  10
TORSDOF 2
ENDMDL
MODEL        9
REMARK 921   NORMALIZED FREE ENERGY PREDICTED BY IDOCK:   -5.20 KCAL/MOL
REMARK 922        TOTAL FREE ENERGY PREDICTED BY IDOCK:   -5.95 KCAL/MOL
REMARK 923 INTER-LIGAND FREE ENERGY PREDICTED BY IDOCK:   -5.82 KCAL/MOL
REMARK 924 INTRA-LIGAND FREE ENERGY PREDICTED BY IDOCK:   -0.13 KCAL/MOL
REMARK 927      BINDING AFFINITY PREDICTED BY RF-SCORE:    0.00 PKD
ROOT
HETATM    1  N   UNL     1     -14.411   7.364  71.278  1.00  0.00    -0.598 NA 
HETATM    2  C   UNL     1     -13.999   8.561  71.744  1.00  0.00    -0.431 C  
HETATM    3  H1  UNL     1     -14.151   7.234  70.300  1.00  0.00     0.000 HD 
HETATM    4  H2  UNL     1     -14.918   6.675  71.833  1.00  0.00     0.000 HD 
HETATM    5  N   UNL     1     -14.343   8.734  73.038  1.00  0.00    -1.133 NA 
HETATM    6  N   UNL     1     -13.337   9.336  70.968  1.00  0.00    -0.564 NA 
HETATM    7  H1  UNL     1     -14.032   9.639  73.391  1.00  0.00     0.000 HD 
HETATM    8  H2  UNL     1     -14.850   8.045  73.593  1.00  0.00     0.000 HD 
HETATM    9  H   UNL     1     -13.155   9.080  69.997  1.00  0.00     0.000 HD 
ENDROOT
BRANCH   6  10
HETATM   10  C   UNL     1     -12.851  10.597  71.517  1.00  0.00    -0.462 C  
BRANCH  10  11
HETATM   11  C   UNL     1     -12.345  11.518  70.432  1.00  0.00    -0.390 A  
HETATM   12  C   UNL     1     -12.183  12.889  70.682  1.00  0.00    -0.386 A  
HETATM   13  C   UNL     1     -11.739  13.738  69.668  1.00  0.00    -0.318 A  
HETATM   14  C   UNL     1     -11.435  13.233  68.403  1.00  0.00    -0.349 A  
HETATM   15  I   UNL     1     -11.535  15.774  70.040  1.00  0.00    -0.396 I  
HETATM   16  C   UNL     1     -11.566  11.867  68.156  1.00  0.00    -0.400 A  
HETATM   17  C   UNL     1     -12.014  11.013  69.166  1.00  0.00    -0.394 A  
ENDBRANCH  10  11
ENDBRANCH   6  10
TORSDOF 2
ENDMDL
MODEL       10
REMARK 921   NORMALIZED FREE ENERGY PREDICTED BY IDOCK:   -5.15 KCAL/MOL
REMARK 922        TOTAL FREE ENERGY PREDICTED BY IDOCK:   -5.89 KCAL/MOL
REMARK 923 INTER-LIGAND FREE ENERGY PREDICTED BY IDOCK:   -5.75 KCAL/MOL
REMARK 924 INTRA-LIGAND FREE ENERGY PREDICTED BY IDOCK:   -0.15 KCAL/MOL
REMARK 927      BINDING AFFINITY PREDICTED BY RF-SCORE:    0.00 PKD
ROOT
HETATM    1  N   UNL     1     -12.107   6.801  70.547  1.00  0.00    -0.561 NA 
HETATM    2  C   UNL     1     -12.427   7.788  71.410  1.00  0.00    -0.320 C  
HETATM    3  H1  UNL     1     -12.408   7.022  69.598  1.00  0.00     0.000 HD 
HETATM    4  H2  UNL     1     -11.626   5.942  70.811  1.00  0.00     0.000 HD 
HETATM    5  N   UNL     1     -12.030   7.495  72.667  1.00  0.00    -0.560 NA 
HETATM    6  N   UNL     1     -13.001   8.842  70.963  1.00  0.00    -0.514 NA 
HETATM    7  H1  UNL     1     -12.271   8.242  73.319  1.00  0.00     0.000 HD 
HETATM    8  H2  UNL     1     -11.549   6.636  72.930  1.00  0.00     0.000 HD 
HETATM    9  H   UNL     1     -13.256   8.927  69.979  1.00  0.00     0.000 HD 
ENDROOT
BRANCH   6  10
HETATM   10  C   UNL     1     -13.279   9.919  71.907  1.00  0.00    -0.458 C  
BRANCH  10  11
HETATM   11  C   UNL     1     -12.897  11.266  71.343  1.00  0.00    -0.515 A  
HETATM   12  C   UNL     1     -13.262  12.445  72.010  1.00  0.00    -0.514 A  
HETATM   13  C   UNL     1     -12.927  13.688  71.470  1.00  0.00    -0.360 A  
HETATM   14  C   UNL     1     -12.214  13.772  70.274  1.00  0.00    -0.429 A  
HETATM   15  I   UNL     1     -13.503  15.430  72.450  1.00  0.00    -0.697 I  
HETATM   16  C   UNL     1     -11.823  12.604  69.621  1.00  0.00    -0.379 A  
HETATM   17  C   UNL     1     -12.158  11.357  70.153  1.00  0.00    -0.439 A  
ENDBRANCH  10  11
ENDBRANCH   6  10
TORSDOF 2
ENDMDL
MODEL       11
REMARK 921   NORMALIZED FREE ENERGY PREDICTED BY IDOCK:   -5.15 KCAL/MOL
REMARK 922        TOTAL FREE ENERGY PREDICTED BY IDOCK:   -5.89 KCAL/MOL
REMARK 923 INTER-LIGAND FREE ENERGY PREDICTED BY IDOCK:   -5.77 KCAL/MOL
REMARK 924 INTRA-LIGAND FREE ENERGY PREDICTED BY IDOCK:   -0.12 KCAL/MOL
REMARK 927      BINDING AFFINITY PREDICTED BY RF-SCORE:    0.00 PKD
ROOT
HETATM    1  N   UNL     1     -10.468  17.093  65.532  1.00  0.00    -0.619 NA 
HETATM    2  C   UNL     1     -11.023  15.986  64.994  1.00  0.00    -0.380 C  
HETATM    3  H1  UNL     1      -9.991  16.884  66.409  1.00  0.00     0.000 HD 
HETATM    4  H2  UNL     1     -10.520  18.022  65.114  1.00  0.00     0.000 HD 
HETATM    5  N   UNL     1     -11.654  16.262  63.834  1.00  0.00    -1.573 NA 
HETATM    6  N   UNL     1     -10.866  14.862  65.588  1.00  0.00    -0.324 NA 
HETATM    7  H1  UNL     1     -12.073  15.425  63.427  1.00  0.00     0.000 HD 
HETATM    8  H2  UNL     1     -11.706  17.191  63.416  1.00  0.00     0.000 HD 
HETATM    9  H   UNL     1     -10.367  14.800  66.476  1.00  0.00     0.000 HD 
ENDROOT
BRANCH   6  10
HETATM   10  C   UNL     1     -11.422  13.673  64.953  1.00  0.00    -0.340 C  
BRANCH  10  11
HETATM   11  C   UNL     1     -11.113  12.424  65.743  1.00  0.00    -0.351 A  
HETATM   12  C   UNL     1     -11.503  12.317  67.086  1.00  0.00    -0.419 A  
HETATM   13  C   UNL     1     -11.191  11.169  67.817  1.00  0.00    -0.294 A  
HETATM   14  C   UNL     1     -10.506  10.112  67.218  1.00  0.00    -0.313 A  
HETATM   15  I   UNL     1     -11.745  11.036  69.817  1.00  0.00    -0.485 I  
HETATM   16  C   UNL     1     -10.141  10.200  65.875  1.00  0.00    -0.325 A  
HETATM   17  C   UNL     1     -10.446  11.347  65.139  1.00  0.00    -0.351 A  
ENDBRANCH  10  11
ENDBRANCH   6  10
TORSDOF 2
ENDMDL
MODEL       12
REMARK 921   NORMALIZED FREE ENERGY PREDICTED BY IDOCK:   -5.13 KCAL/MOL
REMARK 922        TOTAL FREE ENERGY PREDICTED BY IDOCK:   -5.87 KCAL/MOL
REMARK 923 INTER-LIGAND FREE ENERGY PREDICTED BY IDOCK:   -5.68 KCAL/MOL
REMARK 924 INTRA-LIGAND FREE ENERGY PREDICTED BY IDOCK:   -0.19 KCAL/MOL
REMARK 927      BINDING AFFINITY PREDICTED BY RF-SCORE:    0.00 PKD
ROOT
HETATM    1  N   UNL     1     -12.199  11.517  63.125  1.00  0.00    -0.932 NA 
HETATM    2  C   UNL     1     -12.455  12.664  63.789  1.00  0.00    -0.420 C  
HETATM    3  H1  UNL     1     -12.198  10.714  63.753  1.00  0.00     0.000 HD 
HETATM    4  H2  UNL     1     -12.029  11.461  62.121  1.00  0.00     0.000 HD 
HETATM    5  N   UNL     1     -12.456  13.728  62.958  1.00  0.00    -1.000 NA 
HETATM    6  N   UNL     1     -12.690  12.614  65.047  1.00  0.00    -0.771 NA 
HETATM    7  H1  UNL     1     -12.650  14.595  63.460  1.00  0.00     0.000 HD 
HETATM    8  H2  UNL     1     -12.286  13.671  61.954  1.00  0.00     0.000 HD 
HETATM    9  H   UNL     1     -12.645  11.731  65.558  1.00  0.00     0.000 HD 
ENDROOT
BRANCH   6  10
HETATM   10  C   UNL     1     -13.023  13.860  65.728  1.00  0.00    -0.276 C  
BRANCH  10  11
HETATM   11  C   UNL     1     -11.949  14.264  66.709  1.00  0.00    -0.462 A  
HETATM   12  C   UNL     1     -10.935  15.154  66.325  1.00  0.00    -0.335 A  
HETATM   13  C   UNL     1      -9.930  15.504  67.230  1.00  0.00    -0.238 A  
HETATM   14  C   UNL     1      -9.933  14.987  68.525  1.00  0.00    -0.219 A  
HETATM   15  I   UNL     1      -8.414  16.799  66.640  1.00  0.00    -0.361 I  
HETATM   16  C   UNL     1     -10.953  14.124  68.922  1.00  0.00    -0.280 A  
HETATM   17  C   UNL     1     -11.959  13.767  68.021  1.00  0.00    -0.390 A  
ENDBRANCH  10  11
ENDBRANCH   6  10
TORSDOF 2
ENDMDL
MODEL       13
REMARK 921   NORMALIZED FREE ENERGY PREDICTED BY IDOCK:   -5.07 KCAL/MOL
REMARK 922        TOTAL FREE ENERGY PREDICTED BY IDOCK:   -5.80 KCAL/MOL
REMARK 923 INTER-LIGAND FREE ENERGY PREDICTED BY IDOCK:   -5.68 KCAL/MOL
REMARK 924 INTRA-LIGAND FREE ENERGY PREDICTED BY IDOCK:   -0.12 KCAL/MOL
REMARK 927      BINDING AFFINITY PREDICTED BY RF-SCORE:    0.00 PKD
ROOT
HETATM    1  N   UNL     1     -12.816  12.760  64.887  1.00  0.00    -0.825 NA 
HETATM    2  C   UNL     1     -11.941  12.940  65.898  1.00  0.00    -0.448 C  
HETATM    3  H1  UNL     1     -13.539  12.085  65.135  1.00  0.00     0.000 HD 
HETATM    4  H2  UNL     1     -12.762  13.239  63.989  1.00  0.00     0.000 HD 
HETATM    5  N   UNL     1     -10.984  13.834  65.571  1.00  0.00    -0.293 NA 
HETATM    6  N   UNL     1     -12.125  12.312  67.000  1.00  0.00    -0.543 NA 
HETATM    7  H1  UNL     1     -10.322  13.971  66.336  1.00  0.00     0.000 HD 
HETATM    8  H2  UNL     1     -10.929  14.313  64.673  1.00  0.00     0.000 HD 
HETATM    9  H   UNL     1     -12.895  11.651  67.107  1.00  0.00     0.000 HD 
ENDROOT
BRANCH   6  10
HETATM   10  C   UNL     1     -11.200  12.573  68.096  1.00  0.00    -0.267 C  
BRANCH  10  11
HETATM   11  C   UNL     1     -11.880  12.453  69.439  1.00  0.00    -0.365 A  
HETATM   12  C   UNL     1     -12.270  13.602  70.143  1.00  0.00    -0.413 A  
HETATM   13  C   UNL     1     -12.875  13.485  71.395  1.00  0.00    -0.355 A  
HETATM   14  C   UNL     1     -13.114  12.228  71.951  1.00  0.00    -0.469 A  
HETATM   15  I   UNL     1     -13.419  15.196  72.445  1.00  0.00    -0.725 I  
HETATM   16  C   UNL     1     -12.755  11.081  71.244  1.00  0.00    -0.537 A  
HETATM   17  C   UNL     1     -12.146  11.192  69.993  1.00  0.00    -0.437 A  
ENDBRANCH  10  11
ENDBRANCH   6  10
TORSDOF 2
ENDMDL
MODEL       14
REMARK 921   NORMALIZED FREE ENERGY PREDICTED BY IDOCK:   -5.05 KCAL/MOL
REMARK 922        TOTAL FREE ENERGY PREDICTED BY IDOCK:   -5.78 KCAL/MOL
REMARK 923 INTER-LIGAND FREE ENERGY PREDICTED BY IDOCK:   -5.60 KCAL/MOL
REMARK 924 INTRA-LIGAND FREE ENERGY PREDICTED BY IDOCK:   -0.18 KCAL/MOL
REMARK 927      BINDING AFFINITY PREDICTED BY RF-SCORE:    0.00 PKD
ROOT
HETATM    1  N   UNL     1     -13.198  12.273  64.287  1.00  0.00    -0.761 NA 
HETATM    2  C   UNL     1     -12.230  13.211  64.216  1.00  0.00    -0.396 C  
HETATM    3  H1  UNL     1     -13.030  11.620  65.052  1.00  0.00     0.000 HD 
HETATM    4  H2  UNL     1     -13.996  12.223  63.655  1.00  0.00     0.000 HD 
HETATM    5  N   UNL     1     -12.452  14.075  63.203  1.00  0.00    -1.070 NA 
HETATM    6  N   UNL     1     -11.290  13.201  65.086  1.00  0.00    -0.292 NA 
HETATM    7  H1  UNL     1     -11.720  14.785  63.150  1.00  0.00     0.000 HD 
HETATM    8  H2  UNL     1     -13.250  14.026  62.571  1.00  0.00     0.000 HD 
HETATM    9  H   UNL     1     -11.240  12.473  65.799  1.00  0.00     0.000 HD 
ENDROOT
BRANCH   6  10
HETATM   10  C   UNL     1     -10.292  14.262  65.023  1.00  0.00    -0.421 C  
BRANCH  10  11
HETATM   11  C   UNL     1     -10.473  15.263  66.140  1.00  0.00    -0.318 A  
HETATM   12  C   UNL     1     -10.232  16.627  65.917  1.00  0.00    -0.358 A  
HETATM   13  C   UNL     1     -10.377  17.543  66.960  1.00  0.00    -0.324 A  
HETATM   14  C   UNL     1     -10.778  17.118  68.226  1.00  0.00    -0.363 A  
HETATM   15  I   UNL     1      -9.986  19.559  66.627  1.00  0.00    -0.654 I  
HETATM   16  C   UNL     1     -11.046  15.767  68.447  1.00  0.00    -0.341 A  
HETATM   17  C   UNL     1     -10.899  14.845  67.409  1.00  0.00    -0.304 A  
ENDBRANCH  10  11
ENDBRANCH   6  10
TORSDOF 2
ENDMDL
MODEL       15
REMARK 921   NORMALIZED FREE ENERGY PREDICTED BY IDOCK:   -5.05 KCAL/MOL
REMARK 922        TOTAL FREE ENERGY PREDICTED BY IDOCK:   -5.78 KCAL/MOL
REMARK 923 INTER-LIGAND FREE ENERGY PREDICTED BY IDOCK:   -5.67 KCAL/MOL
REMARK 924 INTRA-LIGAND FREE ENERGY PREDICTED BY IDOCK:   -0.10 KCAL/MOL
REMARK 927      BINDING AFFINITY PREDICTED BY RF-SCORE:    0.00 PKD
ROOT
HETATM    1  N   UNL     1     -12.537  16.415  74.550  1.00  0.00    -0.915 NA 
HETATM    2  C   UNL     1     -12.955  15.957  73.351  1.00  0.00    -0.583 C  
HETATM    3  H1  UNL     1     -11.537  16.266  74.679  1.00  0.00     0.000 HD 
HETATM    4  H2  UNL     1     -13.146  16.856  75.239  1.00  0.00     0.000 HD 
HETATM    5  N   UNL     1     -14.280  16.154  73.180  1.00  0.00    -0.420 NA 
HETATM    6  N   UNL     1     -12.097  15.452  72.545  1.00  0.00    -0.386 NA 
HETATM    7  H1  UNL     1     -14.596  15.808  72.274  1.00  0.00     0.000 HD 
HETATM    8  H2  UNL     1     -14.888  16.594  73.870  1.00  0.00     0.000 HD 
HETATM    9  H   UNL     1     -11.117  15.354  72.813  1.00  0.00     0.000 HD 
ENDROOT
BRANCH   6  10
HETATM   10  C   UNL     1     -12.565  15.021  71.233  1.00  0.00    -0.339 C  
BRANCH  10  11
HETATM   11  C   UNL     1     -12.545  13.517  71.101  1.00  0.00    -0.438 A  
HETATM   12  C   UNL     1     -11.855  12.906  70.043  1.00  0.00    -0.356 A  
HETATM   13  C   UNL     1     -11.861  11.516  69.913  1.00  0.00    -0.355 A  
HETATM   14  C   UNL     1     -12.537  10.721  70.838  1.00  0.00    -0.498 A  
HETATM   15  I   UNL     1     -10.862  10.623  68.322  1.00  0.00    -0.362 I  
HETATM   16  C   UNL     1     -13.201  11.320  71.908  1.00  0.00    -0.491 A  
HETATM   17  C   UNL     1     -13.202  12.710  72.042  1.00  0.00    -0.531 A  
ENDBRANCH  10  11
ENDBRANCH   6  10
TORSDOF 2
ENDMDL
MODEL       16
REMARK 921   NORMALIZED FREE ENERGY PREDICTED BY IDOCK:   -5.02 KCAL/MOL
REMARK 922        TOTAL FREE ENERGY PREDICTED BY IDOCK:   -5.75 KCAL/MOL
REMARK 923 INTER-LIGAND FREE ENERGY PREDICTED BY IDOCK:   -5.58 KCAL/MOL
REMARK 924 INTRA-LIGAND FREE ENERGY PREDICTED BY IDOCK:   -0.17 KCAL/MOL
REMARK 927      BINDING AFFINITY PREDICTED BY RF-SCORE:    0.00 PKD
ROOT
HETATM    1  N   UNL     1     -14.284   8.872  73.206  1.00  0.00    -1.237 NA 
HETATM    2  C   UNL     1     -13.514   8.921  72.099  1.00  0.00    -0.448 C  
HETATM    3  H1  UNL     1     -13.906   9.455  73.952  1.00  0.00     0.000 HD 
HETATM    4  H2  UNL     1     -15.138   8.320  73.286  1.00  0.00     0.000 HD 
HETATM    5  N   UNL     1     -14.014   8.149  71.112  1.00  0.00    -0.602 NA 
HETATM    6  N   UNL     1     -12.479   9.677  72.096  1.00  0.00    -0.321 NA 
HETATM    7  H1  UNL     1     -13.432   8.187  70.275  1.00  0.00     0.000 HD 
HETATM    8  H2  UNL     1     -14.868   7.598  71.192  1.00  0.00     0.000 HD 
HETATM    9  H   UNL     1     -12.209  10.204  72.926  1.00  0.00     0.000 HD 
ENDROOT
BRANCH   6  10
HETATM   10  C   UNL     1     -11.699   9.759  70.866  1.00  0.00    -0.347 C  
BRANCH  10  11
HETATM   11  C   UNL     1     -11.863  11.100  70.192  1.00  0.00    -0.449 A  
HETATM   12  C   UNL     1     -11.732  11.216  68.800  1.00  0.00    -0.394 A  
HETATM   13  C   UNL     1     -11.860  12.463  68.185  1.00  0.00    -0.315 A  
HETATM   14  C   UNL     1     -12.134  13.601  68.943  1.00  0.00    -0.335 A  
HETATM   15  I   UNL     1     -11.631  12.628  66.125  1.00  0.00    -0.461 I  
HETATM   16  C   UNL     1     -12.294  13.488  70.324  1.00  0.00    -0.370 A  
HETATM   17  C   UNL     1     -12.163  12.245  70.945  1.00  0.00    -0.296 A  
ENDBRANCH  10  11
ENDBRANCH   6  10
TORSDOF 2
ENDMDL
MODEL       17
REMARK 921   NORMALIZED FREE ENERGY PREDICTED BY IDOCK:   -5.00 KCAL/MOL
REMARK 922        TOTAL FREE ENERGY PREDICTED BY IDOCK:   -5.73 KCAL/MOL
REMARK 923 INTER-LIGAND FREE ENERGY PREDICTED BY IDOCK:   -5.57 KCAL/MOL
REMARK 924 INTRA-LIGAND FREE ENERGY PREDICTED BY IDOCK:   -0.16 KCAL/MOL
REMARK 927      BINDING AFFINITY PREDICTED BY RF-SCORE:    0.00 PKD
ROOT
HETATM    1  N   UNL     1     -12.407  11.619  63.172  1.00  0.00    -0.966 NA 
HETATM    2  C   UNL     1     -12.387  12.716  63.957  1.00  0.00    -0.443 C  
HETATM    3  H1  UNL     1     -12.330  10.763  63.722  1.00  0.00     0.000 HD 
HETATM    4  H2  UNL     1     -12.488  11.641  62.156  1.00  0.00     0.000 HD 
HETATM    5  N   UNL     1     -12.488  13.848  63.229  1.00  0.00    -1.112 NA 
HETATM    6  N   UNL     1     -12.317  12.570  65.228  1.00  0.00    -0.612 NA 
HETATM    7  H1  UNL     1     -12.474  14.678  63.822  1.00  0.00     0.000 HD 
HETATM    8  H2  UNL     1     -12.570  13.871  62.212  1.00  0.00     0.000 HD 
HETATM    9  H   UNL     1     -12.234  11.643  65.648  1.00  0.00     0.000 HD 
ENDROOT
BRANCH   6  10
HETATM   10  C   UNL     1     -12.360  13.770  66.055  1.00  0.00    -0.457 C  
BRANCH  10  11
HETATM   11  C   UNL     1     -10.980  14.340  66.281  1.00  0.00    -0.317 A  
HETATM   12  C   UNL     1      -9.962  13.542  66.825  1.00  0.00    -0.269 A  
HETATM   13  C   UNL     1      -8.695  14.082  67.055  1.00  0.00    -0.203 A  
HETATM   14  C   UNL     1      -8.423  15.412  66.732  1.00  0.00    -0.307 A  
HETATM   15  I   UNL     1      -7.204  12.900  67.893  1.00  0.00    -0.181 I  
HETATM   16  C   UNL     1      -9.422  16.202  66.164  1.00  0.00    -0.362 A  
HETATM   17  C   UNL     1     -10.692  15.669  65.935  1.00  0.00    -0.336 A  
ENDBRANCH  10  11
ENDBRANCH   6  10
TORSDOF 2
ENDMDL
MODEL       18
REMARK 921   NORMALIZED FREE ENERGY PREDICTED BY IDOCK:   -5.00 KCAL/MOL
REMARK 922        TOTAL FREE ENERGY PREDICTED BY IDOCK:   -5.72 KCAL/MOL
REMARK 923 INTER-LIGAND FREE ENERGY PREDICTED BY IDOCK:   -5.60 KCAL/MOL
REMARK 924 INTRA-LIGAND FREE ENERGY PREDICTED BY IDOCK:   -0.12 KCAL/MOL
REMARK 927      BINDING AFFINITY PREDICTED BY RF-SCORE:    0.00 PKD
ROOT
HETATM    1  N   UNL     1     -10.542  11.061  63.064  1.00  0.00    -0.805 NA 
HETATM    2  C   UNL     1     -11.402  12.054  63.374  1.00  0.00    -0.397 C  
HETATM    3  H1  UNL     1      -9.585  11.301  63.322  1.00  0.00     0.000 HD 
HETATM    4  H2  UNL     1     -10.815  10.181  62.628  1.00  0.00     0.000 HD 
HETATM    5  N   UNL     1     -12.669  11.736  63.033  1.00  0.00    -0.866 NA 
HETATM    6  N   UNL     1     -10.955  13.104  63.955  1.00  0.00    -0.541 NA 
HETATM    7  H1  UNL     1     -13.319  12.487  63.268  1.00  0.00     0.000 HD 
HETATM    8  H2  UNL     1     -12.942  10.856  62.596  1.00  0.00     0.000 HD 
HETATM    9  H   UNL     1      -9.959  13.217  64.146  1.00  0.00     0.000 HD 
ENDROOT
BRANCH   6  10
HETATM   10  C   UNL     1     -11.915  14.134  64.334  1.00  0.00    -0.457 C  
BRANCH  10  11
HETATM   11  C   UNL     1     -11.439  14.928  65.527  1.00  0.00    -0.307 A  
HETATM   12  C   UNL     1     -11.766  14.520  66.828  1.00  0.00    -0.393 A  
HETATM   13  C   UNL     1     -11.344  15.272  67.926  1.00  0.00    -0.334 A  
HETATM   14  C   UNL     1     -10.579  16.424  67.742  1.00  0.00    -0.321 A  
HETATM   15  I   UNL     1     -11.864  14.676  69.849  1.00  0.00    -0.424 I  
HETATM   16  C   UNL     1     -10.225  16.819  66.453  1.00  0.00    -0.329 A  
HETATM   17  C   UNL     1     -10.648  16.074  65.351  1.00  0.00    -0.428 A  
ENDBRANCH  10  11
ENDBRANCH   6  10
TORSDOF 2
ENDMDL
MODEL       19
REMARK 921   NORMALIZED FREE ENERGY PREDICTED BY IDOCK:   -4.98 KCAL/MOL
REMARK 922        TOTAL FREE ENERGY PREDICTED BY IDOCK:   -5.70 KCAL/MOL
REMARK 923 INTER-LIGAND FREE ENERGY PREDICTED BY IDOCK:   -5.54 KCAL/MOL
REMARK 924 INTRA-LIGAND FREE ENERGY PREDICTED BY IDOCK:   -0.16 KCAL/MOL
REMARK 927      BINDING AFFINITY PREDICTED BY RF-SCORE:    0.00 PKD
ROOT
HETATM    1  N   UNL     1     -12.429  16.152  74.524  1.00  0.00    -0.864 NA 
HETATM    2  C   UNL     1     -12.932  15.928  73.292  1.00  0.00    -0.570 C  
HETATM    3  H1  UNL     1     -11.416  16.033  74.541  1.00  0.00     0.000 HD 
HETATM    4  H2  UNL     1     -12.990  16.406  75.336  1.00  0.00     0.000 HD 
HETATM    5  N   UNL     1     -14.273  16.084  73.269  1.00  0.00    -0.420 NA 
HETATM    6  N   UNL     1     -12.129  15.648  72.334  1.00  0.00    -0.410 NA 
HETATM    7  H1  UNL     1     -14.653  15.916  72.338  1.00  0.00     0.000 HD 
HETATM    8  H2  UNL     1     -14.834  16.339  74.081  1.00  0.00     0.000 HD 
HETATM    9  H   UNL     1     -11.127  15.551  72.498  1.00  0.00     0.000 HD 
ENDROOT
BRANCH   6  10
HETATM   10  C   UNL     1     -12.694  15.472  71.001  1.00  0.00    -0.467 C  
BRANCH  10  11
HETATM   11  C   UNL     1     -12.364  14.113  70.432  1.00  0.00    -0.428 A  
HETATM   12  C   UNL     1     -12.695  12.947  71.138  1.00  0.00    -0.366 A  
HETATM   13  C   UNL     1     -12.366  11.695  70.618  1.00  0.00    -0.344 A  
HETATM   14  C   UNL     1     -11.721  11.588  69.385  1.00  0.00    -0.413 A  
HETATM   15  I   UNL     1     -12.831   9.975  71.690  1.00  0.00    -0.544 I  
HETATM   16  C   UNL     1     -11.415  12.741  68.664  1.00  0.00    -0.341 A  
HETATM   17  C   UNL     1     -11.739  13.997  69.181  1.00  0.00    -0.375 A  
ENDBRANCH  10  11
ENDBRANCH   6  10
TORSDOF 2
ENDMDL
MODEL       20
REMARK 921   NORMALIZED FREE ENERGY PREDICTED BY IDOCK:   -4.97 KCAL/MOL
REMARK 922        TOTAL FREE ENERGY PREDICTED BY IDOCK:   -5.69 KCAL/MOL
REMARK 923 INTER-LIGAND FREE ENERGY PREDICTED BY IDOCK:   -5.54 KCAL/MOL
REMARK 924 INTRA-LIGAND FREE ENERGY PREDICTED BY IDOCK:   -0.14 KCAL/MOL
REMARK 927      BINDING AFFINITY PREDICTED BY RF-SCORE:    0.00 PKD
ROOT
HETATM    1  N   UNL     1     -13.147  11.594  62.859  1.00  0.00    -0.706 NA 
HETATM    2  C   UNL     1     -12.377  12.263  63.743  1.00  0.00    -0.538 C  
HETATM    3  H1  UNL     1     -14.055  11.357  63.257  1.00  0.00     0.000 HD 
HETATM    4  H2  UNL     1     -12.857  11.356  61.911  1.00  0.00     0.000 HD 
HETATM    5  N   UNL     1     -11.175  12.577  63.215  1.00  0.00    -0.719 NA 
HETATM    6  N   UNL     1     -12.857  12.542  64.897  1.00  0.00    -0.800 NA 
HETATM    7  H1  UNL     1     -10.594  13.083  63.883  1.00  0.00     0.000 HD 
HETATM    8  H2  UNL     1     -10.885  12.338  62.267  1.00  0.00     0.000 HD 
HETATM    9  H   UNL     1     -13.789  12.230  65.170  1.00  0.00     0.000 HD 
ENDROOT
BRANCH   6  10
HETATM   10  C   UNL     1     -12.027  13.319  65.810  1.00  0.00    -0.417 C  
BRANCH  10  11
HETATM   11  C   UNL     1     -11.688  12.537  67.057  1.00  0.00    -0.437 A  
HETATM   12  C   UNL     1     -11.142  11.248  66.961  1.00  0.00    -0.356 A  
HETATM   13  C   UNL     1     -10.855  10.522  68.118  1.00  0.00    -0.253 A  
HETATM   14  C   UNL     1     -11.089  11.073  69.377  1.00  0.00    -0.320 A  
HETATM   15  I   UNL     1     -10.078   8.598  67.964  1.00  0.00    -0.261 I  
HETATM   16  C   UNL     1     -11.604  12.365  69.480  1.00  0.00    -0.353 A  
HETATM   17  C   UNL     1     -11.898  13.096  68.327  1.00  0.00    -0.384 A  
ENDBRANCH  10  11
ENDBRANCH   6  10
TORSDOF 2
ENDMDL
MODEL       21
REMARK 921   NORMALIZED FREE ENERGY PREDICTED BY IDOCK:   -4.96 KCAL/MOL
REMARK 922        TOTAL FREE ENERGY PREDICTED BY IDOCK:   -5.68 KCAL/MOL
REMARK 923 INTER-LIGAND FREE ENERGY PREDICTED BY IDOCK:   -5.55 KCAL/MOL
REMARK 924 INTRA-LIGAND FREE ENERGY PREDICTED BY IDOCK:   -0.13 KCAL/MOL
REMARK 927      BINDING AFFINITY PREDICTED BY RF-SCORE:    0.00 PKD
ROOT
HETATM    1  N   UNL     1     -11.154  16.144  64.257  1.00  0.00    -1.134 NA 
HETATM    2  C   UNL     1     -11.839  15.019  64.548  1.00  0.00    -0.371 C  
HETATM    3  H1  UNL     1     -10.629  16.482  65.064  1.00  0.00     0.000 HD 
HETATM    4  H2  UNL     1     -11.160  16.600  63.345  1.00  0.00     0.000 HD 
HETATM    5  N   UNL     1     -12.534  14.572  63.480  1.00  0.00    -1.063 NA 
HETATM    6  N   UNL     1     -11.731  14.510  65.719  1.00  0.00    -0.358 NA 
HETATM    7  H1  UNL     1     -13.052  13.721  63.700  1.00  0.00     0.000 HD 
HETATM    8  H2  UNL     1     -12.540  15.028  62.568  1.00  0.00     0.000 HD 
HETATM    9  H   UNL     1     -11.172  14.965  66.441  1.00  0.00     0.000 HD 
ENDROOT
BRANCH   6  10
HETATM   10  C   UNL     1     -12.433  13.261  65.987  1.00  0.00    -0.321 C  
BRANCH  10  11
HETATM   11  C   UNL     1     -11.479  12.093  66.072  1.00  0.00    -0.427 A  
HETATM   12  C   UNL     1     -10.777  11.664  64.936  1.00  0.00    -0.352 A  
HETATM   13  C   UNL     1      -9.916  10.569  65.016  1.00  0.00    -0.322 A  
HETATM   14  C   UNL     1      -9.730   9.901  66.227  1.00  0.00    -0.281 A  
HETATM   15  I   UNL     1      -8.906   9.921  63.317  1.00  0.00    -0.273 I  
HETATM   16  C   UNL     1     -10.402  10.340  67.367  1.00  0.00    -0.282 A  
HETATM   17  C   UNL     1     -11.269  11.433  67.292  1.00  0.00    -0.370 A  
ENDBRANCH  10  11
ENDBRANCH   6  10
TORSDOF 2
ENDMDL
MODEL       22
REMARK 921   NORMALIZED FREE ENERGY PREDICTED BY IDOCK:   -4.94 KCAL/MOL
REMARK 922        TOTAL FREE ENERGY PREDICTED BY IDOCK:   -5.66 KCAL/MOL
REMARK 923 INTER-LIGAND FREE ENERGY PREDICTED BY IDOCK:   -5.53 KCAL/MOL
REMARK 924 INTRA-LIGAND FREE ENERGY PREDICTED BY IDOCK:   -0.13 KCAL/MOL
REMARK 927      BINDING AFFINITY PREDICTED BY RF-SCORE:    0.00 PKD
ROOT
HETATM    1  N   UNL     1     -11.083  11.273  63.044  1.00  0.00    -0.841 NA 
HETATM    2  C   UNL     1     -11.692  12.349  63.585  1.00  0.00    -0.514 C  
HETATM    3  H1  UNL     1     -10.074  11.409  62.975  1.00  0.00     0.000 HD 
HETATM    4  H2  UNL     1     -11.570  10.430  62.742  1.00  0.00     0.000 HD 
HETATM    5  N   UNL     1     -13.026  12.169  63.676  1.00  0.00    -0.790 NA 
HETATM    6  N   UNL     1     -10.977  13.343  63.963  1.00  0.00    -0.556 NA 
HETATM    7  H1  UNL     1     -13.487  12.983  64.086  1.00  0.00     0.000 HD 
HETATM    8  H2  UNL     1     -13.513  11.326  63.374  1.00  0.00     0.000 HD 
HETATM    9  H   UNL     1      -9.966  13.349  63.822  1.00  0.00     0.000 HD 
ENDROOT
BRANCH   6  10
HETATM   10  C   UNL     1     -11.654  14.466  64.601  1.00  0.00    -0.409 C  
BRANCH  10  11
HETATM   11  C   UNL     1     -10.701  15.291  65.433  1.00  0.00    -0.407 A  
HETATM   12  C   UNL     1     -10.892  16.674  65.568  1.00  0.00    -0.170 A  
HETATM   13  C   UNL     1      -9.993  17.435  66.318  1.00  0.00    -0.297 A  
HETATM   14  C   UNL     1      -8.910  16.828  66.954  1.00  0.00    -0.241 A  
HETATM   15  I   UNL     1     -10.266  19.490  66.485  1.00  0.00    -0.682 I  
HETATM   16  C   UNL     1      -8.731  15.449  66.847  1.00  0.00    -0.285 A  
HETATM   17  C   UNL     1      -9.624  14.683  66.095  1.00  0.00    -0.336 A  
ENDBRANCH  10  11
ENDBRANCH   6  10
TORSDOF 2
ENDMDL
MODEL       23
REMARK 921   NORMALIZED FREE ENERGY PREDICTED BY IDOCK:   -4.92 KCAL/MOL
REMARK 922        TOTAL FREE ENERGY PREDICTED BY IDOCK:   -5.63 KCAL/MOL
REMARK 923 INTER-LIGAND FREE ENERGY PREDICTED BY IDOCK:   -5.45 KCAL/MOL
REMARK 924 INTRA-LIGAND FREE ENERGY PREDICTED BY IDOCK:   -0.18 KCAL/MOL
REMARK 927      BINDING AFFINITY PREDICTED BY RF-SCORE:    0.00 PKD
ROOT
HETATM    1  N   UNL     1     -13.200  12.282  64.294  1.00  0.00    -0.761 NA 
HETATM    2  C   UNL     1     -12.228  13.216  64.251  1.00  0.00    -0.396 C  
HETATM    3  H1  UNL     1     -13.050  11.621  65.056  1.00  0.00     0.000 HD 
HETATM    4  H2  UNL     1     -13.986  12.241  63.646  1.00  0.00     0.000 HD 
HETATM    5  N   UNL     1     -12.426  14.091  63.242  1.00  0.00    -1.112 NA 
HETATM    6  N   UNL     1     -11.304  13.194  65.139  1.00  0.00    -0.292 NA 
HETATM    7  H1  UNL     1     -11.690  14.798  63.210  1.00  0.00     0.000 HD 
HETATM    8  H2  UNL     1     -13.212  14.050  62.594  1.00  0.00     0.000 HD 
HETATM    9  H   UNL     1     -11.272  12.459  65.846  1.00  0.00     0.000 HD 
ENDROOT
BRANCH   6  10
HETATM   10  C   UNL     1     -10.301  14.251  65.106  1.00  0.00    -0.415 C  
BRANCH  10  11
HETATM   11  C   UNL     1     -10.491  15.234  66.236  1.00  0.00    -0.313 A  
HETATM   12  C   UNL     1     -11.055  14.819  67.452  1.00  0.00    -0.327 A  
HETATM   13  C   UNL     1     -11.251  15.738  68.484  1.00  0.00    -0.354 A  
HETATM   14  C   UNL     1     -10.873  17.071  68.326  1.00  0.00    -0.341 A  
HETATM   15  I   UNL     1     -12.119  15.118  70.269  1.00  0.00    -0.455 I  
HETATM   16  C   UNL     1     -10.285  17.485  67.131  1.00  0.00    -0.323 A  
HETATM   17  C   UNL     1     -10.091  16.571  66.093  1.00  0.00    -0.365 A  
ENDBRANCH  10  11
ENDBRANCH   6  10
TORSDOF 2
ENDMDL
MODEL       24
REMARK 921   NORMALIZED FREE ENERGY PREDICTED BY IDOCK:   -4.91 KCAL/MOL
REMARK 922        TOTAL FREE ENERGY PREDICTED BY IDOCK:   -5.62 KCAL/MOL
REMARK 923 INTER-LIGAND FREE ENERGY PREDICTED BY IDOCK:   -5.49 KCAL/MOL
REMARK 924 INTRA-LIGAND FREE ENERGY PREDICTED BY IDOCK:   -0.13 KCAL/MOL
REMARK 927      BINDING AFFINITY PREDICTED BY RF-SCORE:    0.00 PKD
ROOT
HETATM    1  N   UNL     1     -12.635  14.545  63.469  1.00  0.00    -0.977 NA 
HETATM    2  C   UNL     1     -11.992  14.470  64.652  1.00  0.00    -0.468 C  
HETATM    3  H1  UNL     1     -13.537  14.070  63.502  1.00  0.00     0.000 HD 
HETATM    4  H2  UNL     1     -12.266  15.018  62.644  1.00  0.00     0.000 HD 
HETATM    5  N   UNL     1     -10.798  15.098  64.608  1.00  0.00    -0.632 NA 
HETATM    6  N   UNL     1     -12.565  13.880  65.635  1.00  0.00    -0.515 NA 
HETATM    7  H1  UNL     1     -10.312  15.042  65.503  1.00  0.00     0.000 HD 
HETATM    8  H2  UNL     1     -10.429  15.571  63.784  1.00  0.00     0.000 HD 
HETATM    9  H   UNL     1     -13.476  13.434  65.523  1.00  0.00     0.000 HD 
ENDROOT
BRANCH   6  10
HETATM   10  C   UNL     1     -11.874  13.867  66.919  1.00  0.00    -0.423 C  
BRANCH  10  11
HETATM   11  C   UNL     1     -11.528  12.462  67.351  1.00  0.00    -0.418 A  
HETATM   12  C   UNL     1     -11.858  12.013  68.638  1.00  0.00    -0.366 A  
HETATM   13  C   UNL     1     -11.513  10.722  69.040  1.00  0.00    -0.298 A  
HETATM   14  C   UNL     1     -10.854   9.860  68.163  1.00  0.00    -0.282 A  
HETATM   15  I   UNL     1     -11.978  10.078  70.962  1.00  0.00    -0.495 I  
HETATM   16  C   UNL     1     -10.548  10.290  66.873  1.00  0.00    -0.282 A  
HETATM   17  C   UNL     1     -10.887  11.582  66.466  1.00  0.00    -0.335 A  
ENDBRANCH  10  11
ENDBRANCH   6  10
TORSDOF 2
ENDMDL
MODEL       25
REMARK 921   NORMALIZED FREE ENERGY PREDICTED BY IDOCK:   -4.90 KCAL/MOL
REMARK 922        TOTAL FREE ENERGY PREDICTED BY IDOCK:   -5.61 KCAL/MOL
REMARK 923 INTER-LIGAND FREE ENERGY PREDICTED BY IDOCK:   -5.45 KCAL/MOL
REMARK 924 INTRA-LIGAND FREE ENERGY PREDICTED BY IDOCK:   -0.16 KCAL/MOL
REMARK 927      BINDING AFFINITY PREDICTED BY RF-SCORE:    0.00 PKD
ROOT
HETATM    1  N   UNL     1     -11.608  16.145  63.874  1.00  0.00    -1.469 NA 
HETATM    2  C   UNL     1     -11.991  14.934  64.330  1.00  0.00    -0.394 C  
HETATM    3  H1  UNL     1     -11.293  16.749  64.633  1.00  0.00     0.000 HD 
HETATM    4  H2  UNL     1     -11.632  16.422  62.893  1.00  0.00     0.000 HD 
HETATM    5  N   UNL     1     -12.409  14.136  63.326  1.00  0.00    -1.133 NA 
HETATM    6  N   UNL     1     -11.885  14.680  65.581  1.00  0.00    -0.314 NA 
HETATM    7  H1  UNL     1     -12.698  13.220  63.671  1.00  0.00     0.000 HD 
HETATM    8  H2  UNL     1     -12.433  14.413  62.345  1.00  0.00     0.000 HD 
HETATM    9  H   UNL     1     -11.559  15.390  66.238  1.00  0.00     0.000 HD 
ENDROOT
BRANCH   6  10
HETATM   10  C   UNL     1     -12.247  13.344  66.038  1.00  0.00    -0.437 C  
BRANCH  10  11
HETATM   11  C   UNL     1     -11.121  12.693  66.805  1.00  0.00    -0.318 A  
HETATM   12  C   UNL     1      -9.908  13.372  66.998  1.00  0.00    -0.250 A  
HETATM   13  C   UNL     1      -8.862  12.755  67.687  1.00  0.00    -0.189 A  
HETATM   14  C   UNL     1      -9.016  11.469  68.204  1.00  0.00    -0.172 A  
HETATM   15  I   UNL     1      -7.057  13.757  67.938  1.00  0.00    -0.205 I  
HETATM   16  C   UNL     1     -10.229  10.800  68.041  1.00  0.00    -0.203 A  
HETATM   17  C   UNL     1     -11.277  11.410  67.350  1.00  0.00    -0.370 A  
ENDBRANCH  10  11
ENDBRANCH   6  10
TORSDOF 2
ENDMDL
MODEL       26
REMARK 921   NORMALIZED FREE ENERGY PREDICTED BY IDOCK:   -4.89 KCAL/MOL
REMARK 922        TOTAL FREE ENERGY PREDICTED BY IDOCK:   -5.61 KCAL/MOL
REMARK 923 INTER-LIGAND FREE ENERGY PREDICTED BY IDOCK:   -5.54 KCAL/MOL
REMARK 924 INTRA-LIGAND FREE ENERGY PREDICTED BY IDOCK:   -0.07 KCAL/MOL
REMARK 927      BINDING AFFINITY PREDICTED BY RF-SCORE:    0.00 PKD
ROOT
HETATM    1  N   UNL     1     -11.818  16.012  63.917  1.00  0.00    -1.338 NA 
HETATM    2  C   UNL     1     -11.641  14.677  63.990  1.00  0.00     0.057 C  
HETATM    3  H1  UNL     1     -11.085  16.515  64.416  1.00  0.00     0.000 HD 
HETATM    4  H2  UNL     1     -12.589  16.463  63.424  1.00  0.00     0.000 HD 
HETATM    5  N   UNL     1     -12.612  14.011  63.330  1.00  0.00    -1.030 NA 
HETATM    6  N   UNL     1     -10.615  14.219  64.607  1.00  0.00    -0.576 NA 
HETATM    7  H1  UNL     1     -12.477  13.001  63.385  1.00  0.00     0.000 HD 
HETATM    8  H2  UNL     1     -13.382  14.461  62.837  1.00  0.00     0.000 HD 
HETATM    9  H   UNL     1      -9.959  14.845  65.076  1.00  0.00     0.000 HD 
ENDROOT
BRANCH   6  10
HETATM   10  C   UNL     1     -10.415  12.775  64.618  1.00  0.00    -0.350 C  
BRANCH  10  11
HETATM   11  C   UNL     1     -10.723  12.180  65.971  1.00  0.00    -0.308 A  
HETATM   12  C   UNL     1     -10.307  10.878  66.286  1.00  0.00    -0.306 A  
HETATM   13  C   UNL     1     -10.617  10.325  67.530  1.00  0.00    -0.268 A  
HETATM   14  C   UNL     1     -11.325  11.065  68.477  1.00  0.00    -0.355 A  
HETATM   15  I   UNL     1     -10.025   8.381  67.974  1.00  0.00    -0.263 I  
HETATM   16  C   UNL     1     -11.716  12.370  68.182  1.00  0.00    -0.408 A  
HETATM   17  C   UNL     1     -11.413  12.928  66.938  1.00  0.00    -0.393 A  
ENDBRANCH  10  11
ENDBRANCH   6  10
TORSDOF 2
ENDMDL
MODEL       27
REMARK 921   NORMALIZED FREE ENERGY PREDICTED BY IDOCK:   -4.88 KCAL/MOL
REMARK 922        TOTAL FREE ENERGY PREDICTED BY IDOCK:   -5.59 KCAL/MOL
REMARK 923 INTER-LIGAND FREE ENERGY PREDICTED BY IDOCK:   -5.45 KCAL/MOL
REMARK 924 INTRA-LIGAND FREE ENERGY PREDICTED BY IDOCK:   -0.15 KCAL/MOL
REMARK 927      BINDING AFFINITY PREDICTED BY RF-SCORE:    0.00 PKD
ROOT
HETATM    1  N   UNL     1     -12.027  16.443  71.664  1.00  0.00    -0.657 NA 
HETATM    2  C   UNL     1     -12.447  15.491  70.804  1.00  0.00    -0.440 C  
HETATM    3  H1  UNL     1     -11.012  16.540  71.648  1.00  0.00     0.000 HD 
HETATM    4  H2  UNL     1     -12.647  16.995  72.256  1.00  0.00     0.000 HD 
HETATM    5  N   UNL     1     -13.790  15.362  70.826  1.00  0.00    -0.860 NA 
HETATM    6  N   UNL     1     -11.582  14.882  70.082  1.00  0.00    -0.274 NA 
HETATM    7  H1  UNL     1     -14.107  14.642  70.176  1.00  0.00     0.000 HD 
HETATM    8  H2  UNL     1     -14.410  15.914  71.418  1.00  0.00     0.000 HD 
HETATM    9  H   UNL     1     -10.584  15.075  70.177  1.00  0.00     0.000 HD 
ENDROOT
BRANCH   6  10
HETATM   10  C   UNL     1     -12.069  13.902  69.117  1.00  0.00    -0.338 C  
BRANCH  10  11
HETATM   11  C   UNL     1     -11.646  14.249  67.710  1.00  0.00    -0.383 A  
HETATM   12  C   UNL     1     -11.923  13.373  66.649  1.00  0.00    -0.452 A  
HETATM   13  C   UNL     1     -11.507  13.688  65.354  1.00  0.00    -0.311 A  
HETATM   14  C   UNL     1     -10.829  14.880  65.098  1.00  0.00    -0.428 A  
HETATM   15  I   UNL     1     -11.894  12.367  63.795  1.00  0.00    -0.672 I  
HETATM   16  C   UNL     1     -10.576  15.768  66.143  1.00  0.00    -0.318 A  
HETATM   17  C   UNL     1     -10.986  15.457  67.441  1.00  0.00    -0.312 A  
ENDBRANCH  10  11
ENDBRANCH   6  10
TORSDOF 2
ENDMDL
MODEL       28
REMARK 921   NORMALIZED FREE ENERGY PREDICTED BY IDOCK:   -4.88 KCAL/MOL
REMARK 922        TOTAL FREE ENERGY PREDICTED BY IDOCK:   -5.59 KCAL/MOL
REMARK 923 INTER-LIGAND FREE ENERGY PREDICTED BY IDOCK:   -5.39 KCAL/MOL
REMARK 924 INTRA-LIGAND FREE ENERGY PREDICTED BY IDOCK:   -0.19 KCAL/MOL
REMARK 927      BINDING AFFINITY PREDICTED BY RF-SCORE:    0.00 PKD
ROOT
HETATM    1  N   UNL     1     -13.002  13.679  65.240  1.00  0.00    -0.737 NA 
HETATM    2  C   UNL     1     -12.172  13.524  66.292  1.00  0.00    -0.416 C  
HETATM    3  H1  UNL     1     -13.635  14.467  65.376  1.00  0.00     0.000 HD 
HETATM    4  H2  UNL     1     -12.997  13.083  64.413  1.00  0.00     0.000 HD 
HETATM    5  N   UNL     1     -11.334  12.481  66.113  1.00  0.00    -0.324 NA 
HETATM    6  N   UNL     1     -12.240  14.354  67.266  1.00  0.00    -0.608 NA 
HETATM    7  H1  UNL     1     -10.706  12.363  66.909  1.00  0.00     0.000 HD 
HETATM    8  H2  UNL     1     -11.330  11.885  65.286  1.00  0.00     0.000 HD 
HETATM    9  H   UNL     1     -12.937  15.099  67.275  1.00  0.00     0.000 HD 
ENDROOT
BRANCH   6  10
HETATM   10  C   UNL     1     -11.290  14.200  68.361  1.00  0.00    -0.287 C  
BRANCH  10  11
HETATM   11  C   UNL     1     -11.969  13.728  69.625  1.00  0.00    -0.399 A  
HETATM   12  C   UNL     1     -12.027  12.360  69.932  1.00  0.00    -0.369 A  
HETATM   13  C   UNL     1     -12.678  11.929  71.089  1.00  0.00    -0.284 A  
HETATM   14  C   UNL     1     -13.260  12.850  71.959  1.00  0.00    -0.549 A  
HETATM   15  I   UNL     1     -12.788   9.897  71.517  1.00  0.00    -0.587 I  
HETATM   16  C   UNL     1     -13.181  14.213  71.675  1.00  0.00    -0.426 A  
HETATM   17  C   UNL     1     -12.535  14.651  70.517  1.00  0.00    -0.408 A  
ENDBRANCH  10  11
ENDBRANCH   6  10
TORSDOF 2
ENDMDL
MODEL       29
REMARK 921   NORMALIZED FREE ENERGY PREDICTED BY IDOCK:   -4.87 KCAL/MOL
REMARK 922        TOTAL FREE ENERGY PREDICTED BY IDOCK:   -5.58 KCAL/MOL
REMARK 923 INTER-LIGAND FREE ENERGY PREDICTED BY IDOCK:   -5.43 KCAL/MOL
REMARK 924 INTRA-LIGAND FREE ENERGY PREDICTED BY IDOCK:   -0.15 KCAL/MOL
REMARK 927      BINDING AFFINITY PREDICTED BY RF-SCORE:    0.00 PKD
ROOT
HETATM    1  N   UNL     1     -12.264   6.843  70.520  1.00  0.00    -0.601 NA 
HETATM    2  C   UNL     1     -12.495   7.814  71.429  1.00  0.00    -0.320 C  
HETATM    3  H1  UNL     1     -12.640   7.090  69.605  1.00  0.00     0.000 HD 
HETATM    4  H2  UNL     1     -11.776   5.972  70.724  1.00  0.00     0.000 HD 
HETATM    5  N   UNL     1     -11.998   7.487  72.640  1.00  0.00    -0.560 NA 
HETATM    6  N   UNL     1     -13.088   8.886  71.055  1.00  0.00    -0.519 NA 
HETATM    7  H1  UNL     1     -12.172   8.222  73.327  1.00  0.00     0.000 HD 
HETATM    8  H2  UNL     1     -11.510   6.616  72.844  1.00  0.00     0.000 HD 
HETATM    9  H   UNL     1     -13.424   8.997  70.097  1.00  0.00     0.000 HD 
ENDROOT
BRANCH   6  10
HETATM   10  C   UNL     1     -13.269   9.944  72.042  1.00  0.00    -0.456 C  
BRANCH  10  11
HETATM   11  C   UNL     1     -12.939  11.302  71.469  1.00  0.00    -0.520 A  
HETATM   12  C   UNL     1     -12.245  11.412  70.255  1.00  0.00    -0.433 A  
HETATM   13  C   UNL     1     -11.921  12.670  69.744  1.00  0.00    -0.295 A  
HETATM   14  C   UNL     1     -12.298  13.828  70.423  1.00  0.00    -0.423 A  
HETATM   15  I   UNL     1     -10.861  12.820  67.961  1.00  0.00    -0.316 I  
HETATM   16  C   UNL     1     -13.014  13.727  71.616  1.00  0.00    -0.448 A  
HETATM   17  C   UNL     1     -13.337  12.472  72.134  1.00  0.00    -0.540 A  
ENDBRANCH  10  11
ENDBRANCH   6  10
TORSDOF 2
ENDMDL
MODEL       30
REMARK 921   NORMALIZED FREE ENERGY PREDICTED BY IDOCK:   -4.85 KCAL/MOL
REMARK 922        TOTAL FREE ENERGY PREDICTED BY IDOCK:   -5.56 KCAL/MOL
REMARK 923 INTER-LIGAND FREE ENERGY PREDICTED BY IDOCK:   -5.54 KCAL/MOL
REMARK 924 INTRA-LIGAND FREE ENERGY PREDICTED BY IDOCK:   -0.02 KCAL/MOL
REMARK 927      BINDING AFFINITY PREDICTED BY RF-SCORE:    0.00 PKD
ROOT
HETATM    1  N   UNL     1     -12.342  16.455  72.080  1.00  0.00    -0.531 NA 
HETATM    2  C   UNL     1     -13.092  15.350  71.889  1.00  0.00    -0.429 C  
HETATM    3  H1  UNL     1     -11.656  16.318  72.822  1.00  0.00     0.000 HD 
HETATM    4  H2  UNL     1     -12.448  17.319  71.549  1.00  0.00     0.000 HD 
HETATM    5  N   UNL     1     -14.000  15.531  70.907  1.00  0.00    -0.853 NA 
HETATM    6  N   UNL     1     -12.849  14.305  72.590  1.00  0.00    -0.392 NA 
HETATM    7  H1  UNL     1     -14.567  14.695  70.762  1.00  0.00     0.000 HD 
HETATM    8  H2  UNL     1     -14.106  16.395  70.376  1.00  0.00     0.000 HD 
HETATM    9  H   UNL     1     -12.130  14.312  73.314  1.00  0.00     0.000 HD 
ENDROOT
BRANCH   6  10
HETATM   10  C   UNL     1     -13.633  13.106  72.320  1.00  0.00    -0.581 C  
BRANCH  10  11
HETATM   11  C   UNL     1     -12.849  12.097  71.516  1.00  0.00    -0.394 A  
HETATM   12  C   UNL     1     -12.813  10.750  71.907  1.00  0.00    -0.460 A  
HETATM   13  C   UNL     1     -12.065   9.827  71.173  1.00  0.00    -0.370 A  
HETATM   14  C   UNL     1     -11.361  10.229  70.038  1.00  0.00    -0.370 A  
HETATM   15  I   UNL     1     -11.992   7.840  71.781  1.00  0.00    -0.408 I  
HETATM   16  C   UNL     1     -11.416  11.560  69.627  1.00  0.00    -0.373 A  
HETATM   17  C   UNL     1     -12.159  12.489  70.359  1.00  0.00    -0.380 A  
ENDBRANCH  10  11
ENDBRANCH   6  10
TORSDOF 2
ENDMDL
MODEL       31
REMARK 921   NORMALIZED FREE ENERGY PREDICTED BY IDOCK:   -4.84 KCAL/MOL
REMARK 922        TOTAL FREE ENERGY PREDICTED BY IDOCK:   -5.54 KCAL/MOL
REMARK 923 INTER-LIGAND FREE ENERGY PREDICTED BY IDOCK:   -5.35 KCAL/MOL
REMARK 924 INTRA-LIGAND FREE ENERGY PREDICTED BY IDOCK:   -0.19 KCAL/MOL
REMARK 927      BINDING AFFINITY PREDICTED BY RF-SCORE:    0.00 PKD
ROOT
HETATM    1  N   UNL     1     -11.255  16.653  64.263  1.00  0.00    -1.380 NA 
HETATM    2  C   UNL     1     -10.678  15.726  65.056  1.00  0.00    -0.421 C  
HETATM    3  H1  UNL     1     -11.222  17.580  64.686  1.00  0.00     0.000 HD 
HETATM    4  H2  UNL     1     -11.671  16.451  63.355  1.00  0.00     0.000 HD 
HETATM    5  N   UNL     1     -10.721  14.499  64.497  1.00  0.00    -0.618 NA 
HETATM    6  N   UNL     1     -10.153  16.097  66.165  1.00  0.00    -0.317 NA 
HETATM    7  H1  UNL     1     -10.284  13.798  65.096  1.00  0.00     0.000 HD 
HETATM    8  H2  UNL     1     -11.138  14.297  63.588  1.00  0.00     0.000 HD 
HETATM    9  H   UNL     1     -10.202  17.069  66.472  1.00  0.00     0.000 HD 
ENDROOT
BRANCH   6  10
HETATM   10  C   UNL     1      -9.481  15.086  66.973  1.00  0.00    -0.229 C  
BRANCH  10  11
HETATM   11  C   UNL     1     -10.390  14.540  68.049  1.00  0.00    -0.229 A  
HETATM   12  C   UNL     1     -10.711  15.320  69.170  1.00  0.00    -0.251 A  
HETATM   13  C   UNL     1     -11.531  14.800  70.173  1.00  0.00    -0.266 A  
HETATM   14  C   UNL     1     -12.052  13.510  70.064  1.00  0.00    -0.411 A  
HETATM   15  I   UNL     1     -11.974  15.952  71.847  1.00  0.00    -0.587 I  
HETATM   16  C   UNL     1     -11.760  12.741  68.938  1.00  0.00    -0.370 A  
HETATM   17  C   UNL     1     -10.937  13.254  67.933  1.00  0.00    -0.270 A  
ENDBRANCH  10  11
ENDBRANCH   6  10
TORSDOF 2
ENDMDL
MODEL       32
REMARK 921   NORMALIZED FREE ENERGY PREDICTED BY IDOCK:   -4.81 KCAL/MOL
REMARK 922        TOTAL FREE ENERGY PREDICTED BY IDOCK:   -5.51 KCAL/MOL
REMARK 923 INTER-LIGAND FREE ENERGY PREDICTED BY IDOCK:   -5.38 KCAL/MOL
REMARK 924 INTRA-LIGAND FREE ENERGY PREDICTED BY IDOCK:   -0.13 KCAL/MOL
REMARK 927      BINDING AFFINITY PREDICTED BY RF-SCORE:    0.00 PKD
ROOT
HETATM    1  N   UNL     1     -13.816   7.551  72.197  1.00  0.00    -0.544 NA 
HETATM    2  C   UNL     1     -12.850   8.448  71.908  1.00  0.00    -0.353 C  
HETATM    3  H1  UNL     1     -14.669   7.737  71.671  1.00  0.00     0.000 HD 
HETATM    4  H2  UNL     1     -13.706   6.783  72.859  1.00  0.00     0.000 HD 
HETATM    5  N   UNL     1     -11.720   8.202  72.604  1.00  0.00    -0.483 NA 
HETATM    6  N   UNL     1     -13.085   9.353  71.032  1.00  0.00    -0.543 NA 
HETATM    7  H1  UNL     1     -10.990   8.880  72.385  1.00  0.00     0.000 HD 
HETATM    8  H2  UNL     1     -11.610   7.435  73.266  1.00  0.00     0.000 HD 
HETATM    9  H   UNL     1     -14.000   9.429  70.585  1.00  0.00     0.000 HD 
ENDROOT
BRANCH   6  10
HETATM   10  C   UNL     1     -12.004  10.271  70.693  1.00  0.00    -0.342 C  
BRANCH  10  11
HETATM   11  C   UNL     1     -12.391  11.707  70.951  1.00  0.00    -0.436 A  
HETATM   12  C   UNL     1     -11.861  12.739  70.162  1.00  0.00    -0.326 A  
HETATM   13  C   UNL     1     -12.204  14.067  70.421  1.00  0.00    -0.363 A  
HETATM   14  C   UNL     1     -13.088  14.381  71.453  1.00  0.00    -0.416 A  
HETATM   15  I   UNL     1     -11.385  15.591  69.267  1.00  0.00    -0.423 I  
HETATM   16  C   UNL     1     -13.642  13.358  72.223  1.00  0.00    -0.703 A  
HETATM   17  C   UNL     1     -13.300  12.028  71.971  1.00  0.00    -0.447 A  
ENDBRANCH  10  11
ENDBRANCH   6  10
TORSDOF 2
ENDMDL
MODEL       33
REMARK 921   NORMALIZED FREE ENERGY PREDICTED BY IDOCK:   -4.78 KCAL/MOL
REMARK 922        TOTAL FREE ENERGY PREDICTED BY IDOCK:   -5.48 KCAL/MOL
REMARK 923 INTER-LIGAND FREE ENERGY PREDICTED BY IDOCK:   -5.35 KCAL/MOL
REMARK 924 INTRA-LIGAND FREE ENERGY PREDICTED BY IDOCK:   -0.13 KCAL/MOL
REMARK 927      BINDING AFFINITY PREDICTED BY RF-SCORE:    0.00 PKD
ROOT
HETATM    1  N   UNL     1     -11.982  16.265  71.818  1.00  0.00    -0.641 NA 
HETATM    2  C   UNL     1     -12.371  15.263  71.002  1.00  0.00    -0.367 C  
HETATM    3  H1  UNL     1     -11.013  16.152  72.114  1.00  0.00     0.000 HD 
HETATM    4  H2  UNL     1     -12.582  17.039  72.103  1.00  0.00     0.000 HD 
HETATM    5  N   UNL     1     -13.654  15.413  70.611  1.00  0.00    -0.826 NA 
HETATM    6  N   UNL     1     -11.523  14.360  70.680  1.00  0.00    -0.497 NA 
HETATM    7  H1  UNL     1     -13.948  14.656  69.993  1.00  0.00     0.000 HD 
HETATM    8  H2  UNL     1     -14.254  16.186  70.896  1.00  0.00     0.000 HD 
HETATM    9  H   UNL     1     -10.577  14.364  71.063  1.00  0.00     0.000 HD 
ENDROOT
BRANCH   6  10
HETATM   10  C   UNL     1     -11.951  13.323  69.748  1.00  0.00    -0.324 C  
BRANCH  10  11
HETATM   11  C   UNL     1     -12.062  11.977  70.424  1.00  0.00    -0.407 A  
HETATM   12  C   UNL     1     -11.239  10.913  70.026  1.00  0.00    -0.340 A  
HETATM   13  C   UNL     1     -11.363   9.665  70.638  1.00  0.00    -0.312 A  
HETATM   14  C   UNL     1     -12.292   9.466  71.660  1.00  0.00    -0.465 A  
HETATM   15  I   UNL     1     -10.161   8.085  70.017  1.00  0.00    -0.216 I  
HETATM   16  C   UNL     1     -13.092  10.528  72.080  1.00  0.00    -0.511 A  
HETATM   17  C   UNL     1     -12.976  11.778  71.469  1.00  0.00    -0.446 A  
ENDBRANCH  10  11
ENDBRANCH   6  10
TORSDOF 2
ENDMDL
MODEL       34
REMARK 921   NORMALIZED FREE ENERGY PREDICTED BY IDOCK:   -4.78 KCAL/MOL
REMARK 922        TOTAL FREE ENERGY PREDICTED BY IDOCK:   -5.48 KCAL/MOL
REMARK 923 INTER-LIGAND FREE ENERGY PREDICTED BY IDOCK:   -5.44 KCAL/MOL
REMARK 924 INTRA-LIGAND FREE ENERGY PREDICTED BY IDOCK:   -0.05 KCAL/MOL
REMARK 927      BINDING AFFINITY PREDICTED BY RF-SCORE:    0.00 PKD
ROOT
HETATM    1  N   UNL     1     -12.440  13.757  63.318  1.00  0.00    -1.092 NA 
HETATM    2  C   UNL     1     -11.831  12.559  63.434  1.00  0.00    -0.503 C  
HETATM    3  H1  UNL     1     -11.859  14.509  63.689  1.00  0.00     0.000 HD 
HETATM    4  H2  UNL     1     -13.365  13.894  62.912  1.00  0.00     0.000 HD 
HETATM    5  N   UNL     1     -12.600  11.563  62.944  1.00  0.00    -0.874 NA 
HETATM    6  N   UNL     1     -10.651  12.507  63.929  1.00  0.00    -0.421 NA 
HETATM    7  H1  UNL     1     -12.139  10.657  63.031  1.00  0.00     0.000 HD 
HETATM    8  H2  UNL     1     -13.525  11.700  62.538  1.00  0.00     0.000 HD 
HETATM    9  H   UNL     1     -10.186  13.348  64.273  1.00  0.00     0.000 HD 
ENDROOT
BRANCH   6  10
HETATM   10  C   UNL     1      -9.992  11.207  63.985  1.00  0.00    -0.323 C  
BRANCH  10  11
HETATM   11  C   UNL     1     -10.164  10.553  65.335  1.00  0.00    -0.340 A  
HETATM   12  C   UNL     1     -10.734  11.264  66.401  1.00  0.00    -0.320 A  
HETATM   13  C   UNL     1     -10.867  10.662  67.653  1.00  0.00    -0.292 A  
HETATM   14  C   UNL     1     -10.453   9.345  67.853  1.00  0.00    -0.296 A  
HETATM   15  I   UNL     1     -11.682  11.736  69.236  1.00  0.00    -0.386 I  
HETATM   16  C   UNL     1      -9.913   8.623  66.790  1.00  0.00    -0.343 A  
HETATM   17  C   UNL     1      -9.773   9.221  65.536  1.00  0.00    -0.247 A  
ENDBRANCH  10  11
ENDBRANCH   6  10
TORSDOF 2
ENDMDL
MODEL       35
REMARK 921   NORMALIZED FREE ENERGY PREDICTED BY IDOCK:   -4.76 KCAL/MOL
REMARK 922        TOTAL FREE ENERGY PREDICTED BY IDOCK:   -5.46 KCAL/MOL
REMARK 923 INTER-LIGAND FREE ENERGY PREDICTED BY IDOCK:   -5.31 KCAL/MOL
REMARK 924 INTRA-LIGAND FREE ENERGY PREDICTED BY IDOCK:   -0.15 KCAL/MOL
REMARK 927      BINDING AFFINITY PREDICTED BY RF-SCORE:    0.00 PKD
ROOT
HETATM    1  N   UNL     1     -14.023  15.641  72.837  1.00  0.00    -0.593 NA 
HETATM    2  C   UNL     1     -13.013  15.706  71.944  1.00  0.00    -0.463 C  
HETATM    3  H1  UNL     1     -14.906  15.400  72.387  1.00  0.00     0.000 HD 
HETATM    4  H2  UNL     1     -13.917  15.810  73.837  1.00  0.00     0.000 HD 
HETATM    5  N   UNL     1     -11.845  16.026  72.540  1.00  0.00    -0.506 NA 
HETATM    6  N   UNL     1     -13.253  15.439  70.715  1.00  0.00    -0.667 NA 
HETATM    7  H1  UNL     1     -11.082  16.075  71.865  1.00  0.00     0.000 HD 
HETATM    8  H2  UNL     1     -11.739  16.195  73.540  1.00  0.00     0.000 HD 
HETATM    9  H   UNL     1     -14.198  15.220  70.398  1.00  0.00     0.000 HD 
ENDROOT
BRANCH   6  10
HETATM   10  C   UNL     1     -12.133  15.457  69.782  1.00  0.00    -0.347 C  
BRANCH  10  11
HETATM   11  C   UNL     1     -11.985  14.137  69.063  1.00  0.00    -0.376 A  
HETATM   12  C   UNL     1     -11.915  14.096  67.662  1.00  0.00    -0.405 A  
HETATM   13  C   UNL     1     -11.803  12.870  67.003  1.00  0.00    -0.374 A  
HETATM   14  C   UNL     1     -11.744  11.680  67.726  1.00  0.00    -0.315 A  
HETATM   15  I   UNL     1     -11.734  12.818  64.925  1.00  0.00    -0.494 I  
HETATM   16  C   UNL     1     -11.784  11.716  69.119  1.00  0.00    -0.390 A  
HETATM   17  C   UNL     1     -11.899  12.938  69.785  1.00  0.00    -0.380 A  
ENDBRANCH  10  11
ENDBRANCH   6  10
TORSDOF 2
ENDMDL
MODEL       36
REMARK 921   NORMALIZED FREE ENERGY PREDICTED BY IDOCK:   -4.76 KCAL/MOL
REMARK 922        TOTAL FREE ENERGY PREDICTED BY IDOCK:   -5.45 KCAL/MOL
REMARK 923 INTER-LIGAND FREE ENERGY PREDICTED BY IDOCK:   -5.30 KCAL/MOL
REMARK 924 INTRA-LIGAND FREE ENERGY PREDICTED BY IDOCK:   -0.16 KCAL/MOL
REMARK 927      BINDING AFFINITY PREDICTED BY RF-SCORE:    0.00 PKD
ROOT
HETATM    1  N   UNL     1     -13.349  11.152  72.249  1.00  0.00    -0.552 NA 
HETATM    2  C   UNL     1     -12.806  10.746  71.082  1.00  0.00    -0.414 C  
HETATM    3  H1  UNL     1     -12.929  12.023  72.574  1.00  0.00     0.000 HD 
HETATM    4  H2  UNL     1     -14.086  10.651  72.744  1.00  0.00     0.000 HD 
HETATM    5  N   UNL     1     -13.360   9.593  70.652  1.00  0.00    -0.586 NA 
HETATM    6  N   UNL     1     -11.908  11.473  70.528  1.00  0.00    -0.468 NA 
HETATM    7  H1  UNL     1     -12.950   9.286  69.770  1.00  0.00     0.000 HD 
HETATM    8  H2  UNL     1     -14.098   9.092  71.147  1.00  0.00     0.000 HD 
HETATM    9  H   UNL     1     -11.571  12.326  70.976  1.00  0.00     0.000 HD 
ENDROOT
BRANCH   6  10
HETATM   10  C   UNL     1     -11.383  11.042  69.238  1.00  0.00    -0.282 C  
BRANCH  10  11
HETATM   11  C   UNL     1     -11.543  12.113  68.186  1.00  0.00    -0.397 A  
HETATM   12  C   UNL     1     -11.512  11.781  66.823  1.00  0.00    -0.352 A  
HETATM   13  C   UNL     1     -11.637  12.779  65.855  1.00  0.00    -0.382 A  
HETATM   14  C   UNL     1     -11.810  14.111  66.230  1.00  0.00    -0.427 A  
HETATM   15  I   UNL     1     -11.555  12.279  63.838  1.00  0.00    -0.633 I  
HETATM   16  C   UNL     1     -11.871  14.445  67.583  1.00  0.00    -0.412 A  
HETATM   17  C   UNL     1     -11.743  13.452  68.556  1.00  0.00    -0.392 A  
ENDBRANCH  10  11
ENDBRANCH   6  10
TORSDOF 2
ENDMDL
MODEL       37
REMARK 921   NORMALIZED FREE ENERGY PREDICTED BY IDOCK:   -4.75 KCAL/MOL
REMARK 922        TOTAL FREE ENERGY PREDICTED BY IDOCK:   -5.44 KCAL/MOL
REMARK 923 INTER-LIGAND FREE ENERGY PREDICTED BY IDOCK:   -5.30 KCAL/MOL
REMARK 924 INTRA-LIGAND FREE ENERGY PREDICTED BY IDOCK:   -0.14 KCAL/MOL
REMARK 927      BINDING AFFINITY PREDICTED BY RF-SCORE:    0.00 PKD
ROOT
HETATM    1  N   UNL     1     -12.273  15.303  74.513  1.00  0.00    -0.738 NA 
HETATM    2  C   UNL     1     -12.699  15.463  73.242  1.00  0.00    -0.508 C  
HETATM    3  H1  UNL     1     -11.296  15.013  74.546  1.00  0.00     0.000 HD 
HETATM    4  H2  UNL     1     -12.855  15.454  75.337  1.00  0.00     0.000 HD 
HETATM    5  N   UNL     1     -13.993  15.846  73.198  1.00  0.00    -0.644 NA 
HETATM    6  N   UNL     1     -11.872  15.281  72.282  1.00  0.00    -0.411 NA 
HETATM    7  H1  UNL     1     -14.315  15.967  72.238  1.00  0.00     0.000 HD 
HETATM    8  H2  UNL     1     -14.575  15.997  74.022  1.00  0.00     0.000 HD 
HETATM    9  H   UNL     1     -10.914  14.978  72.462  1.00  0.00     0.000 HD 
ENDROOT
BRANCH   6  10
HETATM   10  C   UNL     1     -12.342  15.520  70.923  1.00  0.00    -0.422 C  
BRANCH  10  11
HETATM   11  C   UNL     1     -12.102  14.324  70.032  1.00  0.00    -0.400 A  
HETATM   12  C   UNL     1     -11.740  14.501  68.688  1.00  0.00    -0.364 A  
HETATM   13  C   UNL     1     -11.544  13.391  67.864  1.00  0.00    -0.339 A  
HETATM   14  C   UNL     1     -11.688  12.099  68.369  1.00  0.00    -0.388 A  
HETATM   15  I   UNL     1     -11.041  13.665  65.864  1.00  0.00    -0.319 I  
HETATM   16  C   UNL     1     -12.018  11.916  69.711  1.00  0.00    -0.377 A  
HETATM   17  C   UNL     1     -12.220  13.022  70.540  1.00  0.00    -0.392 A  
ENDBRANCH  10  11
ENDBRANCH   6  10
TORSDOF 2
ENDMDL
MODEL       38
REMARK 921   NORMALIZED FREE ENERGY PREDICTED BY IDOCK:   -4.74 KCAL/MOL
REMARK 922        TOTAL FREE ENERGY PREDICTED BY IDOCK:   -5.43 KCAL/MOL
REMARK 923 INTER-LIGAND FREE ENERGY PREDICTED BY IDOCK:   -5.34 KCAL/MOL
REMARK 924 INTRA-LIGAND FREE ENERGY PREDICTED BY IDOCK:   -0.09 KCAL/MOL
REMARK 927      BINDING AFFINITY PREDICTED BY RF-SCORE:    0.00 PKD
ROOT
HETATM    1  N   UNL     1     -10.360  10.907  62.724  1.00  0.00    -0.783 NA 
HETATM    2  C   UNL     1     -11.156  11.764  63.397  1.00  0.00    -0.365 C  
HETATM    3  H1  UNL     1      -9.385  11.003  63.006  1.00  0.00     0.000 HD 
HETATM    4  H2  UNL     1     -10.692  10.247  62.021  1.00  0.00     0.000 HD 
HETATM    5  N   UNL     1     -12.447  11.638  63.023  1.00  0.00    -0.937 NA 
HETATM    6  N   UNL     1     -10.637  12.527  64.286  1.00  0.00    -0.343 NA 
HETATM    7  H1  UNL     1     -13.049  12.285  63.532  1.00  0.00     0.000 HD 
HETATM    8  H2  UNL     1     -12.779  10.977  62.321  1.00  0.00     0.000 HD 
HETATM    9  H   UNL     1      -9.632  12.525  64.460  1.00  0.00     0.000 HD 
ENDROOT
BRANCH   6  10
HETATM   10  C   UNL     1     -11.530  13.398  65.041  1.00  0.00    -0.311 C  
BRANCH  10  11
HETATM   11  C   UNL     1     -11.621  12.981  66.489  1.00  0.00    -0.407 A  
HETATM   12  C   UNL     1     -11.969  13.915  67.477  1.00  0.00    -0.421 A  
HETATM   13  C   UNL     1     -12.027  13.529  68.817  1.00  0.00    -0.339 A  
HETATM   14  C   UNL     1     -11.758  12.211  69.186  1.00  0.00    -0.384 A  
HETATM   15  I   UNL     1     -12.511  14.929  70.276  1.00  0.00    -0.307 I  
HETATM   16  C   UNL     1     -11.440  11.271  68.207  1.00  0.00    -0.378 A  
HETATM   17  C   UNL     1     -11.376  11.652  66.865  1.00  0.00    -0.364 A  
ENDBRANCH  10  11
ENDBRANCH   6  10
TORSDOF 2
ENDMDL
MODEL       39
REMARK 921   NORMALIZED FREE ENERGY PREDICTED BY IDOCK:   -4.71 KCAL/MOL
REMARK 922        TOTAL FREE ENERGY PREDICTED BY IDOCK:   -5.40 KCAL/MOL
REMARK 923 INTER-LIGAND FREE ENERGY PREDICTED BY IDOCK:   -5.29 KCAL/MOL
REMARK 924 INTRA-LIGAND FREE ENERGY PREDICTED BY IDOCK:   -0.11 KCAL/MOL
REMARK 927      BINDING AFFINITY PREDICTED BY RF-SCORE:    0.00 PKD
ROOT
HETATM    1  N   UNL     1     -12.874  11.712  62.956  1.00  0.00    -0.889 NA 
HETATM    2  C   UNL     1     -12.114  12.706  63.462  1.00  0.00    -0.561 C  
HETATM    3  H1  UNL     1     -13.866  11.876  63.128  1.00  0.00     0.000 HD 
HETATM    4  H2  UNL     1     -12.503  10.900  62.463  1.00  0.00     0.000 HD 
HETATM    5  N   UNL     1     -10.801  12.490  63.235  1.00  0.00    -0.645 NA 
HETATM    6  N   UNL     1     -12.688  13.699  64.032  1.00  0.00    -0.626 NA 
HETATM    7  H1  UNL     1     -10.226  13.241  63.617  1.00  0.00     0.000 HD 
HETATM    8  H2  UNL     1     -10.430  11.678  62.742  1.00  0.00     0.000 HD 
HETATM    9  H   UNL     1     -13.702  13.728  64.145  1.00  0.00     0.000 HD 
ENDROOT
BRANCH   6  10
HETATM   10  C   UNL     1     -11.847  14.788  64.515  1.00  0.00    -0.419 C  
BRANCH  10  11
HETATM   11  C   UNL     1     -11.457  14.591  65.960  1.00  0.00    -0.348 A  
HETATM   12  C   UNL     1     -10.279  15.165  66.463  1.00  0.00    -0.283 A  
HETATM   13  C   UNL     1      -9.912  14.958  67.794  1.00  0.00    -0.222 A  
HETATM   14  C   UNL     1     -10.716  14.196  68.640  1.00  0.00    -0.263 A  
HETATM   15  I   UNL     1      -8.147  15.786  68.519  1.00  0.00    -0.192 I  
HETATM   16  C   UNL     1     -11.903  13.647  68.155  1.00  0.00    -0.407 A  
HETATM   17  C   UNL     1     -12.274  13.846  66.824  1.00  0.00    -0.438 A  
ENDBRANCH  10  11
ENDBRANCH   6  10
TORSDOF 2
ENDMDL
MODEL       40
REMARK 921   NORMALIZED FREE ENERGY PREDICTED BY IDOCK:   -4.71 KCAL/MOL
REMARK 922        TOTAL FREE ENERGY PREDICTED BY IDOCK:   -5.40 KCAL/MOL
REMARK 923 INTER-LIGAND FREE ENERGY PREDICTED BY IDOCK:   -5.27 KCAL/MOL
REMARK 924 INTRA-LIGAND FREE ENERGY PREDICTED BY IDOCK:   -0.13 KCAL/MOL
REMARK 927      BINDING AFFINITY PREDICTED BY RF-SCORE:    0.00 PKD
ROOT
HETATM    1  N   UNL     1     -12.927  15.146  70.142  1.00  0.00    -0.644 NA 
HETATM    2  C   UNL     1     -12.284  14.062  69.657  1.00  0.00    -0.332 C  
HETATM    3  H1  UNL     1     -13.273  15.743  69.390  1.00  0.00     0.000 HD 
HETATM    4  H2  UNL     1     -13.051  15.343  71.134  1.00  0.00     0.000 HD 
HETATM    5  N   UNL     1     -11.827  13.273  70.652  1.00  0.00    -0.525 NA 
HETATM    6  N   UNL     1     -12.218  13.895  68.389  1.00  0.00    -0.498 NA 
HETATM    7  H1  UNL     1     -11.341  12.453  70.286  1.00  0.00     0.000 HD 
HETATM    8  H2  UNL     1     -11.951  13.470  71.644  1.00  0.00     0.000 HD 
HETATM    9  H   UNL     1     -12.604  14.586  67.745  1.00  0.00     0.000 HD 
ENDROOT
BRANCH   6  10
HETATM   10  C   UNL     1     -11.572  12.684  67.895  1.00  0.00    -0.349 C  
BRANCH  10  11
HETATM   11  C   UNL     1     -11.525  12.655  66.386  1.00  0.00    -0.409 A  
HETATM   12  C   UNL     1     -10.679  11.756  65.719  1.00  0.00    -0.328 A  
HETATM   13  C   UNL     1     -10.622  11.751  64.324  1.00  0.00    -0.335 A  
HETATM   14  C   UNL     1     -11.414  12.625  63.580  1.00  0.00    -0.563 A  
HETATM   15  I   UNL     1      -9.340  10.437  63.347  1.00  0.00    -0.315 I  
HETATM   16  C   UNL     1     -12.278  13.501  64.236  1.00  0.00    -0.450 A  
HETATM   17  C   UNL     1     -12.337  13.514  65.631  1.00  0.00    -0.522 A  
ENDBRANCH  10  11
ENDBRANCH   6  10
TORSDOF 2
ENDMDL
MODEL       41
REMARK 921   NORMALIZED FREE ENERGY PREDICTED BY IDOCK:   -4.67 KCAL/MOL
REMARK 922        TOTAL FREE ENERGY PREDICTED BY IDOCK:   -5.36 KCAL/MOL
REMARK 923 INTER-LIGAND FREE ENERGY PREDICTED BY IDOCK:   -5.21 KCAL/MOL
REMARK 924 INTRA-LIGAND FREE ENERGY PREDICTED BY IDOCK:   -0.15 KCAL/MOL
REMARK 927      BINDING AFFINITY PREDICTED BY RF-SCORE:    0.00 PKD
ROOT
HETATM    1  N   UNL     1     -13.819  13.825  72.495  1.00  0.00    -0.706 NA 
HETATM    2  C   UNL     1     -13.454  14.442  71.351  1.00  0.00    -0.351 C  
HETATM    3  H1  UNL     1     -13.203  13.041  72.710  1.00  0.00     0.000 HD 
HETATM    4  H2  UNL     1     -14.610  14.108  73.072  1.00  0.00     0.000 HD 
HETATM    5  N   UNL     1     -14.269  15.479  71.067  1.00  0.00    -0.826 NA 
HETATM    6  N   UNL     1     -12.419  14.024  70.723  1.00  0.00    -0.351 NA 
HETATM    7  H1  UNL     1     -13.994  15.946  70.202  1.00  0.00     0.000 HD 
HETATM    8  H2  UNL     1     -15.061  15.762  71.644  1.00  0.00     0.000 HD 
HETATM    9  H   UNL     1     -11.896  13.212  71.051  1.00  0.00     0.000 HD 
ENDROOT
BRANCH   6  10
HETATM   10  C   UNL     1     -12.012  14.747  69.524  1.00  0.00    -0.311 C  
BRANCH  10  11
HETATM   11  C   UNL     1     -11.823  13.817  68.350  1.00  0.00    -0.411 A  
HETATM   12  C   UNL     1     -11.333  12.517  68.545  1.00  0.00    -0.337 A  
HETATM   13  C   UNL     1     -11.137  11.670  67.452  1.00  0.00    -0.281 A  
HETATM   14  C   UNL     1     -11.441  12.100  66.161  1.00  0.00    -0.429 A  
HETATM   15  I   UNL     1     -10.378   9.757  67.750  1.00  0.00    -0.320 I  
HETATM   16  C   UNL     1     -11.956  13.380  65.962  1.00  0.00    -0.460 A  
HETATM   17  C   UNL     1     -12.150  14.233  67.051  1.00  0.00    -0.424 A  
ENDBRANCH  10  11
ENDBRANCH   6  10
TORSDOF 2
ENDMDL
MODEL       42
REMARK 921   NORMALIZED FREE ENERGY PREDICTED BY IDOCK:   -4.62 KCAL/MOL
REMARK 922        TOTAL FREE ENERGY PREDICTED BY IDOCK:   -5.30 KCAL/MOL
REMARK 923 INTER-LIGAND FREE ENERGY PREDICTED BY IDOCK:   -5.17 KCAL/MOL
REMARK 924 INTRA-LIGAND FREE ENERGY PREDICTED BY IDOCK:   -0.13 KCAL/MOL
REMARK 927      BINDING AFFINITY PREDICTED BY RF-SCORE:    0.00 PKD
ROOT
HETATM    1  N   UNL     1     -12.250  13.919  63.240  1.00  0.00    -1.111 NA 
HETATM    2  C   UNL     1     -12.292  13.311  64.444  1.00  0.00    -0.348 C  
HETATM    3  H1  UNL     1     -11.776  14.821  63.292  1.00  0.00     0.000 HD 
HETATM    4  H2  UNL     1     -12.643  13.526  62.385  1.00  0.00     0.000 HD 
HETATM    5  N   UNL     1     -12.919  12.119  64.376  1.00  0.00    -0.702 NA 
HETATM    6  N   UNL     1     -11.733  13.880  65.447  1.00  0.00    -0.328 NA 
HETATM    7  H1  UNL     1     -12.950  11.659  65.286  1.00  0.00     0.000 HD 
HETATM    8  H2  UNL     1     -13.313  11.726  63.521  1.00  0.00     0.000 HD 
HETATM    9  H   UNL     1     -11.298  14.799  65.357  1.00  0.00     0.000 HD 
ENDROOT
BRANCH   6  10
HETATM   10  C   UNL     1     -11.739  13.173  66.722  1.00  0.00    -0.385 C  
BRANCH  10  11
HETATM   11  C   UNL     1     -11.645  14.128  67.889  1.00  0.00    -0.370 A  
HETATM   12  C   UNL     1     -12.086  13.738  69.162  1.00  0.00    -0.374 A  
HETATM   13  C   UNL     1     -12.019  14.634  70.231  1.00  0.00    -0.308 A  
HETATM   14  C   UNL     1     -11.501  15.916  70.049  1.00  0.00    -0.354 A  
HETATM   15  I   UNL     1     -12.706  14.057  72.107  1.00  0.00    -0.227 I  
HETATM   16  C   UNL     1     -11.034  16.300  68.792  1.00  0.00    -0.343 A  
HETATM   17  C   UNL     1     -11.101  15.410  67.718  1.00  0.00    -0.320 A  
ENDBRANCH  10  11
ENDBRANCH   6  10
TORSDOF 2
ENDMDL
MODEL       43
REMARK 921   NORMALIZED FREE ENERGY PREDICTED BY IDOCK:   -4.62 KCAL/MOL
REMARK 922        TOTAL FREE ENERGY PREDICTED BY IDOCK:   -5.30 KCAL/MOL
REMARK 923 INTER-LIGAND FREE ENERGY PREDICTED BY IDOCK:   -5.17 KCAL/MOL
REMARK 924 INTRA-LIGAND FREE ENERGY PREDICTED BY IDOCK:   -0.13 KCAL/MOL
REMARK 927      BINDING AFFINITY PREDICTED BY RF-SCORE:    0.00 PKD
ROOT
HETATM    1  N   UNL     1     -11.484   9.241  69.781  1.00  0.00    -0.437 NA 
HETATM    2  C   UNL     1     -11.612  10.524  69.382  1.00  0.00    -0.246 C  
HETATM    3  H1  UNL     1     -11.515   8.598  68.990  1.00  0.00     0.000 HD 
HETATM    4  H2  UNL     1     -11.371   8.950  70.752  1.00  0.00     0.000 HD 
HETATM    5  N   UNL     1     -11.572  11.374  70.429  1.00  0.00    -0.490 NA 
HETATM    6  N   UNL     1     -11.713  10.778  68.131  1.00  0.00    -0.717 NA 
HETATM    7  H1  UNL     1     -11.668  12.344  70.128  1.00  0.00     0.000 HD 
HETATM    8  H2  UNL     1     -11.458  11.084  71.400  1.00  0.00     0.000 HD 
HETATM    9  H   UNL     1     -11.741  10.027  67.441  1.00  0.00     0.000 HD 
ENDROOT
BRANCH   6  10
HETATM   10  C   UNL     1     -11.787  12.176  67.724  1.00  0.00    -0.257 C  
BRANCH  10  11
HETATM   11  C   UNL     1     -11.626  12.331  66.230  1.00  0.00    -0.446 A  
HETATM   12  C   UNL     1     -10.755  11.492  65.519  1.00  0.00    -0.328 A  
HETATM   13  C   UNL     1     -10.592  11.657  64.142  1.00  0.00    -0.357 A  
HETATM   14  C   UNL     1     -11.304  12.642  63.458  1.00  0.00    -0.527 A  
HETATM   15  I   UNL     1      -9.273  10.430  63.103  1.00  0.00    -0.370 I  
HETATM   16  C   UNL     1     -12.193  13.460  64.154  1.00  0.00    -0.457 A  
HETATM   17  C   UNL     1     -12.358  13.303  65.532  1.00  0.00    -0.533 A  
ENDBRANCH  10  11
ENDBRANCH   6  10
TORSDOF 2
ENDMDL
MODEL       44
REMARK 921   NORMALIZED FREE ENERGY PREDICTED BY IDOCK:   -4.55 KCAL/MOL
REMARK 922        TOTAL FREE ENERGY PREDICTED BY IDOCK:   -5.23 KCAL/MOL
REMARK 923 INTER-LIGAND FREE ENERGY PREDICTED BY IDOCK:   -5.09 KCAL/MOL
REMARK 924 INTRA-LIGAND FREE ENERGY PREDICTED BY IDOCK:   -0.14 KCAL/MOL
REMARK 927      BINDING AFFINITY PREDICTED BY RF-SCORE:    0.00 PKD
ROOT
HETATM    1  N   UNL     1     -11.341   9.315  71.663  1.00  0.00    -0.381 NA 
HETATM    2  C   UNL     1     -11.956  10.126  70.777  1.00  0.00    -0.348 C  
HETATM    3  H1  UNL     1     -10.343   9.513  71.722  1.00  0.00     0.000 HD 
HETATM    4  H2  UNL     1     -11.816   8.595  72.207  1.00  0.00     0.000 HD 
HETATM    5  N   UNL     1     -13.278   9.864  70.700  1.00  0.00    -0.611 NA 
HETATM    6  N   UNL     1     -11.267  11.023  70.174  1.00  0.00    -0.458 NA 
HETATM    7  H1  UNL     1     -13.742  10.478  70.030  1.00  0.00     0.000 HD 
HETATM    8  H2  UNL     1     -13.752   9.144  71.243  1.00  0.00     0.000 HD 
HETATM    9  H   UNL     1     -10.261  11.103  70.322  1.00  0.00     0.000 HD 
ENDROOT
BRANCH   6  10
HETATM   10  C   UNL     1     -11.968  11.925  69.268  1.00  0.00    -0.281 C  
BRANCH  10  11
HETATM   11  C   UNL     1     -11.888  13.358  69.738  1.00  0.00    -0.393 A  
HETATM   12  C   UNL     1     -12.175  13.686  71.072  1.00  0.00    -0.374 A  
HETATM   13  C   UNL     1     -12.123  15.016  71.493  1.00  0.00    -0.343 A  
HETATM   14  C   UNL     1     -11.771  16.028  70.601  1.00  0.00    -0.376 A  
HETATM   15  I   UNL     1     -12.583  15.494  73.464  1.00  0.00    -0.837 I  
HETATM   16  C   UNL     1     -11.456  15.706  69.281  1.00  0.00    -0.368 A  
HETATM   17  C   UNL     1     -11.509  14.378  68.852  1.00  0.00    -0.319 A  
ENDBRANCH  10  11
ENDBRANCH   6  10
TORSDOF 2
ENDMDL
MODEL       45
REMARK 921   NORMALIZED FREE ENERGY PREDICTED BY IDOCK:   -4.53 KCAL/MOL
REMARK 922        TOTAL FREE ENERGY PREDICTED BY IDOCK:   -5.20 KCAL/MOL
REMARK 923 INTER-LIGAND FREE ENERGY PREDICTED BY IDOCK:   -5.03 KCAL/MOL
REMARK 924 INTRA-LIGAND FREE ENERGY PREDICTED BY IDOCK:   -0.17 KCAL/MOL
REMARK 927      BINDING AFFINITY PREDICTED BY RF-SCORE:    0.00 PKD
ROOT
HETATM    1  N   UNL     1     -14.269   8.967  73.261  1.00  0.00    -1.237 NA 
HETATM    2  C   UNL     1     -13.174   9.292  72.543  1.00  0.00    -0.366 C  
HETATM    3  H1  UNL     1     -14.208   8.017  73.629  1.00  0.00     0.000 HD 
HETATM    4  H2  UNL     1     -15.060   9.592  73.417  1.00  0.00     0.000 HD 
HETATM    5  N   UNL     1     -13.255  10.548  72.057  1.00  0.00    -0.519 NA 
HETATM    6  N   UNL     1     -12.223   8.440  72.441  1.00  0.00    -0.435 NA 
HETATM    7  H1  UNL     1     -12.427  10.794  71.514  1.00  0.00     0.000 HD 
HETATM    8  H2  UNL     1     -14.046  11.173  72.212  1.00  0.00     0.000 HD 
HETATM    9  H   UNL     1     -12.300   7.511  72.857  1.00  0.00     0.000 HD 
ENDROOT
BRANCH   6  10
HETATM   10  C   UNL     1     -11.025   8.840  71.712  1.00  0.00    -0.345 C  
BRANCH  10  11
HETATM   11  C   UNL     1     -10.880   8.075  70.418  1.00  0.00    -0.247 A  
HETATM   12  C   UNL     1     -10.389   8.711  69.268  1.00  0.00    -0.228 A  
HETATM   13  C   UNL     1     -10.281   8.005  68.069  1.00  0.00    -0.210 A  
HETATM   14  C   UNL     1     -10.641   6.659  68.005  1.00  0.00    -0.300 A  
HETATM   15  I   UNL     1      -9.585   8.967  66.362  1.00  0.00    -0.340 I  
HETATM   16  C   UNL     1     -11.101   6.012  69.151  1.00  0.00    -0.405 A  
HETATM   17  C   UNL     1     -11.216   6.714  70.353  1.00  0.00    -0.398 A  
ENDBRANCH  10  11
ENDBRANCH   6  10
TORSDOF 2
ENDMDL
MODEL       46
REMARK 921   NORMALIZED FREE ENERGY PREDICTED BY IDOCK:   -4.51 KCAL/MOL
REMARK 922        TOTAL FREE ENERGY PREDICTED BY IDOCK:   -5.17 KCAL/MOL
REMARK 923 INTER-LIGAND FREE ENERGY PREDICTED BY IDOCK:   -5.05 KCAL/MOL
REMARK 924 INTRA-LIGAND FREE ENERGY PREDICTED BY IDOCK:   -0.12 KCAL/MOL
REMARK 927      BINDING AFFINITY PREDICTED BY RF-SCORE:    0.00 PKD
ROOT
HETATM    1  N   UNL     1     -12.863  12.672  64.837  1.00  0.00    -0.842 NA 
HETATM    2  C   UNL     1     -12.221  13.784  64.421  1.00  0.00    -0.399 C  
HETATM    3  H1  UNL     1     -12.759  12.534  65.842  1.00  0.00     0.000 HD 
HETATM    4  H2  UNL     1     -13.387  12.049  64.224  1.00  0.00     0.000 HD 
HETATM    5  N   UNL     1     -12.358  13.967  63.091  1.00  0.00    -1.106 NA 
HETATM    6  N   UNL     1     -11.622  14.516  65.285  1.00  0.00    -0.349 NA 
HETATM    7  H1  UNL     1     -11.873  14.807  62.776  1.00  0.00     0.000 HD 
HETATM    8  H2  UNL     1     -12.882  13.343  62.477  1.00  0.00     0.000 HD 
HETATM    9  H   UNL     1     -11.589  14.249  66.270  1.00  0.00     0.000 HD 
ENDROOT
BRANCH   6  10
HETATM   10  C   UNL     1     -10.989  15.743  64.817  1.00  0.00    -0.393 C  
BRANCH  10  11
HETATM   11  C   UNL     1     -10.274  16.463  65.936  1.00  0.00    -0.379 A  
HETATM   12  C   UNL     1      -9.428  15.759  66.806  1.00  0.00    -0.259 A  
HETATM   13  C   UNL     1      -8.789  16.426  67.853  1.00  0.00    -0.184 A  
HETATM   14  C   UNL     1      -8.970  17.796  68.035  1.00  0.00    -0.263 A  
HETATM   15  I   UNL     1      -7.564  15.366  69.158  1.00  0.00    -0.221 I  
HETATM   16  C   UNL     1      -9.787  18.507  67.156  1.00  0.00    -0.335 A  
HETATM   17  C   UNL     1     -10.432  17.846  66.109  1.00  0.00    -0.321 A  
ENDBRANCH  10  11
ENDBRANCH   6  10
TORSDOF 2
ENDMDL
MODEL       47
REMARK 921   NORMALIZED FREE ENERGY PREDICTED BY IDOCK:   -4.48 KCAL/MOL
REMARK 922        TOTAL FREE ENERGY PREDICTED BY IDOCK:   -5.14 KCAL/MOL
REMARK 923 INTER-LIGAND FREE ENERGY PREDICTED BY IDOCK:   -4.98 KCAL/MOL
REMARK 924 INTRA-LIGAND FREE ENERGY PREDICTED BY IDOCK:   -0.16 KCAL/MOL
REMARK 927      BINDING AFFINITY PREDICTED BY RF-SCORE:    0.00 PKD
ROOT
HETATM    1  N   UNL     1      -7.585  10.738  62.746  1.00  0.00    -0.346 NA 
HETATM    2  C   UNL     1      -8.932  10.800  62.796  1.00  0.00    -0.287 C  
HETATM    3  H1  UNL     1      -7.161  11.644  62.944  1.00  0.00     0.000 HD 
HETATM    4  H2  UNL     1      -7.057   9.891  62.537  1.00  0.00     0.000 HD 
HETATM    5  N   UNL     1      -9.493   9.601  62.534  1.00  0.00    -0.571 NA 
HETATM    6  N   UNL     1      -9.492  11.910  63.103  1.00  0.00    -0.642 NA 
HETATM    7  H1  UNL     1     -10.512   9.647  62.572  1.00  0.00     0.000 HD 
HETATM    8  H2  UNL     1      -8.965   8.754  62.325  1.00  0.00     0.000 HD 
HETATM    9  H   UNL     1      -8.939  12.752  63.268  1.00  0.00     0.000 HD 
ENDROOT
BRANCH   6  10
HETATM   10  C   UNL     1     -10.946  11.934  63.210  1.00  0.00    -0.321 C  
BRANCH  10  11
HETATM   11  C   UNL     1     -11.399  12.541  64.517  1.00  0.00    -0.379 A  
HETATM   12  C   UNL     1     -11.116  11.902  65.733  1.00  0.00    -0.367 A  
HETATM   13  C   UNL     1     -11.559  12.456  66.935  1.00  0.00    -0.370 A  
HETATM   14  C   UNL     1     -12.271  13.655  66.942  1.00  0.00    -0.398 A  
HETATM   15  I   UNL     1     -11.164  11.482  68.730  1.00  0.00    -0.418 I  
HETATM   16  C   UNL     1     -12.530  14.311  65.739  1.00  0.00    -0.421 A  
HETATM   17  C   UNL     1     -12.093  13.760  64.533  1.00  0.00    -0.463 A  
ENDBRANCH  10  11
ENDBRANCH   6  10
TORSDOF 2
ENDMDL
MODEL       48
REMARK 921   NORMALIZED FREE ENERGY PREDICTED BY IDOCK:   -4.44 KCAL/MOL
REMARK 922        TOTAL FREE ENERGY PREDICTED BY IDOCK:   -5.10 KCAL/MOL
REMARK 923 INTER-LIGAND FREE ENERGY PREDICTED BY IDOCK:   -4.98 KCAL/MOL
REMARK 924 INTRA-LIGAND FREE ENERGY PREDICTED BY IDOCK:   -0.12 KCAL/MOL
REMARK 927      BINDING AFFINITY PREDICTED BY RF-SCORE:    0.00 PKD
ROOT
HETATM    1  N   UNL     1      -9.748  18.343  68.679  1.00  0.00    -0.352 NA 
HETATM    2  C   UNL     1     -10.503  17.280  68.329  1.00  0.00    -0.385 C  
HETATM    3  H1  UNL     1      -9.710  18.457  69.692  1.00  0.00     0.000 HD 
HETATM    4  H2  UNL     1      -9.276  18.955  68.015  1.00  0.00     0.000 HD 
HETATM    5  N   UNL     1     -10.554  17.130  66.988  1.00  0.00    -0.274 NA 
HETATM    6  N   UNL     1     -11.023  16.557  69.249  1.00  0.00    -0.318 NA 
HETATM    7  H1  UNL     1     -11.125  16.326  66.723  1.00  0.00     0.000 HD 
HETATM    8  H2  UNL     1     -10.082  17.742  66.324  1.00  0.00     0.000 HD 
HETATM    9  H   UNL     1     -10.909  16.796  70.235  1.00  0.00     0.000 HD 
ENDROOT
BRANCH   6  10
HETATM   10  C   UNL     1     -11.782  15.380  68.843  1.00  0.00    -0.359 C  
BRANCH  10  11
HETATM   11  C   UNL     1     -12.386  14.670  70.032  1.00  0.00    -0.365 A  
HETATM   12  C   UNL     1     -12.284  13.276  70.154  1.00  0.00    -0.376 A  
HETATM   13  C   UNL     1     -12.866  12.624  71.242  1.00  0.00    -0.250 A  
HETATM   14  C   UNL     1     -13.540  13.349  72.225  1.00  0.00    -0.703 A  
HETATM   15  I   UNL     1     -12.738  10.554  71.396  1.00  0.00    -0.519 I  
HETATM   16  C   UNL     1     -13.620  14.738  72.125  1.00  0.00    -0.518 A  
HETATM   17  C   UNL     1     -13.043  15.396  71.037  1.00  0.00    -0.565 A  
ENDBRANCH  10  11
ENDBRANCH   6  10
TORSDOF 2
ENDMDL
MODEL       49
REMARK 921   NORMALIZED FREE ENERGY PREDICTED BY IDOCK:   -4.44 KCAL/MOL
REMARK 922        TOTAL FREE ENERGY PREDICTED BY IDOCK:   -5.10 KCAL/MOL
REMARK 923 INTER-LIGAND FREE ENERGY PREDICTED BY IDOCK:   -4.99 KCAL/MOL
REMARK 924 INTRA-LIGAND FREE ENERGY PREDICTED BY IDOCK:   -0.10 KCAL/MOL
REMARK 927      BINDING AFFINITY PREDICTED BY RF-SCORE:    0.00 PKD
ROOT
HETATM    1  N   UNL     1     -12.123  16.328  72.013  1.00  0.00    -0.610 NA 
HETATM    2  C   UNL     1     -12.467  15.560  70.958  1.00  0.00    -0.436 C  
HETATM    3  H1  UNL     1     -11.113  16.333  72.158  1.00  0.00     0.000 HD 
HETATM    4  H2  UNL     1     -12.788  16.840  72.592  1.00  0.00     0.000 HD 
HETATM    5  N   UNL     1     -13.803  15.553  70.766  1.00  0.00    -0.865 NA 
HETATM    6  N   UNL     1     -11.544  14.989  70.277  1.00  0.00    -0.270 NA 
HETATM    7  H1  UNL     1     -14.063  14.972  69.968  1.00  0.00     0.000 HD 
HETATM    8  H2  UNL     1     -14.468  16.064  71.345  1.00  0.00     0.000 HD 
HETATM    9  H   UNL     1     -10.563  15.073  70.546  1.00  0.00     0.000 HD 
ENDROOT
BRANCH   6  10
HETATM   10  C   UNL     1     -11.940  14.215  69.107  1.00  0.00    -0.349 C  
BRANCH  10  11
HETATM   11  C   UNL     1     -11.498  14.879  67.825  1.00  0.00    -0.353 A  
HETATM   12  C   UNL     1     -10.995  16.189  67.839  1.00  0.00    -0.318 A  
HETATM   13  C   UNL     1     -10.612  16.805  66.647  1.00  0.00    -0.198 A  
HETATM   14  C   UNL     1     -10.707  16.123  65.434  1.00  0.00    -0.374 A  
HETATM   15  I   UNL     1      -9.900  18.759  66.676  1.00  0.00    -0.473 I  
HETATM   16  C   UNL     1     -11.178  14.811  65.416  1.00  0.00    -0.347 A  
HETATM   17  C   UNL     1     -11.567  14.189  66.605  1.00  0.00    -0.399 A  
ENDBRANCH  10  11
ENDBRANCH   6  10
TORSDOF 2
ENDMDL
MODEL       50
REMARK 921   NORMALIZED FREE ENERGY PREDICTED BY IDOCK:   -4.42 KCAL/MOL
REMARK 922        TOTAL FREE ENERGY PREDICTED BY IDOCK:   -5.08 KCAL/MOL
REMARK 923 INTER-LIGAND FREE ENERGY PREDICTED BY IDOCK:   -4.92 KCAL/MOL
REMARK 924 INTRA-LIGAND FREE ENERGY PREDICTED BY IDOCK:   -0.15 KCAL/MOL
REMARK 927      BINDING AFFINITY PREDICTED BY RF-SCORE:    0.00 PKD
ROOT
HETATM    1  N   UNL     1     -13.346  15.522  70.231  1.00  0.00    -0.714 NA 
HETATM    2  C   UNL     1     -12.067  15.953  70.243  1.00  0.00    -0.270 C  
HETATM    3  H1  UNL     1     -13.633  15.226  69.298  1.00  0.00     0.000 HD 
HETATM    4  H2  UNL     1     -13.950  15.496  71.052  1.00  0.00     0.000 HD 
HETATM    5  N   UNL     1     -11.688  16.344  71.477  1.00  0.00    -0.653 NA 
HETATM    6  N   UNL     1     -11.387  15.909  69.158  1.00  0.00    -0.342 NA 
HETATM    7  H1  UNL     1     -10.720  16.669  71.486  1.00  0.00     0.000 HD 
HETATM    8  H2  UNL     1     -12.292  16.318  72.298  1.00  0.00     0.000 HD 
HETATM    9  H   UNL     1     -11.809  15.595  68.283  1.00  0.00     0.000 HD 
ENDROOT
BRANCH   6  10
HETATM   10  C   UNL     1      -9.990  16.322  69.213  1.00  0.00    -0.259 C  
BRANCH  10  11
HETATM   11  C   UNL     1      -9.750  17.583  68.418  1.00  0.00    -0.316 A  
HETATM   12  C   UNL     1      -8.520  18.254  68.503  1.00  0.00    -0.325 A  
HETATM   13  C   UNL     1      -8.314  19.433  67.784  1.00  0.00    -0.305 A  
HETATM   14  C   UNL     1      -9.318  19.946  66.963  1.00  0.00    -0.486 A  
HETATM   15  I   UNL     1      -6.500  20.436  67.943  1.00  0.00    -0.355 I  
HETATM   16  C   UNL     1     -10.532  19.269  66.851  1.00  0.00    -0.547 A  
HETATM   17  C   UNL     1     -10.746  18.091  67.571  1.00  0.00    -0.352 A  
ENDBRANCH  10  11
ENDBRANCH   6  10
TORSDOF 2
ENDMDL
MODEL       51
REMARK 921   NORMALIZED FREE ENERGY PREDICTED BY IDOCK:   -4.41 KCAL/MOL
REMARK 922        TOTAL FREE ENERGY PREDICTED BY IDOCK:   -5.07 KCAL/MOL
REMARK 923 INTER-LIGAND FREE ENERGY PREDICTED BY IDOCK:   -4.92 KCAL/MOL
REMARK 924 INTRA-LIGAND FREE ENERGY PREDICTED BY IDOCK:   -0.15 KCAL/MOL
REMARK 927      BINDING AFFINITY PREDICTED BY RF-SCORE:    0.00 PKD
ROOT
HETATM    1  N   UNL     1     -12.236  14.383  67.627  1.00  0.00    -0.623 NA 
HETATM    2  C   UNL     1     -11.786  13.123  67.802  1.00  0.00    -0.348 C  
HETATM    3  H1  UNL     1     -12.136  14.937  68.478  1.00  0.00     0.000 HD 
HETATM    4  H2  UNL     1     -12.627  14.737  66.755  1.00  0.00     0.000 HD 
HETATM    5  N   UNL     1     -11.919  12.389  66.676  1.00  0.00    -0.596 NA 
HETATM    6  N   UNL     1     -11.281  12.794  68.932  1.00  0.00    -0.270 NA 
HETATM    7  H1  UNL     1     -11.579  11.437  66.808  1.00  0.00     0.000 HD 
HETATM    8  H2  UNL     1     -12.310  12.744  65.804  1.00  0.00     0.000 HD 
HETATM    9  H   UNL     1     -11.253  13.455  69.709  1.00  0.00     0.000 HD 
ENDROOT
BRANCH   6  10
HETATM   10  C   UNL     1     -10.746  11.445  69.073  1.00  0.00    -0.205 C  
BRANCH  10  11
HETATM   11  C   UNL     1     -11.468  10.670  70.149  1.00  0.00    -0.411 A  
HETATM   12  C   UNL     1     -11.069   9.365  70.474  1.00  0.00    -0.330 A  
HETATM   13  C   UNL     1     -11.757   8.644  71.452  1.00  0.00    -0.297 A  
HETATM   14  C   UNL     1     -12.834   9.218  72.128  1.00  0.00    -0.485 A  
HETATM   15  I   UNL     1     -11.178   6.698  71.901  1.00  0.00    -0.363 I  
HETATM   16  C   UNL     1     -13.217  10.526  71.831  1.00  0.00    -0.526 A  
HETATM   17  C   UNL     1     -12.536  11.250  70.851  1.00  0.00    -0.467 A  
ENDBRANCH  10  11
ENDBRANCH   6  10
TORSDOF 2
ENDMDL
MODEL       52
REMARK 921   NORMALIZED FREE ENERGY PREDICTED BY IDOCK:   -4.41 KCAL/MOL
REMARK 922        TOTAL FREE ENERGY PREDICTED BY IDOCK:   -5.06 KCAL/MOL
REMARK 923 INTER-LIGAND FREE ENERGY PREDICTED BY IDOCK:   -4.92 KCAL/MOL
REMARK 924 INTRA-LIGAND FREE ENERGY PREDICTED BY IDOCK:   -0.14 KCAL/MOL
REMARK 927      BINDING AFFINITY PREDICTED BY RF-SCORE:    0.00 PKD
ROOT
HETATM    1  N   UNL     1      -9.069  19.285  68.665  1.00  0.00    -0.373 NA 
HETATM    2  C   UNL     1     -10.024  18.446  68.213  1.00  0.00    -0.369 C  
HETATM    3  H1  UNL     1      -8.491  18.843  69.381  1.00  0.00     0.000 HD 
HETATM    4  H2  UNL     1      -8.940  20.240  68.334  1.00  0.00     0.000 HD 
HETATM    5  N   UNL     1     -10.788  19.030  67.266  1.00  0.00    -0.468 NA 
HETATM    6  N   UNL     1     -10.072  17.252  68.675  1.00  0.00    -0.321 NA 
HETATM    7  H1  UNL     1     -11.510  18.395  66.924  1.00  0.00     0.000 HD 
HETATM    8  H2  UNL     1     -10.660  19.986  66.935  1.00  0.00     0.000 HD 
HETATM    9  H   UNL     1      -9.430  16.943  69.406  1.00  0.00     0.000 HD 
ENDROOT
BRANCH   6  10
HETATM   10  C   UNL     1     -11.074  16.348  68.124  1.00  0.00    -0.320 C  
BRANCH  10  11
HETATM   11  C   UNL     1     -11.555  15.354  69.155  1.00  0.00    -0.354 A  
HETATM   12  C   UNL     1     -11.847  15.772  70.462  1.00  0.00    -0.402 A  
HETATM   13  C   UNL     1     -12.267  14.844  71.416  1.00  0.00    -0.333 A  
HETATM   14  C   UNL     1     -12.417  13.499  71.078  1.00  0.00    -0.451 A  
HETATM   15  I   UNL     1     -12.666  15.468  73.360  1.00  0.00    -0.816 I  
HETATM   16  C   UNL     1     -12.156  13.082  69.773  1.00  0.00    -0.325 A  
HETATM   17  C   UNL     1     -11.732  14.005  68.815  1.00  0.00    -0.388 A  
ENDBRANCH  10  11
ENDBRANCH   6  10
TORSDOF 2
ENDMDL
MODEL       53
REMARK 921   NORMALIZED FREE ENERGY PREDICTED BY IDOCK:   -4.38 KCAL/MOL
REMARK 922        TOTAL FREE ENERGY PREDICTED BY IDOCK:   -5.03 KCAL/MOL
REMARK 923 INTER-LIGAND FREE ENERGY PREDICTED BY IDOCK:   -4.86 KCAL/MOL
REMARK 924 INTRA-LIGAND FREE ENERGY PREDICTED BY IDOCK:   -0.17 KCAL/MOL
REMARK 927      BINDING AFFINITY PREDICTED BY RF-SCORE:    0.00 PKD
ROOT
HETATM    1  N   UNL     1     -10.497  10.584  69.979  1.00  0.00    -0.449 NA 
HETATM    2  C   UNL     1     -11.311  11.452  69.344  1.00  0.00    -0.297 C  
HETATM    3  H1  UNL     1      -9.853  11.065  70.607  1.00  0.00     0.000 HD 
HETATM    4  H2  UNL     1     -10.522   9.573  69.849  1.00  0.00     0.000 HD 
HETATM    5  N   UNL     1     -12.163  10.816  68.513  1.00  0.00    -0.822 NA 
HETATM    6  N   UNL     1     -11.216  12.702  69.610  1.00  0.00    -0.478 NA 
HETATM    7  H1  UNL     1     -12.778  11.472  68.032  1.00  0.00     0.000 HD 
HETATM    8  H2  UNL     1     -12.188   9.805  68.382  1.00  0.00     0.000 HD 
HETATM    9  H   UNL     1     -10.510  13.050  70.260  1.00  0.00     0.000 HD 
ENDROOT
BRANCH   6  10
HETATM   10  C   UNL     1     -12.149  13.611  68.956  1.00  0.00    -0.309 C  
BRANCH  10  11
HETATM   11  C   UNL     1     -11.581  14.158  67.667  1.00  0.00    -0.394 A  
HETATM   12  C   UNL     1     -10.489  15.038  67.689  1.00  0.00    -0.247 A  
HETATM   13  C   UNL     1      -9.986  15.560  66.496  1.00  0.00    -0.269 A  
HETATM   14  C   UNL     1     -10.550  15.200  65.272  1.00  0.00    -0.432 A  
HETATM   15  I   UNL     1      -8.388  16.890  66.543  1.00  0.00    -0.329 I  
HETATM   16  C   UNL     1     -11.617  14.303  65.241  1.00  0.00    -0.348 A  
HETATM   17  C   UNL     1     -12.128  13.781  66.431  1.00  0.00    -0.483 A  
ENDBRANCH  10  11
ENDBRANCH   6  10
TORSDOF 2
ENDMDL
MODEL       54
REMARK 921   NORMALIZED FREE ENERGY PREDICTED BY IDOCK:   -4.35 KCAL/MOL
REMARK 922        TOTAL FREE ENERGY PREDICTED BY IDOCK:   -5.00 KCAL/MOL
REMARK 923 INTER-LIGAND FREE ENERGY PREDICTED BY IDOCK:   -4.89 KCAL/MOL
REMARK 924 INTRA-LIGAND FREE ENERGY PREDICTED BY IDOCK:   -0.11 KCAL/MOL
REMARK 927      BINDING AFFINITY PREDICTED BY RF-SCORE:    0.00 PKD
ROOT
HETATM    1  N   UNL     1     -10.754  16.702  68.425  1.00  0.00    -0.337 NA 
HETATM    2  C   UNL     1     -11.525  15.612  68.229  1.00  0.00    -0.350 C  
HETATM    3  H1  UNL     1     -10.106  16.846  67.651  1.00  0.00     0.000 HD 
HETATM    4  H2  UNL     1     -10.811  17.305  69.245  1.00  0.00     0.000 HD 
HETATM    5  N   UNL     1     -12.382  15.420  69.254  1.00  0.00    -0.606 NA 
HETATM    6  N   UNL     1     -11.393  14.944  67.143  1.00  0.00    -0.345 NA 
HETATM    7  H1  UNL     1     -12.965  14.597  69.106  1.00  0.00     0.000 HD 
HETATM    8  H2  UNL     1     -12.439  16.024  70.074  1.00  0.00     0.000 HD 
HETATM    9  H   UNL     1     -10.689  15.200  66.450  1.00  0.00     0.000 HD 
ENDROOT
BRANCH   6  10
HETATM   10  C   UNL     1     -12.282  13.808  66.930  1.00  0.00    -0.366 C  
BRANCH  10  11
HETATM   11  C   UNL     1     -11.814  12.944  65.783  1.00  0.00    -0.469 A  
HETATM   12  C   UNL     1     -10.844  11.952  65.991  1.00  0.00    -0.342 A  
HETATM   13  C   UNL     1     -10.399  11.173  64.921  1.00  0.00    -0.313 A  
HETATM   14  C   UNL     1     -10.923  11.360  63.643  1.00  0.00    -0.443 A  
HETATM   15  I   UNL     1      -8.936   9.728  65.234  1.00  0.00    -0.305 I  
HETATM   16  C   UNL     1     -11.909  12.324  63.435  1.00  0.00    -0.563 A  
HETATM   17  C   UNL     1     -12.356  13.109  64.500  1.00  0.00    -0.447 A  
ENDBRANCH  10  11
ENDBRANCH   6  10
TORSDOF 2
ENDMDL
MODEL       55
REMARK 921   NORMALIZED FREE ENERGY PREDICTED BY IDOCK:   -4.32 KCAL/MOL
REMARK 922        TOTAL FREE ENERGY PREDICTED BY IDOCK:   -4.97 KCAL/MOL
REMARK 923 INTER-LIGAND FREE ENERGY PREDICTED BY IDOCK:   -4.82 KCAL/MOL
REMARK 924 INTRA-LIGAND FREE ENERGY PREDICTED BY IDOCK:   -0.15 KCAL/MOL
REMARK 927      BINDING AFFINITY PREDICTED BY RF-SCORE:    0.00 PKD
ROOT
HETATM    1  N   UNL     1     -13.789  15.938  73.126  1.00  0.00    -0.682 NA 
HETATM    2  C   UNL     1     -13.463  14.912  72.312  1.00  0.00    -0.409 C  
HETATM    3  H1  UNL     1     -13.122  16.705  73.046  1.00  0.00     0.000 HD 
HETATM    4  H2  UNL     1     -14.600  15.944  73.744  1.00  0.00     0.000 HD 
HETATM    5  N   UNL     1     -14.345  13.896  72.418  1.00  0.00    -0.662 NA 
HETATM    6  N   UNL     1     -12.440  15.025  71.549  1.00  0.00    -0.310 NA 
HETATM    7  H1  UNL     1     -14.099  13.120  71.802  1.00  0.00     0.000 HD 
HETATM    8  H2  UNL     1     -15.156  13.902  73.036  1.00  0.00     0.000 HD 
HETATM    9  H   UNL     1     -11.849  15.856  71.580  1.00  0.00     0.000 HD 
ENDROOT
BRANCH   6  10
HETATM   10  C   UNL     1     -12.147  13.927  70.635  1.00  0.00    -0.347 C  
BRANCH  10  11
HETATM   11  C   UNL     1     -11.769  14.431  69.263  1.00  0.00    -0.358 A  
HETATM   12  C   UNL     1     -11.131  15.671  69.112  1.00  0.00    -0.284 A  
HETATM   13  C   UNL     1     -10.807  16.142  67.839  1.00  0.00    -0.332 A  
HETATM   14  C   UNL     1     -11.097  15.380  66.707  1.00  0.00    -0.244 A  
HETATM   15  I   UNL     1      -9.891  17.997  67.625  1.00  0.00    -0.369 I  
HETATM   16  C   UNL     1     -11.704  14.133  66.851  1.00  0.00    -0.437 A  
HETATM   17  C   UNL     1     -12.035  13.658  68.122  1.00  0.00    -0.390 A  
ENDBRANCH  10  11
ENDBRANCH   6  10
TORSDOF 2
ENDMDL
MODEL       56
REMARK 921   NORMALIZED FREE ENERGY PREDICTED BY IDOCK:   -4.27 KCAL/MOL
REMARK 922        TOTAL FREE ENERGY PREDICTED BY IDOCK:   -4.91 KCAL/MOL
REMARK 923 INTER-LIGAND FREE ENERGY PREDICTED BY IDOCK:   -4.80 KCAL/MOL
REMARK 924 INTRA-LIGAND FREE ENERGY PREDICTED BY IDOCK:   -0.11 KCAL/MOL
REMARK 927      BINDING AFFINITY PREDICTED BY RF-SCORE:    0.00 PKD
ROOT
HETATM    1  N   UNL     1     -13.086  16.213  73.769  1.00  0.00    -0.855 NA 
HETATM    2  C   UNL     1     -13.122  15.813  72.480  1.00  0.00    -0.474 C  
HETATM    3  H1  UNL     1     -12.179  16.610  74.012  1.00  0.00     0.000 HD 
HETATM    4  H2  UNL     1     -13.868  16.129  74.418  1.00  0.00     0.000 HD 
HETATM    5  N   UNL     1     -14.323  15.287  72.158  1.00  0.00    -0.562 NA 
HETATM    6  N   UNL     1     -12.092  16.000  71.743  1.00  0.00    -0.503 NA 
HETATM    7  H1  UNL     1     -14.350  14.985  71.184  1.00  0.00     0.000 HD 
HETATM    8  H2  UNL     1     -15.105  15.203  72.808  1.00  0.00     0.000 HD 
HETATM    9  H   UNL     1     -11.236  16.405  72.125  1.00  0.00     0.000 HD 
ENDROOT
BRANCH   6  10
HETATM   10  C   UNL     1     -12.179  15.614  70.339  1.00  0.00    -0.395 C  
BRANCH  10  11
HETATM   11  C   UNL     1     -10.970  16.072  69.559  1.00  0.00    -0.326 A  
HETATM   12  C   UNL     1     -11.092  17.069  68.579  1.00  0.00    -0.156 A  
HETATM   13  C   UNL     1      -9.974  17.469  67.845  1.00  0.00    -0.312 A  
HETATM   14  C   UNL     1      -8.725  16.898  68.088  1.00  0.00    -0.226 A  
HETATM   15  I   UNL     1     -10.173  18.923  66.371  1.00  0.00    -0.489 I  
HETATM   16  C   UNL     1      -8.591  15.928  69.080  1.00  0.00    -0.252 A  
HETATM   17  C   UNL     1      -9.706  15.520  69.816  1.00  0.00    -0.247 A  
ENDBRANCH  10  11
ENDBRANCH   6  10
TORSDOF 2
ENDMDL
MODEL       57
REMARK 921   NORMALIZED FREE ENERGY PREDICTED BY IDOCK:   -4.25 KCAL/MOL
REMARK 922        TOTAL FREE ENERGY PREDICTED BY IDOCK:   -4.88 KCAL/MOL
REMARK 923 INTER-LIGAND FREE ENERGY PREDICTED BY IDOCK:   -4.71 KCAL/MOL
REMARK 924 INTRA-LIGAND FREE ENERGY PREDICTED BY IDOCK:   -0.17 KCAL/MOL
REMARK 927      BINDING AFFINITY PREDICTED BY RF-SCORE:    0.00 PKD
ROOT
HETATM    1  N   UNL     1     -11.753  11.681  67.865  1.00  0.00    -0.532 NA 
HETATM    2  C   UNL     1     -11.968  11.434  69.174  1.00  0.00    -0.328 C  
HETATM    3  H1  UNL     1     -12.094  10.918  67.280  1.00  0.00     0.000 HD 
HETATM    4  H2  UNL     1     -11.306  12.524  67.506  1.00  0.00     0.000 HD 
HETATM    5  N   UNL     1     -11.517  12.443  69.949  1.00  0.00    -0.513 NA 
HETATM    6  N   UNL     1     -12.571  10.356  69.513  1.00  0.00    -0.637 NA 
HETATM    7  H1  UNL     1     -11.680  12.257  70.939  1.00  0.00     0.000 HD 
HETATM    8  H2  UNL     1     -11.070  13.286  69.589  1.00  0.00     0.000 HD 
HETATM    9  H   UNL     1     -12.851   9.667  68.814  1.00  0.00     0.000 HD 
ENDROOT
BRANCH   6  10
HETATM   10  C   UNL     1     -12.845  10.144  70.929  1.00  0.00    -0.355 C  
BRANCH  10  11
HETATM   11  C   UNL     1     -12.175   8.893  71.445  1.00  0.00    -0.374 A  
HETATM   12  C   UNL     1     -10.899   8.958  72.024  1.00  0.00    -0.404 A  
HETATM   13  C   UNL     1     -10.275   7.794  72.477  1.00  0.00    -0.260 A  
HETATM   14  C   UNL     1     -10.917   6.561  72.374  1.00  0.00    -0.279 A  
HETATM   15  I   UNL     1      -8.369   7.898  73.303  1.00  0.00    -0.299 I  
HETATM   16  C   UNL     1     -12.197   6.493  71.826  1.00  0.00    -0.374 A  
HETATM   17  C   UNL     1     -12.826   7.653  71.368  1.00  0.00    -0.354 A  
ENDBRANCH  10  11
ENDBRANCH   6  10
TORSDOF 2
ENDMDL
MODEL       58
REMARK 921   NORMALIZED FREE ENERGY PREDICTED BY IDOCK:   -4.22 KCAL/MOL
REMARK 922        TOTAL FREE ENERGY PREDICTED BY IDOCK:   -4.86 KCAL/MOL
REMARK 923 INTER-LIGAND FREE ENERGY PREDICTED BY IDOCK:   -4.75 KCAL/MOL
REMARK 924 INTRA-LIGAND FREE ENERGY PREDICTED BY IDOCK:   -0.11 KCAL/MOL
REMARK 927      BINDING AFFINITY PREDICTED BY RF-SCORE:    0.00 PKD
ROOT
HETATM    1  N   UNL     1     -12.481  14.214  65.996  1.00  0.00    -0.464 NA 
HETATM    2  C   UNL     1     -11.427  14.932  65.553  1.00  0.00    -0.307 C  
HETATM    3  H1  UNL     1     -12.434  14.064  67.003  1.00  0.00     0.000 HD 
HETATM    4  H2  UNL     1     -13.229  13.865  65.397  1.00  0.00     0.000 HD 
HETATM    5  N   UNL     1     -11.488  15.130  64.220  1.00  0.00    -0.677 NA 
HETATM    6  N   UNL     1     -10.561  15.350  66.399  1.00  0.00    -0.302 NA 
HETATM    7  H1  UNL     1     -10.691  15.673  63.885  1.00  0.00     0.000 HD 
HETATM    8  H2  UNL     1     -12.236  14.782  63.621  1.00  0.00     0.000 HD 
HETATM    9  H   UNL     1     -10.635  15.114  67.390  1.00  0.00     0.000 HD 
ENDROOT
BRANCH   6  10
HETATM   10  C   UNL     1      -9.466  16.175  65.903  1.00  0.00    -0.302 C  
BRANCH  10  11
HETATM   11  C   UNL     1      -9.507  17.566  66.489  1.00  0.00    -0.285 A  
HETATM   12  C   UNL     1      -8.341  18.343  66.556  1.00  0.00    -0.290 A  
HETATM   13  C   UNL     1      -8.380  19.619  67.122  1.00  0.00    -0.298 A  
HETATM   14  C   UNL     1      -9.578  20.140  67.610  1.00  0.00    -0.534 A  
HETATM   15  I   UNL     1      -6.639  20.748  67.247  1.00  0.00    -0.441 I  
HETATM   16  C   UNL     1     -10.747  19.385  67.520  1.00  0.00    -0.570 A  
HETATM   17  C   UNL     1     -10.714  18.107  66.958  1.00  0.00    -0.274 A  
ENDBRANCH  10  11
ENDBRANCH   6  10
TORSDOF 2
ENDMDL
MODEL       59
REMARK 921   NORMALIZED FREE ENERGY PREDICTED BY IDOCK:   -4.22 KCAL/MOL
REMARK 922        TOTAL FREE ENERGY PREDICTED BY IDOCK:   -4.85 KCAL/MOL
REMARK 923 INTER-LIGAND FREE ENERGY PREDICTED BY IDOCK:   -4.72 KCAL/MOL
REMARK 924 INTRA-LIGAND FREE ENERGY PREDICTED BY IDOCK:   -0.12 KCAL/MOL
REMARK 927      BINDING AFFINITY PREDICTED BY RF-SCORE:    0.00 PKD
ROOT
HETATM    1  N   UNL     1      -8.738  11.893  65.951  1.00  0.00    -0.401 NA 
HETATM    2  C   UNL     1      -9.579  12.819  66.459  1.00  0.00    -0.257 C  
HETATM    3  H1  UNL     1      -8.825  11.001  66.437  1.00  0.00     0.000 HD 
HETATM    4  H2  UNL     1      -8.095  12.065  65.178  1.00  0.00     0.000 HD 
HETATM    5  N   UNL     1      -9.463  14.000  65.816  1.00  0.00    -0.521 NA 
HETATM    6  N   UNL     1     -10.370  12.484  67.410  1.00  0.00    -0.215 NA 
HETATM    7  H1  UNL     1     -10.099  14.699  66.200  1.00  0.00     0.000 HD 
HETATM    8  H2  UNL     1      -8.820  14.171  65.043  1.00  0.00     0.000 HD 
HETATM    9  H   UNL     1     -10.343  11.546  67.812  1.00  0.00     0.000 HD 
ENDROOT
BRANCH   6  10
HETATM   10  C   UNL     1     -11.310  13.485  67.898  1.00  0.00    -0.289 C  
BRANCH  10  11
HETATM   11  C   UNL     1     -11.872  13.110  69.248  1.00  0.00    -0.377 A  
HETATM   12  C   UNL     1     -12.351  14.100  70.119  1.00  0.00    -0.413 A  
HETATM   13  C   UNL     1     -12.846  13.749  71.376  1.00  0.00    -0.369 A  
HETATM   14  C   UNL     1     -12.887  12.412  71.772  1.00  0.00    -0.350 A  
HETATM   15  I   UNL     1     -13.521  15.229  72.672  1.00  0.00    -0.678 I  
HETATM   16  C   UNL     1     -12.440  11.420  70.900  1.00  0.00    -0.478 A  
HETATM   17  C   UNL     1     -11.940  11.765  69.643  1.00  0.00    -0.378 A  
ENDBRANCH  10  11
ENDBRANCH   6  10
TORSDOF 2
ENDMDL
MODEL       60
REMARK 921   NORMALIZED FREE ENERGY PREDICTED BY IDOCK:   -4.20 KCAL/MOL
REMARK 922        TOTAL FREE ENERGY PREDICTED BY IDOCK:   -4.83 KCAL/MOL
REMARK 923 INTER-LIGAND FREE ENERGY PREDICTED BY IDOCK:   -4.71 KCAL/MOL
REMARK 924 INTRA-LIGAND FREE ENERGY PREDICTED BY IDOCK:   -0.12 KCAL/MOL
REMARK 927      BINDING AFFINITY PREDICTED BY RF-SCORE:    0.00 PKD
ROOT
HETATM    1  N   UNL     1     -13.005  14.873  73.619  1.00  0.00    -0.529 NA 
HETATM    2  C   UNL     1     -12.995  14.091  72.520  1.00  0.00    -0.389 C  
HETATM    3  H1  UNL     1     -12.292  15.600  73.568  1.00  0.00     0.000 HD 
HETATM    4  H2  UNL     1     -13.646  14.753  74.403  1.00  0.00     0.000 HD 
HETATM    5  N   UNL     1     -13.939  13.129  72.587  1.00  0.00    -0.743 NA 
HETATM    6  N   UNL     1     -12.168  14.355  71.577  1.00  0.00    -0.347 NA 
HETATM    7  H1  UNL     1     -13.932  12.538  71.756  1.00  0.00     0.000 HD 
HETATM    8  H2  UNL     1     -14.580  13.009  73.371  1.00  0.00     0.000 HD 
HETATM    9  H   UNL     1     -11.495  15.117  71.665  1.00  0.00     0.000 HD 
ENDROOT
BRANCH   6  10
HETATM   10  C   UNL     1     -12.221  13.532  70.375  1.00  0.00    -0.356 C  
BRANCH  10  11
HETATM   11  C   UNL     1     -11.557  14.216  69.203  1.00  0.00    -0.349 A  
HETATM   12  C   UNL     1     -11.962  13.928  67.891  1.00  0.00    -0.393 A  
HETATM   13  C   UNL     1     -11.327  14.544  66.811  1.00  0.00    -0.352 A  
HETATM   14  C   UNL     1     -10.299  15.463  67.024  1.00  0.00    -0.280 A  
HETATM   15  I   UNL     1     -11.912  14.085  64.869  1.00  0.00    -0.492 I  
HETATM   16  C   UNL     1      -9.912  15.776  68.327  1.00  0.00    -0.221 A  
HETATM   17  C   UNL     1     -10.540  15.159  69.411  1.00  0.00    -0.258 A  
ENDBRANCH  10  11
ENDBRANCH   6  10
TORSDOF 2
ENDMDL
MODEL       61
REMARK 921   NORMALIZED FREE ENERGY PREDICTED BY IDOCK:   -4.18 KCAL/MOL
REMARK 922        TOTAL FREE ENERGY PREDICTED BY IDOCK:   -4.81 KCAL/MOL
REMARK 923 INTER-LIGAND FREE ENERGY PREDICTED BY IDOCK:   -4.70 KCAL/MOL
REMARK 924 INTRA-LIGAND FREE ENERGY PREDICTED BY IDOCK:   -0.11 KCAL/MOL
REMARK 927      BINDING AFFINITY PREDICTED BY RF-SCORE:    0.00 PKD
ROOT
HETATM    1  N   UNL     1      -7.651  20.465  65.711  1.00  0.00    -0.535 NA 
HETATM    2  C   UNL     1      -8.773  19.833  66.112  1.00  0.00    -0.332 C  
HETATM    3  H1  UNL     1      -6.958  19.807  65.353  1.00  0.00     0.000 HD 
HETATM    4  H2  UNL     1      -7.511  21.474  65.760  1.00  0.00     0.000 HD 
HETATM    5  N   UNL     1      -9.690  20.703  66.586  1.00  0.00    -0.646 NA 
HETATM    6  N   UNL     1      -8.855  18.562  65.972  1.00  0.00    -0.489 NA 
HETATM    7  H1  UNL     1     -10.539  20.225  66.889  1.00  0.00     0.000 HD 
HETATM    8  H2  UNL     1      -9.550  21.712  66.635  1.00  0.00     0.000 HD 
HETATM    9  H   UNL     1      -8.072  18.021  65.603  1.00  0.00     0.000 HD 
ENDROOT
BRANCH   6  10
HETATM   10  C   UNL     1     -10.103  17.913  66.355  1.00  0.00    -0.369 C  
BRANCH  10  11
HETATM   11  C   UNL     1      -9.988  16.408  66.299  1.00  0.00    -0.341 A  
HETATM   12  C   UNL     1     -10.866  15.658  65.502  1.00  0.00    -0.356 A  
HETATM   13  C   UNL     1     -10.770  14.266  65.474  1.00  0.00    -0.331 A  
HETATM   14  C   UNL     1      -9.793  13.608  66.221  1.00  0.00    -0.310 A  
HETATM   15  I   UNL     1     -12.098  13.162  64.315  1.00  0.00    -0.488 I  
HETATM   16  C   UNL     1      -8.899  14.349  66.992  1.00  0.00    -0.256 A  
HETATM   17  C   UNL     1      -8.992  15.742  67.028  1.00  0.00    -0.247 A  
ENDBRANCH  10  11
ENDBRANCH   6  10
TORSDOF 2
ENDMDL
MODEL       62
REMARK 921   NORMALIZED FREE ENERGY PREDICTED BY IDOCK:   -4.17 KCAL/MOL
REMARK 922        TOTAL FREE ENERGY PREDICTED BY IDOCK:   -4.80 KCAL/MOL
REMARK 923 INTER-LIGAND FREE ENERGY PREDICTED BY IDOCK:   -4.64 KCAL/MOL
REMARK 924 INTRA-LIGAND FREE ENERGY PREDICTED BY IDOCK:   -0.16 KCAL/MOL
REMARK 927      BINDING AFFINITY PREDICTED BY RF-SCORE:    0.00 PKD
ROOT
HETATM    1  N   UNL     1      -9.845   7.545  66.172  1.00  0.00    -0.445 NA 
HETATM    2  C   UNL     1     -10.414   7.458  67.393  1.00  0.00    -0.296 C  
HETATM    3  H1  UNL     1      -9.095   8.235  66.157  1.00  0.00     0.000 HD 
HETATM    4  H2  UNL     1     -10.130   6.990  65.365  1.00  0.00     0.000 HD 
HETATM    5  N   UNL     1     -11.407   6.545  67.412  1.00  0.00    -0.758 NA 
HETATM    6  N   UNL     1      -9.952   8.178  68.346  1.00  0.00    -0.184 NA 
HETATM    7  H1  UNL     1     -11.837   6.479  68.335  1.00  0.00     0.000 HD 
HETATM    8  H2  UNL     1     -11.693   5.990  66.606  1.00  0.00     0.000 HD 
HETATM    9  H   UNL     1      -9.194   8.842  68.185  1.00  0.00     0.000 HD 
ENDROOT
BRANCH   6  10
HETATM   10  C   UNL     1     -10.544   8.019  69.669  1.00  0.00    -0.223 C  
BRANCH  10  11
HETATM   11  C   UNL     1     -11.284   9.262  70.101  1.00  0.00    -0.237 A  
HETATM   12  C   UNL     1     -11.141  10.460  69.384  1.00  0.00    -0.304 A  
HETATM   13  C   UNL     1     -11.809  11.612  69.804  1.00  0.00    -0.357 A  
HETATM   14  C   UNL     1     -12.637  11.581  70.926  1.00  0.00    -0.438 A  
HETATM   15  I   UNL     1     -11.562  13.390  68.754  1.00  0.00    -0.413 I  
HETATM   16  C   UNL     1     -12.807  10.387  71.625  1.00  0.00    -0.579 A  
HETATM   17  C   UNL     1     -12.138   9.232  71.213  1.00  0.00    -0.412 A  
ENDBRANCH  10  11
ENDBRANCH   6  10
TORSDOF 2
ENDMDL
MODEL       63
REMARK 921   NORMALIZED FREE ENERGY PREDICTED BY IDOCK:   -4.16 KCAL/MOL
REMARK 922        TOTAL FREE ENERGY PREDICTED BY IDOCK:   -4.79 KCAL/MOL
REMARK 923 INTER-LIGAND FREE ENERGY PREDICTED BY IDOCK:   -4.67 KCAL/MOL
REMARK 924 INTRA-LIGAND FREE ENERGY PREDICTED BY IDOCK:   -0.12 KCAL/MOL
REMARK 927      BINDING AFFINITY PREDICTED BY RF-SCORE:    0.00 PKD
ROOT
HETATM    1  N   UNL     1     -10.125   7.921  66.168  1.00  0.00    -0.432 NA 
HETATM    2  C   UNL     1     -10.683   7.023  67.008  1.00  0.00    -0.353 C  
HETATM    3  H1  UNL     1      -9.816   8.756  66.665  1.00  0.00     0.000 HD 
HETATM    4  H2  UNL     1     -10.024   7.781  65.163  1.00  0.00     0.000 HD 
HETATM    5  N   UNL     1     -11.093   5.918  66.350  1.00  0.00    -0.759 NA 
HETATM    6  N   UNL     1     -10.725   7.287  68.261  1.00  0.00    -0.370 NA 
HETATM    7  H1  UNL     1     -11.514   5.240  66.985  1.00  0.00     0.000 HD 
HETATM    8  H2  UNL     1     -10.992   5.779  65.345  1.00  0.00     0.000 HD 
HETATM    9  H   UNL     1     -10.384   8.178  68.624  1.00  0.00     0.000 HD 
ENDROOT
BRANCH   6  10
HETATM   10  C   UNL     1     -11.278   6.274  69.152  1.00  0.00    -0.371 C  
BRANCH  10  11
HETATM   11  C   UNL     1     -11.123   6.665  70.603  1.00  0.00    -0.349 A  
HETATM   12  C   UNL     1     -10.726   5.715  71.555  1.00  0.00    -0.306 A  
HETATM   13  C   UNL     1     -10.609   6.076  72.899  1.00  0.00    -0.235 A  
HETATM   14  C   UNL     1     -10.868   7.385  73.305  1.00  0.00    -0.417 A  
HETATM   15  I   UNL     1     -10.052   4.651  74.308  1.00  0.00    -0.334 I  
HETATM   16  C   UNL     1     -11.235   8.341  72.359  1.00  0.00    -0.451 A  
HETATM   17  C   UNL     1     -11.357   7.985  71.014  1.00  0.00    -0.294 A  
ENDBRANCH  10  11
ENDBRANCH   6  10
TORSDOF 2
ENDMDL
MODEL       64
REMARK 921   NORMALIZED FREE ENERGY PREDICTED BY IDOCK:   -4.16 KCAL/MOL
REMARK 922        TOTAL FREE ENERGY PREDICTED BY IDOCK:   -4.78 KCAL/MOL
REMARK 923 INTER-LIGAND FREE ENERGY PREDICTED BY IDOCK:   -4.64 KCAL/MOL
REMARK 924 INTRA-LIGAND FREE ENERGY PREDICTED BY IDOCK:   -0.14 KCAL/MOL
REMARK 927      BINDING AFFINITY PREDICTED BY RF-SCORE:    0.00 PKD
ROOT
HETATM    1  N   UNL     1     -13.924  15.573  71.074  1.00  0.00    -0.833 NA 
HETATM    2  C   UNL     1     -12.778  15.450  70.371  1.00  0.00    -0.362 C  
HETATM    3  H1  UNL     1     -14.643  14.936  70.731  1.00  0.00     0.000 HD 
HETATM    4  H2  UNL     1     -14.055  16.221  71.850  1.00  0.00     0.000 HD 
HETATM    5  N   UNL     1     -11.827  16.294  70.824  1.00  0.00    -0.527 NA 
HETATM    6  N   UNL     1     -12.713  14.576  69.437  1.00  0.00    -0.507 NA 
HETATM    7  H1  UNL     1     -10.961  16.201  70.293  1.00  0.00     0.000 HD 
HETATM    8  H2  UNL     1     -11.958  16.942  71.600  1.00  0.00     0.000 HD 
HETATM    9  H   UNL     1     -13.523  14.006  69.191  1.00  0.00     0.000 HD 
ENDROOT
BRANCH   6  10
HETATM   10  C   UNL     1     -11.444  14.423  68.736  1.00  0.00    -0.289 C  
BRANCH  10  11
HETATM   11  C   UNL     1     -11.194  12.986  68.344  1.00  0.00    -0.304 A  
HETATM   12  C   UNL     1     -11.071  11.993  69.328  1.00  0.00    -0.246 A  
HETATM   13  C   UNL     1     -10.816  10.670  68.960  1.00  0.00    -0.235 A  
HETATM   14  C   UNL     1     -10.697  10.319  67.616  1.00  0.00    -0.339 A  
HETATM   15  I   UNL     1     -10.601   9.212  70.428  1.00  0.00    -0.355 I  
HETATM   16  C   UNL     1     -10.848  11.296  66.632  1.00  0.00    -0.325 A  
HETATM   17  C   UNL     1     -11.099  12.621  66.993  1.00  0.00    -0.322 A  
ENDBRANCH  10  11
ENDBRANCH   6  10
TORSDOF 2
ENDMDL
MODEL       65
REMARK 921   NORMALIZED FREE ENERGY PREDICTED BY IDOCK:   -4.13 KCAL/MOL
REMARK 922        TOTAL FREE ENERGY PREDICTED BY IDOCK:   -4.75 KCAL/MOL
REMARK 923 INTER-LIGAND FREE ENERGY PREDICTED BY IDOCK:   -4.70 KCAL/MOL
REMARK 924 INTRA-LIGAND FREE ENERGY PREDICTED BY IDOCK:   -0.05 KCAL/MOL
REMARK 927      BINDING AFFINITY PREDICTED BY RF-SCORE:    0.00 PKD
ROOT
HETATM    1  N   UNL     1     -13.495  10.786  72.087  1.00  0.00    -0.533 NA 
HETATM    2  C   UNL     1     -13.488   9.437  72.111  1.00  0.00    -0.471 C  
HETATM    3  H1  UNL     1     -12.828  11.152  71.407  1.00  0.00     0.000 HD 
HETATM    4  H2  UNL     1     -14.091  11.368  72.674  1.00  0.00     0.000 HD 
HETATM    5  N   UNL     1     -14.370   8.954  73.011  1.00  0.00    -1.154 NA 
HETATM    6  N   UNL     1     -12.721   8.805  71.303  1.00  0.00    -0.454 NA 
HETATM    7  H1  UNL     1     -14.365   7.933  73.029  1.00  0.00     0.000 HD 
HETATM    8  H2  UNL     1     -14.967   9.535  73.599  1.00  0.00     0.000 HD 
HETATM    9  H   UNL     1     -12.090   9.304  70.675  1.00  0.00     0.000 HD 
ENDROOT
BRANCH   6  10
HETATM   10  C   UNL     1     -12.779   7.348  71.307  1.00  0.00    -0.331 C  
BRANCH  10  11
HETATM   11  C   UNL     1     -11.554   6.744  71.951  1.00  0.00    -0.330 A  
HETATM   12  C   UNL     1     -10.989   5.567  71.437  1.00  0.00    -0.208 A  
HETATM   13  C   UNL     1      -9.871   5.000  72.052  1.00  0.00    -0.174 A  
HETATM   14  C   UNL     1      -9.296   5.604  73.170  1.00  0.00    -0.139 A  
HETATM   15  I   UNL     1      -9.061   3.238  71.302  1.00  0.00    -0.214 I  
HETATM   16  C   UNL     1      -9.836   6.789  73.669  1.00  0.00    -0.270 A  
HETATM   17  C   UNL     1     -10.956   7.359  73.061  1.00  0.00    -0.422 A  
ENDBRANCH  10  11
ENDBRANCH   6  10
TORSDOF 2
ENDMDL
MODEL       66
REMARK 921   NORMALIZED FREE ENERGY PREDICTED BY IDOCK:   -4.13 KCAL/MOL
REMARK 922        TOTAL FREE ENERGY PREDICTED BY IDOCK:   -4.75 KCAL/MOL
REMARK 923 INTER-LIGAND FREE ENERGY PREDICTED BY IDOCK:   -4.59 KCAL/MOL
REMARK 924 INTRA-LIGAND FREE ENERGY PREDICTED BY IDOCK:   -0.16 KCAL/MOL
REMARK 927      BINDING AFFINITY PREDICTED BY RF-SCORE:    0.00 PKD
ROOT
HETATM    1  N   UNL     1     -11.351   4.353  65.079  1.00  0.00    -1.102 NA 
HETATM    2  C   UNL     1     -10.700   5.062  66.025  1.00  0.00    -0.183 C  
HETATM    3  H1  UNL     1     -12.253   4.771  64.853  1.00  0.00     0.000 HD 
HETATM    4  H2  UNL     1     -10.986   3.505  64.645  1.00  0.00     0.000 HD 
HETATM    5  N   UNL     1      -9.506   4.509  66.325  1.00  0.00    -0.156 NA 
HETATM    6  N   UNL     1     -11.236   6.135  66.477  1.00  0.00    -0.744 NA 
HETATM    7  H1  UNL     1      -9.014   5.045  67.040  1.00  0.00     0.000 HD 
HETATM    8  H2  UNL     1      -9.142   3.661  65.892  1.00  0.00     0.000 HD 
HETATM    9  H   UNL     1     -12.160   6.434  66.164  1.00  0.00     0.000 HD 
ENDROOT
BRANCH   6  10
HETATM   10  C   UNL     1     -10.483   6.914  67.452  1.00  0.00    -0.269 C  
BRANCH  10  11
HETATM   11  C   UNL     1     -10.287   8.340  66.994  1.00  0.00    -0.393 A  
HETATM   12  C   UNL     1     -10.842   9.402  67.723  1.00  0.00    -0.223 A  
HETATM   13  C   UNL     1     -10.677  10.716  67.280  1.00  0.00    -0.285 A  
HETATM   14  C   UNL     1      -9.949  10.987  66.122  1.00  0.00    -0.277 A  
HETATM   15  I   UNL     1     -11.532  12.282  68.350  1.00  0.00    -0.422 I  
HETATM   16  C   UNL     1      -9.371   9.938  65.409  1.00  0.00    -0.297 A  
HETATM   17  C   UNL     1      -9.534   8.621  65.844  1.00  0.00    -0.243 A  
ENDBRANCH  10  11
ENDBRANCH   6  10
TORSDOF 2
ENDMDL
MODEL       67
REMARK 921   NORMALIZED FREE ENERGY PREDICTED BY IDOCK:   -4.13 KCAL/MOL
REMARK 922        TOTAL FREE ENERGY PREDICTED BY IDOCK:   -4.75 KCAL/MOL
REMARK 923 INTER-LIGAND FREE ENERGY PREDICTED BY IDOCK:   -4.57 KCAL/MOL
REMARK 924 INTRA-LIGAND FREE ENERGY PREDICTED BY IDOCK:   -0.18 KCAL/MOL
REMARK 927      BINDING AFFINITY PREDICTED BY RF-SCORE:    0.00 PKD
ROOT
HETATM    1  N   UNL     1     -13.494  14.945  70.811  1.00  0.00    -0.626 NA 
HETATM    2  C   UNL     1     -12.311  15.185  70.207  1.00  0.00    -0.352 C  
HETATM    3  H1  UNL     1     -14.262  14.940  70.141  1.00  0.00     0.000 HD 
HETATM    4  H2  UNL     1     -13.605  14.788  71.813  1.00  0.00     0.000 HD 
HETATM    5  N   UNL     1     -11.294  15.191  71.093  1.00  0.00    -0.444 NA 
HETATM    6  N   UNL     1     -12.283  15.333  68.934  1.00  0.00    -0.603 NA 
HETATM    7  H1  UNL     1     -10.400  15.372  70.636  1.00  0.00     0.000 HD 
HETATM    8  H2  UNL     1     -11.405  15.034  72.095  1.00  0.00     0.000 HD 
HETATM    9  H   UNL     1     -13.141  15.314  68.382  1.00  0.00     0.000 HD 
ENDROOT
BRANCH   6  10
HETATM   10  C   UNL     1     -10.985  15.529  68.300  1.00  0.00    -0.305 C  
BRANCH  10  11
HETATM   11  C   UNL     1     -10.599  14.347  67.444  1.00  0.00    -0.270 A  
HETATM   12  C   UNL     1     -11.281  14.084  66.246  1.00  0.00    -0.320 A  
HETATM   13  C   UNL     1     -10.935  12.975  65.472  1.00  0.00    -0.274 A  
HETATM   14  C   UNL     1      -9.901  12.129  65.869  1.00  0.00    -0.265 A  
HETATM   15  I   UNL     1     -11.976  12.577  63.715  1.00  0.00    -0.681 I  
HETATM   16  C   UNL     1      -9.200  12.400  67.043  1.00  0.00    -0.208 A  
HETATM   17  C   UNL     1      -9.543  13.505  67.825  1.00  0.00    -0.219 A  
ENDBRANCH  10  11
ENDBRANCH   6  10
TORSDOF 2
ENDMDL
MODEL       68
REMARK 921   NORMALIZED FREE ENERGY PREDICTED BY IDOCK:   -4.13 KCAL/MOL
REMARK 922        TOTAL FREE ENERGY PREDICTED BY IDOCK:   -4.75 KCAL/MOL
REMARK 923 INTER-LIGAND FREE ENERGY PREDICTED BY IDOCK:   -4.62 KCAL/MOL
REMARK 924 INTRA-LIGAND FREE ENERGY PREDICTED BY IDOCK:   -0.13 KCAL/MOL
REMARK 927      BINDING AFFINITY PREDICTED BY RF-SCORE:    0.00 PKD
ROOT
HETATM    1  N   UNL     1     -11.534   6.700  67.412  1.00  0.00    -0.740 NA 
HETATM    2  C   UNL     1     -10.707   7.724  67.117  1.00  0.00    -0.267 C  
HETATM    3  H1  UNL     1     -12.224   6.966  68.114  1.00  0.00     0.000 HD 
HETATM    4  H2  UNL     1     -11.477   5.775  66.986  1.00  0.00     0.000 HD 
HETATM    5  N   UNL     1      -9.794   7.372  66.187  1.00  0.00    -0.435 NA 
HETATM    6  N   UNL     1     -10.892   8.856  67.687  1.00  0.00    -0.487 NA 
HETATM    7  H1  UNL     1      -9.169   8.147  65.964  1.00  0.00     0.000 HD 
HETATM    8  H2  UNL     1      -9.737   6.447  65.761  1.00  0.00     0.000 HD 
HETATM    9  H   UNL     1     -11.625   8.980  68.387  1.00  0.00     0.000 HD 
ENDROOT
BRANCH   6  10
HETATM   10  C   UNL     1     -10.023   9.962  67.304  1.00  0.00    -0.196 C  
BRANCH  10  11
HETATM   11  C   UNL     1     -10.798  11.249  67.141  1.00  0.00    -0.321 A  
HETATM   12  C   UNL     1     -10.979  12.112  68.232  1.00  0.00    -0.273 A  
HETATM   13  C   UNL     1     -11.718  13.287  68.080  1.00  0.00    -0.359 A  
HETATM   14  C   UNL     1     -12.267  13.623  66.843  1.00  0.00    -0.398 A  
HETATM   15  I   UNL     1     -12.009  14.543  69.712  1.00  0.00    -0.381 I  
HETATM   16  C   UNL     1     -12.065  12.784  65.747  1.00  0.00    -0.505 A  
HETATM   17  C   UNL     1     -11.331  11.605  65.893  1.00  0.00    -0.262 A  
ENDBRANCH  10  11
ENDBRANCH   6  10
TORSDOF 2
ENDMDL
MODEL       69
REMARK 921   NORMALIZED FREE ENERGY PREDICTED BY IDOCK:   -4.10 KCAL/MOL
REMARK 922        TOTAL FREE ENERGY PREDICTED BY IDOCK:   -4.72 KCAL/MOL
REMARK 923 INTER-LIGAND FREE ENERGY PREDICTED BY IDOCK:   -4.61 KCAL/MOL
REMARK 924 INTRA-LIGAND FREE ENERGY PREDICTED BY IDOCK:   -0.11 KCAL/MOL
REMARK 927      BINDING AFFINITY PREDICTED BY RF-SCORE:    0.00 PKD
ROOT
HETATM    1  N   UNL     1      -8.589  18.074  65.893  1.00  0.00    -0.498 NA 
HETATM    2  C   UNL     1      -9.606  17.294  66.315  1.00  0.00    -0.248 C  
HETATM    3  H1  UNL     1      -7.898  17.538  65.369  1.00  0.00     0.000 HD 
HETATM    4  H2  UNL     1      -8.521  19.075  66.075  1.00  0.00     0.000 HD 
HETATM    5  N   UNL     1     -10.521  18.004  67.008  1.00  0.00    -0.366 NA 
HETATM    6  N   UNL     1      -9.609  16.052  65.998  1.00  0.00    -0.327 NA 
HETATM    7  H1  UNL     1     -11.290  17.414  67.327  1.00  0.00     0.000 HD 
HETATM    8  H2  UNL     1     -10.452  19.005  67.190  1.00  0.00     0.000 HD 
HETATM    9  H   UNL     1      -8.838  15.641  65.471  1.00  0.00     0.000 HD 
ENDROOT
BRANCH   6  10
HETATM   10  C   UNL     1     -10.751  15.246  66.414  1.00  0.00    -0.318 C  
BRANCH  10  11
HETATM   11  C   UNL     1     -10.952  14.056  65.507  1.00  0.00    -0.309 A  
HETATM   12  C   UNL     1     -10.300  12.842  65.773  1.00  0.00    -0.297 A  
HETATM   13  C   UNL     1     -10.471  11.753  64.916  1.00  0.00    -0.287 A  
HETATM   14  C   UNL     1     -11.302  11.853  63.800  1.00  0.00    -0.532 A  
HETATM   15  I   UNL     1      -9.474   9.969  65.301  1.00  0.00    -0.364 I  
HETATM   16  C   UNL     1     -11.975  13.048  63.547  1.00  0.00    -0.615 A  
HETATM   17  C   UNL     1     -11.806  14.142  64.397  1.00  0.00    -0.447 A  
ENDBRANCH  10  11
ENDBRANCH   6  10
TORSDOF 2
ENDMDL
MODEL       70
REMARK 921   NORMALIZED FREE ENERGY PREDICTED BY IDOCK:   -4.07 KCAL/MOL
REMARK 922        TOTAL FREE ENERGY PREDICTED BY IDOCK:   -4.69 KCAL/MOL
REMARK 923 INTER-LIGAND FREE ENERGY PREDICTED BY IDOCK:   -4.52 KCAL/MOL
REMARK 924 INTRA-LIGAND FREE ENERGY PREDICTED BY IDOCK:   -0.17 KCAL/MOL
REMARK 927      BINDING AFFINITY PREDICTED BY RF-SCORE:    0.00 PKD
ROOT
HETATM    1  N   UNL     1      -8.536  18.468  67.514  1.00  0.00    -0.259 NA 
HETATM    2  C   UNL     1      -9.597  17.918  66.888  1.00  0.00    -0.300 C  
HETATM    3  H1  UNL     1      -7.661  18.035  67.219  1.00  0.00     0.000 HD 
HETATM    4  H2  UNL     1      -8.600  19.222  68.198  1.00  0.00     0.000 HD 
HETATM    5  N   UNL     1     -10.755  18.490  67.279  1.00  0.00    -0.409 NA 
HETATM    6  N   UNL     1      -9.397  16.998  66.019  1.00  0.00    -0.497 NA 
HETATM    7  H1  UNL     1     -11.557  18.074  66.806  1.00  0.00     0.000 HD 
HETATM    8  H2  UNL     1     -10.819  19.244  67.963  1.00  0.00     0.000 HD 
HETATM    9  H   UNL     1      -8.457  16.649  65.827  1.00  0.00     0.000 HD 
ENDROOT
BRANCH   6  10
HETATM   10  C   UNL     1     -10.556  16.464  65.313  1.00  0.00    -0.299 C  
BRANCH  10  11
HETATM   11  C   UNL     1     -10.818  15.023  65.681  1.00  0.00    -0.356 A  
HETATM   12  C   UNL     1     -10.427  13.987  64.820  1.00  0.00    -0.445 A  
HETATM   13  C   UNL     1     -10.694  12.659  65.155  1.00  0.00    -0.292 A  
HETATM   14  C   UNL     1     -11.336  12.346  66.353  1.00  0.00    -0.392 A  
HETATM   15  I   UNL     1     -10.140  11.133  63.855  1.00  0.00    -0.469 I  
HETATM   16  C   UNL     1     -11.701  13.369  67.228  1.00  0.00    -0.424 A  
HETATM   17  C   UNL     1     -11.440  14.701  66.897  1.00  0.00    -0.372 A  
ENDBRANCH  10  11
ENDBRANCH   6  10
TORSDOF 2
ENDMDL
MODEL       71
REMARK 921   NORMALIZED FREE ENERGY PREDICTED BY IDOCK:   -4.06 KCAL/MOL
REMARK 922        TOTAL FREE ENERGY PREDICTED BY IDOCK:   -4.68 KCAL/MOL
REMARK 923 INTER-LIGAND FREE ENERGY PREDICTED BY IDOCK:   -4.49 KCAL/MOL
REMARK 924 INTRA-LIGAND FREE ENERGY PREDICTED BY IDOCK:   -0.18 KCAL/MOL
REMARK 927      BINDING AFFINITY PREDICTED BY RF-SCORE:    0.00 PKD
ROOT
HETATM    1  N   UNL     1     -11.596   9.498  71.610  1.00  0.00    -0.393 NA 
HETATM    2  C   UNL     1     -12.385  10.521  71.223  1.00  0.00    -0.397 C  
HETATM    3  H1  UNL     1     -11.297   9.601  72.580  1.00  0.00     0.000 HD 
HETATM    4  H2  UNL     1     -11.331   8.718  71.008  1.00  0.00     0.000 HD 
HETATM    5  N   UNL     1     -12.780  10.385  69.940  1.00  0.00    -0.537 NA 
HETATM    6  N   UNL     1     -12.684  11.431  72.074  1.00  0.00    -0.162 NA 
HETATM    7  H1  UNL     1     -13.378  11.159  69.648  1.00  0.00     0.000 HD 
HETATM    8  H2  UNL     1     -12.515   9.606  69.338  1.00  0.00     0.000 HD 
HETATM    9  H   UNL     1     -12.302  11.414  73.020  1.00  0.00     0.000 HD 
ENDROOT
BRANCH   6  10
HETATM   10  C   UNL     1     -13.589  12.492  71.648  1.00  0.00     0.106 C  
BRANCH  10  11
HETATM   11  C   UNL     1     -12.897  13.835  71.617  1.00  0.00    -0.438 A  
HETATM   12  C   UNL     1     -12.354  14.326  70.421  1.00  0.00    -0.419 A  
HETATM   13  C   UNL     1     -11.694  15.557  70.405  1.00  0.00    -0.339 A  
HETATM   14  C   UNL     1     -11.583  16.316  71.569  1.00  0.00    -0.435 A  
HETATM   15  I   UNL     1     -10.863  16.261  68.633  1.00  0.00    -0.340 I  
HETATM   16  C   UNL     1     -12.147  15.846  72.755  1.00  0.00    -0.611 A  
HETATM   17  C   UNL     1     -12.804  14.615  72.779  1.00  0.00    -0.530 A  
ENDBRANCH  10  11
ENDBRANCH   6  10
TORSDOF 2
ENDMDL
MODEL       72
REMARK 921   NORMALIZED FREE ENERGY PREDICTED BY IDOCK:   -4.06 KCAL/MOL
REMARK 922        TOTAL FREE ENERGY PREDICTED BY IDOCK:   -4.68 KCAL/MOL
REMARK 923 INTER-LIGAND FREE ENERGY PREDICTED BY IDOCK:   -4.51 KCAL/MOL
REMARK 924 INTRA-LIGAND FREE ENERGY PREDICTED BY IDOCK:   -0.17 KCAL/MOL
REMARK 927      BINDING AFFINITY PREDICTED BY RF-SCORE:    0.00 PKD
ROOT
HETATM    1  N   UNL     1     -10.167   7.473  71.380  1.00  0.00    -0.187 NA 
HETATM    2  C   UNL     1     -11.273   8.212  71.150  1.00  0.00    -0.257 C  
HETATM    3  H1  UNL     1      -9.420   8.035  71.788  1.00  0.00     0.000 HD 
HETATM    4  H2  UNL     1     -10.088   6.478  71.171  1.00  0.00     0.000 HD 
HETATM    5  N   UNL     1     -12.261   7.468  70.610  1.00  0.00    -0.528 NA 
HETATM    6  N   UNL     1     -11.275   9.448  71.485  1.00  0.00    -0.378 NA 
HETATM    7  H1  UNL     1     -13.098   8.027  70.437  1.00  0.00     0.000 HD 
HETATM    8  H2  UNL     1     -12.182   6.474  70.401  1.00  0.00     0.000 HD 
HETATM    9  H   UNL     1     -10.443   9.889  71.880  1.00  0.00     0.000 HD 
ENDROOT
BRANCH   6  10
HETATM   10  C   UNL     1     -12.503  10.207  71.283  1.00  0.00    -0.406 C  
BRANCH  10  11
HETATM   11  C   UNL     1     -12.285  11.385  70.364  1.00  0.00    -0.450 A  
HETATM   12  C   UNL     1     -11.900  11.184  69.030  1.00  0.00    -0.418 A  
HETATM   13  C   UNL     1     -11.676  12.279  68.193  1.00  0.00    -0.349 A  
HETATM   14  C   UNL     1     -11.849  13.579  68.666  1.00  0.00    -0.404 A  
HETATM   15  I   UNL     1     -11.071  11.970  66.227  1.00  0.00    -0.371 I  
HETATM   16  C   UNL     1     -12.261  13.786  69.983  1.00  0.00    -0.407 A  
HETATM   17  C   UNL     1     -12.482  12.695  70.826  1.00  0.00    -0.357 A  
ENDBRANCH  10  11
ENDBRANCH   6  10
TORSDOF 2
ENDMDL
MODEL       73
REMARK 921   NORMALIZED FREE ENERGY PREDICTED BY IDOCK:   -4.06 KCAL/MOL
REMARK 922        TOTAL FREE ENERGY PREDICTED BY IDOCK:   -4.68 KCAL/MOL
REMARK 923 INTER-LIGAND FREE ENERGY PREDICTED BY IDOCK:   -4.54 KCAL/MOL
REMARK 924 INTRA-LIGAND FREE ENERGY PREDICTED BY IDOCK:   -0.14 KCAL/MOL
REMARK 927      BINDING AFFINITY PREDICTED BY RF-SCORE:    0.00 PKD
ROOT
HETATM    1  N   UNL     1     -12.539  14.290  70.976  1.00  0.00    -0.335 NA 
HETATM    2  C   UNL     1     -13.064  13.223  71.614  1.00  0.00    -0.363 C  
HETATM    3  H1  UNL     1     -11.916  14.004  70.220  1.00  0.00     0.000 HD 
HETATM    4  H2  UNL     1     -12.741  15.259  71.217  1.00  0.00     0.000 HD 
HETATM    5  N   UNL     1     -13.888  13.600  72.614  1.00  0.00    -0.754 NA 
HETATM    6  N   UNL     1     -12.769  12.046  71.203  1.00  0.00    -0.332 NA 
HETATM    7  H1  UNL     1     -14.285  12.793  73.097  1.00  0.00     0.000 HD 
HETATM    8  H2  UNL     1     -14.090  14.570  72.856  1.00  0.00     0.000 HD 
HETATM    9  H   UNL     1     -12.115  11.905  70.432  1.00  0.00     0.000 HD 
ENDROOT
BRANCH   6  10
HETATM   10  C   UNL     1     -13.398  10.913  71.872  1.00  0.00    -0.324 C  
BRANCH  10  11
HETATM   11  C   UNL     1     -12.710   9.613  71.531  1.00  0.00    -0.480 A  
HETATM   12  C   UNL     1     -11.456   9.616  70.903  1.00  0.00    -0.427 A  
HETATM   13  C   UNL     1     -10.837   8.410  70.567  1.00  0.00    -0.232 A  
HETATM   14  C   UNL     1     -11.449   7.193  70.866  1.00  0.00    -0.333 A  
HETATM   15  I   UNL     1      -8.993   8.427  69.606  1.00  0.00    -0.147 I  
HETATM   16  C   UNL     1     -12.682   7.182  71.516  1.00  0.00    -0.433 A  
HETATM   17  C   UNL     1     -13.308   8.385  71.851  1.00  0.00    -0.380 A  
ENDBRANCH  10  11
ENDBRANCH   6  10
TORSDOF 2
ENDMDL
MODEL       74
REMARK 921   NORMALIZED FREE ENERGY PREDICTED BY IDOCK:   -4.05 KCAL/MOL
REMARK 922        TOTAL FREE ENERGY PREDICTED BY IDOCK:   -4.67 KCAL/MOL
REMARK 923 INTER-LIGAND FREE ENERGY PREDICTED BY IDOCK:   -4.53 KCAL/MOL
REMARK 924 INTRA-LIGAND FREE ENERGY PREDICTED BY IDOCK:   -0.14 KCAL/MOL
REMARK 927      BINDING AFFINITY PREDICTED BY RF-SCORE:    0.00 PKD
ROOT
HETATM    1  N   UNL     1     -10.218  19.825  66.796  1.00  0.00    -0.427 NA 
HETATM    2  C   UNL     1     -10.098  18.924  67.794  1.00  0.00    -0.369 C  
HETATM    3  H1  UNL     1     -10.797  19.467  66.037  1.00  0.00     0.000 HD 
HETATM    4  H2  UNL     1      -9.785  20.748  66.802  1.00  0.00     0.000 HD 
HETATM    5  N   UNL     1      -9.332  19.396  68.799  1.00  0.00    -0.385 NA 
HETATM    6  N   UNL     1     -10.716  17.806  67.698  1.00  0.00    -0.371 NA 
HETATM    7  H1  UNL     1      -9.241  18.715  69.553  1.00  0.00     0.000 HD 
HETATM    8  H2  UNL     1      -8.898  20.319  68.804  1.00  0.00     0.000 HD 
HETATM    9  H   UNL     1     -11.260  17.573  66.866  1.00  0.00     0.000 HD 
ENDROOT
BRANCH   6  10
HETATM   10  C   UNL     1     -10.619  16.876  68.817  1.00  0.00    -0.355 C  
BRANCH  10  11
HETATM   11  C   UNL     1     -11.060  15.485  68.426  1.00  0.00    -0.315 A  
HETATM   12  C   UNL     1     -11.238  15.151  67.075  1.00  0.00    -0.308 A  
HETATM   13  C   UNL     1     -11.670  13.871  66.722  1.00  0.00    -0.399 A  
HETATM   14  C   UNL     1     -11.911  12.909  67.703  1.00  0.00    -0.400 A  
HETATM   15  I   UNL     1     -11.964  13.396  64.719  1.00  0.00    -0.519 I  
HETATM   16  C   UNL     1     -11.707  13.226  69.045  1.00  0.00    -0.368 A  
HETATM   17  C   UNL     1     -11.280  14.506  69.406  1.00  0.00    -0.312 A  
ENDBRANCH  10  11
ENDBRANCH   6  10
TORSDOF 2
ENDMDL
MODEL       75
REMARK 921   NORMALIZED FREE ENERGY PREDICTED BY IDOCK:   -4.03 KCAL/MOL
REMARK 922        TOTAL FREE ENERGY PREDICTED BY IDOCK:   -4.64 KCAL/MOL
REMARK 923 INTER-LIGAND FREE ENERGY PREDICTED BY IDOCK:   -4.50 KCAL/MOL
REMARK 924 INTRA-LIGAND FREE ENERGY PREDICTED BY IDOCK:   -0.14 KCAL/MOL
REMARK 927      BINDING AFFINITY PREDICTED BY RF-SCORE:    0.00 PKD
ROOT
HETATM    1  N   UNL     1     -10.382  19.228  67.686  1.00  0.00    -0.403 NA 
HETATM    2  C   UNL     1     -10.520  18.512  66.550  1.00  0.00    -0.398 C  
HETATM    3  H1  UNL     1     -10.219  18.625  68.491  1.00  0.00     0.000 HD 
HETATM    4  H2  UNL     1     -10.435  20.246  67.732  1.00  0.00     0.000 HD 
HETATM    5  N   UNL     1     -10.737  19.310  65.484  1.00  0.00    -0.460 NA 
HETATM    6  N   UNL     1     -10.400  17.237  66.602  1.00  0.00    -0.319 NA 
HETATM    7  H1  UNL     1     -10.841  18.768  64.626  1.00  0.00     0.000 HD 
HETATM    8  H2  UNL     1     -10.790  20.327  65.530  1.00  0.00     0.000 HD 
HETATM    9  H   UNL     1     -10.245  16.758  67.489  1.00  0.00     0.000 HD 
ENDROOT
BRANCH   6  10
HETATM   10  C   UNL     1     -10.493  16.493  65.351  1.00  0.00    -0.269 C  
BRANCH  10  11
HETATM   11  C   UNL     1     -11.012  15.093  65.573  1.00  0.00    -0.370 A  
HETATM   12  C   UNL     1     -11.075  14.555  66.868  1.00  0.00    -0.325 A  
HETATM   13  C   UNL     1     -11.532  13.251  67.063  1.00  0.00    -0.339 A  
HETATM   14  C   UNL     1     -11.947  12.476  65.980  1.00  0.00    -0.456 A  
HETATM   15  I   UNL     1     -11.590  12.453  68.983  1.00  0.00    -0.349 I  
HETATM   16  C   UNL     1     -11.914  13.014  64.694  1.00  0.00    -0.445 A  
HETATM   17  C   UNL     1     -11.454  14.317  64.491  1.00  0.00    -0.363 A  
ENDBRANCH  10  11
ENDBRANCH   6  10
TORSDOF 2
ENDMDL
MODEL       76
REMARK 921   NORMALIZED FREE ENERGY PREDICTED BY IDOCK:   -4.02 KCAL/MOL
REMARK 922        TOTAL FREE ENERGY PREDICTED BY IDOCK:   -4.63 KCAL/MOL
REMARK 923 INTER-LIGAND FREE ENERGY PREDICTED BY IDOCK:   -4.52 KCAL/MOL
REMARK 924 INTRA-LIGAND FREE ENERGY PREDICTED BY IDOCK:   -0.11 KCAL/MOL
REMARK 927      BINDING AFFINITY PREDICTED BY RF-SCORE:    0.00 PKD
ROOT
HETATM    1  N   UNL     1      -7.794  12.543  66.886  1.00  0.00    -0.386 NA 
HETATM    2  C   UNL     1      -9.141  12.463  66.842  1.00  0.00    -0.211 C  
HETATM    3  H1  UNL     1      -7.458  12.666  67.841  1.00  0.00     0.000 HD 
HETATM    4  H2  UNL     1      -7.189  12.488  66.068  1.00  0.00     0.000 HD 
HETATM    5  N   UNL     1      -9.586  12.301  65.578  1.00  0.00    -0.412 NA 
HETATM    6  N   UNL     1      -9.802  12.509  67.938  1.00  0.00    -0.201 NA 
HETATM    7  H1  UNL     1     -10.604  12.240  65.545  1.00  0.00     0.000 HD 
HETATM    8  H2  UNL     1      -8.980  12.245  64.760  1.00  0.00     0.000 HD 
HETATM    9  H   UNL     1      -9.331  12.647  68.833  1.00  0.00     0.000 HD 
ENDROOT
BRANCH   6  10
HETATM   10  C   UNL     1     -11.251  12.358  67.866  1.00  0.00    -0.266 C  
BRANCH  10  11
HETATM   11  C   UNL     1     -11.867  12.245  69.240  1.00  0.00    -0.363 A  
HETATM   12  C   UNL     1     -12.159  10.986  69.787  1.00  0.00    -0.424 A  
HETATM   13  C   UNL     1     -12.752  10.890  71.047  1.00  0.00    -0.407 A  
HETATM   14  C   UNL     1     -13.045  12.039  71.781  1.00  0.00    -0.460 A  
HETATM   15  I   UNL     1     -13.211   9.020  71.833  1.00  0.00    -0.578 I  
HETATM   16  C   UNL     1     -12.731  13.292  71.257  1.00  0.00    -0.411 A  
HETATM   17  C   UNL     1     -12.141  13.395  69.995  1.00  0.00    -0.404 A  
ENDBRANCH  10  11
ENDBRANCH   6  10
TORSDOF 2
ENDMDL
MODEL       77
REMARK 921   NORMALIZED FREE ENERGY PREDICTED BY IDOCK:   -4.01 KCAL/MOL
REMARK 922        TOTAL FREE ENERGY PREDICTED BY IDOCK:   -4.62 KCAL/MOL
REMARK 923 INTER-LIGAND FREE ENERGY PREDICTED BY IDOCK:   -4.51 KCAL/MOL
REMARK 924 INTRA-LIGAND FREE ENERGY PREDICTED BY IDOCK:   -0.11 KCAL/MOL
REMARK 927      BINDING AFFINITY PREDICTED BY RF-SCORE:    0.00 PKD
ROOT
HETATM    1  N   UNL     1     -14.263   8.433  71.323  1.00  0.00    -0.632 NA 
HETATM    2  C   UNL     1     -13.402   9.470  71.394  1.00  0.00    -0.361 C  
HETATM    3  H1  UNL     1     -14.524   8.229  70.358  1.00  0.00     0.000 HD 
HETATM    4  H2  UNL     1     -14.608   7.917  72.132  1.00  0.00     0.000 HD 
HETATM    5  N   UNL     1     -13.057   9.740  72.670  1.00  0.00    -0.439 NA 
HETATM    6  N   UNL     1     -13.005  10.023  70.309  1.00  0.00    -0.571 NA 
HETATM    7  H1  UNL     1     -12.406  10.524  72.724  1.00  0.00     0.000 HD 
HETATM    8  H2  UNL     1     -13.402   9.225  73.479  1.00  0.00     0.000 HD 
HETATM    9  H   UNL     1     -13.361   9.720  69.401  1.00  0.00     0.000 HD 
ENDROOT
BRANCH   6  10
HETATM   10  C   UNL     1     -12.028  11.100  70.411  1.00  0.00    -0.378 C  
BRANCH  10  11
HETATM   11  C   UNL     1     -11.251  11.272  69.128  1.00  0.00    -0.337 A  
HETATM   12  C   UNL     1     -11.756  12.074  68.093  1.00  0.00    -0.398 A  
HETATM   13  C   UNL     1     -11.044  12.207  66.899  1.00  0.00    -0.297 A  
HETATM   14  C   UNL     1      -9.820  11.562  66.729  1.00  0.00    -0.227 A  
HETATM   15  I   UNL     1     -11.818  13.372  65.360  1.00  0.00    -0.489 I  
HETATM   16  C   UNL     1      -9.298  10.786  67.764  1.00  0.00    -0.158 A  
HETATM   17  C   UNL     1     -10.007  10.645  68.959  1.00  0.00    -0.226 A  
ENDBRANCH  10  11
ENDBRANCH   6  10
TORSDOF 2
ENDMDL
MODEL       78
REMARK 921   NORMALIZED FREE ENERGY PREDICTED BY IDOCK:   -4.00 KCAL/MOL
REMARK 922        TOTAL FREE ENERGY PREDICTED BY IDOCK:   -4.61 KCAL/MOL
REMARK 923 INTER-LIGAND FREE ENERGY PREDICTED BY IDOCK:   -4.49 KCAL/MOL
REMARK 924 INTRA-LIGAND FREE ENERGY PREDICTED BY IDOCK:   -0.12 KCAL/MOL
REMARK 927      BINDING AFFINITY PREDICTED BY RF-SCORE:    0.00 PKD
ROOT
HETATM    1  N   UNL     1     -11.438   4.672  64.982  1.00  0.00    -1.079 NA 
HETATM    2  C   UNL     1     -10.768   5.045  66.093  1.00  0.00    -0.203 C  
HETATM    3  H1  UNL     1     -12.031   5.425  64.633  1.00  0.00     0.000 HD 
HETATM    4  H2  UNL     1     -11.362   3.754  64.547  1.00  0.00     0.000 HD 
HETATM    5  N   UNL     1      -9.984   4.048  66.555  1.00  0.00    -0.376 NA 
HETATM    6  N   UNL     1     -10.913   6.238  66.535  1.00  0.00    -0.689 NA 
HETATM    7  H1  UNL     1      -9.477   4.330  67.395  1.00  0.00     0.000 HD 
HETATM    8  H2  UNL     1      -9.907   3.130  66.120  1.00  0.00     0.000 HD 
HETATM    9  H   UNL     1     -11.555   6.892  66.086  1.00  0.00     0.000 HD 
ENDROOT
BRANCH   6  10
HETATM   10  C   UNL     1     -10.130   6.633  67.700  1.00  0.00    -0.155 C  
BRANCH  10  11
HETATM   11  C   UNL     1     -10.405   8.064  68.097  1.00  0.00    -0.250 A  
HETATM   12  C   UNL     1     -10.452   9.074  67.125  1.00  0.00    -0.333 A  
HETATM   13  C   UNL     1     -10.682  10.399  67.502  1.00  0.00    -0.287 A  
HETATM   14  C   UNL     1     -10.884  10.729  68.842  1.00  0.00    -0.269 A  
HETATM   15  I   UNL     1     -10.716  11.894  66.057  1.00  0.00    -0.359 I  
HETATM   16  C   UNL     1     -10.867   9.725  69.810  1.00  0.00    -0.285 A  
HETATM   17  C   UNL     1     -10.633   8.399  69.440  1.00  0.00    -0.204 A  
ENDBRANCH  10  11
ENDBRANCH   6  10
TORSDOF 2
ENDMDL
MODEL       79
REMARK 921   NORMALIZED FREE ENERGY PREDICTED BY IDOCK:   -4.00 KCAL/MOL
REMARK 922        TOTAL FREE ENERGY PREDICTED BY IDOCK:   -4.61 KCAL/MOL
REMARK 923 INTER-LIGAND FREE ENERGY PREDICTED BY IDOCK:   -4.49 KCAL/MOL
REMARK 924 INTRA-LIGAND FREE ENERGY PREDICTED BY IDOCK:   -0.12 KCAL/MOL
REMARK 927      BINDING AFFINITY PREDICTED BY RF-SCORE:    0.00 PKD
ROOT
HETATM    1  N   UNL     1      -6.449  18.635  65.210  1.00  0.00    -0.444 NA 
HETATM    2  C   UNL     1      -7.618  18.851  65.849  1.00  0.00    -0.178 C  
HETATM    3  H1  UNL     1      -6.210  17.644  65.193  1.00  0.00     0.000 HD 
HETATM    4  H2  UNL     1      -5.877  19.370  64.796  1.00  0.00     0.000 HD 
HETATM    5  N   UNL     1      -7.934  20.163  65.872  1.00  0.00    -0.532 NA 
HETATM    6  N   UNL     1      -8.274  17.848  66.301  1.00  0.00    -0.423 NA 
HETATM    7  H1  UNL     1      -8.818  20.326  66.354  1.00  0.00     0.000 HD 
HETATM    8  H2  UNL     1      -7.362  20.898  65.458  1.00  0.00     0.000 HD 
HETATM    9  H   UNL     1      -7.906  16.899  66.222  1.00  0.00     0.000 HD 
ENDROOT
BRANCH   6  10
HETATM   10  C   UNL     1      -9.563  18.105  66.932  1.00  0.00    -0.299 C  
BRANCH  10  11
HETATM   11  C   UNL     1     -10.319  16.825  67.195  1.00  0.00    -0.297 A  
HETATM   12  C   UNL     1     -10.861  16.568  68.463  1.00  0.00    -0.349 A  
HETATM   13  C   UNL     1     -11.538  15.371  68.707  1.00  0.00    -0.368 A  
HETATM   14  C   UNL     1     -11.697  14.428  67.691  1.00  0.00    -0.421 A  
HETATM   15  I   UNL     1     -12.309  14.986  70.600  1.00  0.00    -0.508 I  
HETATM   16  C   UNL     1     -11.186  14.690  66.420  1.00  0.00    -0.336 A  
HETATM   17  C   UNL     1     -10.504  15.883  66.171  1.00  0.00    -0.336 A  
ENDBRANCH  10  11
ENDBRANCH   6  10
TORSDOF 2
ENDMDL
MODEL       80
REMARK 921   NORMALIZED FREE ENERGY PREDICTED BY IDOCK:   -4.00 KCAL/MOL
REMARK 922        TOTAL FREE ENERGY PREDICTED BY IDOCK:   -4.61 KCAL/MOL
REMARK 923 INTER-LIGAND FREE ENERGY PREDICTED BY IDOCK:   -4.40 KCAL/MOL
REMARK 924 INTRA-LIGAND FREE ENERGY PREDICTED BY IDOCK:   -0.20 KCAL/MOL
REMARK 927      BINDING AFFINITY PREDICTED BY RF-SCORE:    0.00 PKD
ROOT
HETATM    1  N   UNL     1      -7.701  10.259  70.206  1.00  0.00    -0.430 NA 
HETATM    2  C   UNL     1      -8.993  10.052  69.875  1.00  0.00    -0.146 C  
HETATM    3  H1  UNL     1      -7.397  11.199  69.954  1.00  0.00     0.000 HD 
HETATM    4  H2  UNL     1      -7.105   9.562  70.652  1.00  0.00     0.000 HD 
HETATM    5  N   UNL     1      -9.397   8.808  70.209  1.00  0.00    -0.165 NA 
HETATM    6  N   UNL     1      -9.661  11.010  69.350  1.00  0.00    -0.427 NA 
HETATM    7  H1  UNL     1     -10.374   8.651  69.959  1.00  0.00     0.000 HD 
HETATM    8  H2  UNL     1      -8.800   8.111  70.654  1.00  0.00     0.000 HD 
HETATM    9  H   UNL     1      -9.221  11.907  69.141  1.00  0.00     0.000 HD 
ENDROOT
BRANCH   6  10
HETATM   10  C   UNL     1     -11.071  10.779  69.060  1.00  0.00    -0.253 C  
BRANCH  10  11
HETATM   11  C   UNL     1     -11.963  11.355  70.135  1.00  0.00    -0.460 A  
HETATM   12  C   UNL     1     -12.095  12.744  70.280  1.00  0.00    -0.373 A  
HETATM   13  C   UNL     1     -12.901  13.269  71.291  1.00  0.00    -0.312 A  
HETATM   14  C   UNL     1     -13.595  12.422  72.155  1.00  0.00    -0.405 A  
HETATM   15  I   UNL     1     -13.063  15.330  71.518  1.00  0.00    -0.641 I  
HETATM   16  C   UNL     1     -13.491  11.041  71.998  1.00  0.00    -0.286 A  
HETATM   17  C   UNL     1     -12.684  10.509  70.991  1.00  0.00    -0.504 A  
ENDBRANCH  10  11
ENDBRANCH   6  10
TORSDOF 2
ENDMDL
MODEL       81
REMARK 921   NORMALIZED FREE ENERGY PREDICTED BY IDOCK:   -4.00 KCAL/MOL
REMARK 922        TOTAL FREE ENERGY PREDICTED BY IDOCK:   -4.60 KCAL/MOL
REMARK 923 INTER-LIGAND FREE ENERGY PREDICTED BY IDOCK:   -4.47 KCAL/MOL
REMARK 924 INTRA-LIGAND FREE ENERGY PREDICTED BY IDOCK:   -0.13 KCAL/MOL
REMARK 927      BINDING AFFINITY PREDICTED BY RF-SCORE:    0.00 PKD
ROOT
HETATM    1  N   UNL     1      -7.677  20.019  65.609  1.00  0.00    -0.457 NA 
HETATM    2  C   UNL     1      -8.796  19.742  66.310  1.00  0.00    -0.370 C  
HETATM    3  H1  UNL     1      -7.328  19.194  65.121  1.00  0.00     0.000 HD 
HETATM    4  H2  UNL     1      -7.236  20.937  65.572  1.00  0.00     0.000 HD 
HETATM    5  N   UNL     1      -9.259  20.832  66.957  1.00  0.00    -0.637 NA 
HETATM    6  N   UNL     1      -9.286  18.559  66.258  1.00  0.00    -0.453 NA 
HETATM    7  H1  UNL     1     -10.105  20.623  67.487  1.00  0.00     0.000 HD 
HETATM    8  H2  UNL     1      -8.817  21.751  66.919  1.00  0.00     0.000 HD 
HETATM    9  H   UNL     1      -8.820  17.819  65.731  1.00  0.00     0.000 HD 
ENDROOT
BRANCH   6  10
HETATM   10  C   UNL     1     -10.529  18.303  66.975  1.00  0.00    -0.385 C  
BRANCH  10  11
HETATM   11  C   UNL     1     -10.601  16.881  67.476  1.00  0.00    -0.307 A  
HETATM   12  C   UNL     1     -11.251  16.585  68.683  1.00  0.00    -0.297 A  
HETATM   13  C   UNL     1     -11.292  15.271  69.153  1.00  0.00    -0.297 A  
HETATM   14  C   UNL     1     -10.705  14.239  68.422  1.00  0.00    -0.257 A  
HETATM   15  I   UNL     1     -12.229  14.848  70.961  1.00  0.00    -0.505 I  
HETATM   16  C   UNL     1     -10.082  14.521  67.206  1.00  0.00    -0.247 A  
HETATM   17  C   UNL     1     -10.034  15.834  66.733  1.00  0.00    -0.260 A  
ENDBRANCH  10  11
ENDBRANCH   6  10
TORSDOF 2
ENDMDL
MODEL       82
REMARK 921   NORMALIZED FREE ENERGY PREDICTED BY IDOCK:   -3.99 KCAL/MOL
REMARK 922        TOTAL FREE ENERGY PREDICTED BY IDOCK:   -4.60 KCAL/MOL
REMARK 923 INTER-LIGAND FREE ENERGY PREDICTED BY IDOCK:   -4.46 KCAL/MOL
REMARK 924 INTRA-LIGAND FREE ENERGY PREDICTED BY IDOCK:   -0.14 KCAL/MOL
REMARK 927      BINDING AFFINITY PREDICTED BY RF-SCORE:    0.00 PKD
ROOT
HETATM    1  N   UNL     1     -12.347  13.639  63.096  1.00  0.00    -1.076 NA 
HETATM    2  C   UNL     1     -11.990  13.483  64.388  1.00  0.00    -0.422 C  
HETATM    3  H1  UNL     1     -11.549  13.528  62.471  1.00  0.00     0.000 HD 
HETATM    4  H2  UNL     1     -13.296  13.842  62.783  1.00  0.00     0.000 HD 
HETATM    5  N   UNL     1     -13.046  13.631  65.215  1.00  0.00    -0.716 NA 
HETATM    6  N   UNL     1     -10.773  13.194  64.666  1.00  0.00    -0.358 NA 
HETATM    7  H1  UNL     1     -12.776  13.513  66.192  1.00  0.00     0.000 HD 
HETATM    8  H2  UNL     1     -13.995  13.834  64.902  1.00  0.00     0.000 HD 
HETATM    9  H   UNL     1     -10.068  13.122  63.932  1.00  0.00     0.000 HD 
ENDROOT
BRANCH   6  10
HETATM   10  C   UNL     1     -10.429  12.971  66.065  1.00  0.00    -0.279 C  
BRANCH  10  11
HETATM   11  C   UNL     1      -9.992  11.546  66.310  1.00  0.00    -0.252 A  
HETATM   12  C   UNL     1      -9.632  11.126  67.599  1.00  0.00    -0.180 A  
HETATM   13  C   UNL     1      -9.206   9.814  67.815  1.00  0.00    -0.130 A  
HETATM   14  C   UNL     1      -9.150   8.905  66.758  1.00  0.00    -0.177 A  
HETATM   15  I   UNL     1      -8.641   9.211  69.723  1.00  0.00    -0.203 I  
HETATM   16  C   UNL     1      -9.535   9.308  65.480  1.00  0.00    -0.309 A  
HETATM   17  C   UNL     1      -9.958  10.620  65.257  1.00  0.00    -0.356 A  
ENDBRANCH  10  11
ENDBRANCH   6  10
TORSDOF 2
ENDMDL
MODEL       83
REMARK 921   NORMALIZED FREE ENERGY PREDICTED BY IDOCK:   -3.99 KCAL/MOL
REMARK 922        TOTAL FREE ENERGY PREDICTED BY IDOCK:   -4.60 KCAL/MOL
REMARK 923 INTER-LIGAND FREE ENERGY PREDICTED BY IDOCK:   -4.42 KCAL/MOL
REMARK 924 INTRA-LIGAND FREE ENERGY PREDICTED BY IDOCK:   -0.18 KCAL/MOL
REMARK 927      BINDING AFFINITY PREDICTED BY RF-SCORE:    0.00 PKD
ROOT
HETATM    1  N   UNL     1     -11.305   4.355  65.029  1.00  0.00    -1.102 NA 
HETATM    2  C   UNL     1     -10.479   4.707  66.036  1.00  0.00    -0.264 C  
HETATM    3  H1  UNL     1     -11.828   5.157  64.677  1.00  0.00     0.000 HD 
HETATM    4  H2  UNL     1     -11.395   3.407  64.665  1.00  0.00     0.000 HD 
HETATM    5  N   UNL     1      -9.787   3.646  66.502  1.00  0.00    -0.410 NA 
HETATM    6  N   UNL     1     -10.418   5.937  66.390  1.00  0.00    -0.450 NA 
HETATM    7  H1  UNL     1      -9.162   3.912  67.264  1.00  0.00     0.000 HD 
HETATM    8  H2  UNL     1      -9.877   2.698  66.139  1.00  0.00     0.000 HD 
HETATM    9  H   UNL     1     -11.014   6.641  65.952  1.00  0.00     0.000 HD 
ENDROOT
BRANCH   6  10
HETATM   10  C   UNL     1      -9.472   6.299  67.439  1.00  0.00    -0.115 C  
BRANCH  10  11
HETATM   11  C   UNL     1     -10.179   6.716  68.706  1.00  0.00    -0.186 A  
HETATM   12  C   UNL     1     -10.502   8.063  68.930  1.00  0.00    -0.207 A  
HETATM   13  C   UNL     1     -11.133   8.445  70.115  1.00  0.00    -0.182 A  
HETATM   14  C   UNL     1     -11.463   7.493  71.080  1.00  0.00    -0.299 A  
HETATM   15  I   UNL     1     -11.577  10.449  70.450  1.00  0.00    -0.440 I  
HETATM   16  C   UNL     1     -11.171   6.149  70.852  1.00  0.00    -0.365 A  
HETATM   17  C   UNL     1     -10.537   5.761  69.670  1.00  0.00    -0.396 A  
ENDBRANCH  10  11
ENDBRANCH   6  10
TORSDOF 2
ENDMDL
MODEL       84
REMARK 921   NORMALIZED FREE ENERGY PREDICTED BY IDOCK:   -3.98 KCAL/MOL
REMARK 922        TOTAL FREE ENERGY PREDICTED BY IDOCK:   -4.59 KCAL/MOL
REMARK 923 INTER-LIGAND FREE ENERGY PREDICTED BY IDOCK:   -4.41 KCAL/MOL
REMARK 924 INTRA-LIGAND FREE ENERGY PREDICTED BY IDOCK:   -0.17 KCAL/MOL
REMARK 927      BINDING AFFINITY PREDICTED BY RF-SCORE:    0.00 PKD
ROOT
HETATM    1  N   UNL     1     -11.456   6.595  67.319  1.00  0.00    -0.749 NA 
HETATM    2  C   UNL     1     -10.502   7.544  67.218  1.00  0.00    -0.321 C  
HETATM    3  H1  UNL     1     -12.364   6.999  67.548  1.00  0.00     0.000 HD 
HETATM    4  H2  UNL     1     -11.290   5.598  67.183  1.00  0.00     0.000 HD 
HETATM    5  N   UNL     1      -9.301   7.009  66.914  1.00  0.00    -0.147 NA 
HETATM    6  N   UNL     1     -10.830   8.773  67.374  1.00  0.00    -0.451 NA 
HETATM    7  H1  UNL     1      -8.580   7.727  66.838  1.00  0.00     0.000 HD 
HETATM    8  H2  UNL     1      -9.135   6.013  66.778  1.00  0.00     0.000 HD 
HETATM    9  H   UNL     1     -11.786   9.037  67.613  1.00  0.00     0.000 HD 
ENDROOT
BRANCH   6  10
HETATM   10  C   UNL     1      -9.793   9.782  67.198  1.00  0.00    -0.188 C  
BRANCH  10  11
HETATM   11  C   UNL     1     -10.027  10.612  65.958  1.00  0.00    -0.295 A  
HETATM   12  C   UNL     1     -10.612  11.883  66.054  1.00  0.00    -0.304 A  
HETATM   13  C   UNL     1     -10.849  12.634  64.901  1.00  0.00    -0.298 A  
HETATM   14  C   UNL     1     -10.491  12.138  63.647  1.00  0.00    -0.495 A  
HETATM   15  I   UNL     1     -11.748  14.503  65.052  1.00  0.00    -0.376 I  
HETATM   16  C   UNL     1      -9.883  10.888  63.547  1.00  0.00    -0.407 A  
HETATM   17  C   UNL     1      -9.647  10.130  64.696  1.00  0.00    -0.379 A  
ENDBRANCH  10  11
ENDBRANCH   6  10
TORSDOF 2
ENDMDL
MODEL       85
REMARK 921   NORMALIZED FREE ENERGY PREDICTED BY IDOCK:   -3.97 KCAL/MOL
REMARK 922        TOTAL FREE ENERGY PREDICTED BY IDOCK:   -4.58 KCAL/MOL
REMARK 923 INTER-LIGAND FREE ENERGY PREDICTED BY IDOCK:   -4.42 KCAL/MOL
REMARK 924 INTRA-LIGAND FREE ENERGY PREDICTED BY IDOCK:   -0.16 KCAL/MOL
REMARK 927      BINDING AFFINITY PREDICTED BY RF-SCORE:    0.00 PKD
ROOT
HETATM    1  N   UNL     1      -8.737  17.870  68.567  1.00  0.00    -0.298 NA 
HETATM    2  C   UNL     1     -10.010  17.429  68.487  1.00  0.00    -0.331 C  
HETATM    3  H1  UNL     1      -8.187  17.311  69.219  1.00  0.00     0.000 HD 
HETATM    4  H2  UNL     1      -8.371  18.663  68.040  1.00  0.00     0.000 HD 
HETATM    5  N   UNL     1     -10.738  18.169  67.625  1.00  0.00    -0.399 NA 
HETATM    6  N   UNL     1     -10.354  16.400  69.168  1.00  0.00    -0.269 NA 
HETATM    7  H1  UNL     1     -11.700  17.836  67.565  1.00  0.00     0.000 HD 
HETATM    8  H2  UNL     1     -10.372  18.962  67.099  1.00  0.00     0.000 HD 
HETATM    9  H   UNL     1      -9.695  15.938  69.796  1.00  0.00     0.000 HD 
ENDROOT
BRANCH   6  10
HETATM   10  C   UNL     1     -11.718  15.908  69.016  1.00  0.00    -0.370 C  
BRANCH  10  11
HETATM   11  C   UNL     1     -11.744  14.487  68.506  1.00  0.00    -0.353 A  
HETATM   12  C   UNL     1     -11.685  13.409  69.402  1.00  0.00    -0.382 A  
HETATM   13  C   UNL     1     -11.684  12.098  68.922  1.00  0.00    -0.327 A  
HETATM   14  C   UNL     1     -11.760  11.845  67.553  1.00  0.00    -0.335 A  
HETATM   15  I   UNL     1     -11.562  10.508  70.258  1.00  0.00    -0.438 I  
HETATM   16  C   UNL     1     -11.849  12.911  66.658  1.00  0.00    -0.461 A  
HETATM   17  C   UNL     1     -11.846  14.225  67.131  1.00  0.00    -0.454 A  
ENDBRANCH  10  11
ENDBRANCH   6  10
TORSDOF 2
ENDMDL
MODEL       86
REMARK 921   NORMALIZED FREE ENERGY PREDICTED BY IDOCK:   -3.97 KCAL/MOL
REMARK 922        TOTAL FREE ENERGY PREDICTED BY IDOCK:   -4.57 KCAL/MOL
REMARK 923 INTER-LIGAND FREE ENERGY PREDICTED BY IDOCK:   -4.41 KCAL/MOL
REMARK 924 INTRA-LIGAND FREE ENERGY PREDICTED BY IDOCK:   -0.17 KCAL/MOL
REMARK 927      BINDING AFFINITY PREDICTED BY RF-SCORE:    0.00 PKD
ROOT
HETATM    1  N   UNL     1     -13.277  10.586  71.877  1.00  0.00    -0.452 NA 
HETATM    2  C   UNL     1     -13.287   9.243  72.013  1.00  0.00    -0.450 C  
HETATM    3  H1  UNL     1     -12.758  10.873  71.047  1.00  0.00     0.000 HD 
HETATM    4  H2  UNL     1     -13.730  11.232  72.522  1.00  0.00     0.000 HD 
HETATM    5  N   UNL     1     -13.974   8.862  73.111  1.00  0.00    -1.215 NA 
HETATM    6  N   UNL     1     -12.714   8.523  71.122  1.00  0.00    -0.483 NA 
HETATM    7  H1  UNL     1     -13.982   7.847  73.214  1.00  0.00     0.000 HD 
HETATM    8  H2  UNL     1     -14.427   9.508  73.757  1.00  0.00     0.000 HD 
HETATM    9  H   UNL     1     -12.217   8.950  70.339  1.00  0.00     0.000 HD 
ENDROOT
BRANCH   6  10
HETATM   10  C   UNL     1     -12.794   7.074  71.261  1.00  0.00    -0.323 C  
BRANCH  10  11
HETATM   11  C   UNL     1     -11.553   6.508  71.908  1.00  0.00    -0.357 A  
HETATM   12  C   UNL     1     -10.306   7.117  71.707  1.00  0.00    -0.216 A  
HETATM   13  C   UNL     1      -9.158   6.573  72.288  1.00  0.00    -0.138 A  
HETATM   14  C   UNL     1      -9.241   5.433  73.086  1.00  0.00    -0.133 A  
HETATM   15  I   UNL     1      -7.309   7.465  71.955  1.00  0.00    -0.090 I  
HETATM   16  C   UNL     1     -10.482   4.839  73.314  1.00  0.00    -0.258 A  
HETATM   17  C   UNL     1     -11.633   5.375  72.733  1.00  0.00    -0.293 A  
ENDBRANCH  10  11
ENDBRANCH   6  10
TORSDOF 2
ENDMDL
MODEL       87
REMARK 921   NORMALIZED FREE ENERGY PREDICTED BY IDOCK:   -3.96 KCAL/MOL
REMARK 922        TOTAL FREE ENERGY PREDICTED BY IDOCK:   -4.56 KCAL/MOL
REMARK 923 INTER-LIGAND FREE ENERGY PREDICTED BY IDOCK:   -4.40 KCAL/MOL
REMARK 924 INTRA-LIGAND FREE ENERGY PREDICTED BY IDOCK:   -0.16 KCAL/MOL
REMARK 927      BINDING AFFINITY PREDICTED BY RF-SCORE:    0.00 PKD
ROOT
HETATM    1  N   UNL     1     -12.001  11.379  68.272  1.00  0.00    -0.610 NA 
HETATM    2  C   UNL     1     -11.972  11.103  69.593  1.00  0.00    -0.359 C  
HETATM    3  H1  UNL     1     -12.087  10.530  67.714  1.00  0.00     0.000 HD 
HETATM    4  H2  UNL     1     -11.943  12.319  67.881  1.00  0.00     0.000 HD 
HETATM    5  N   UNL     1     -11.857  12.227  70.332  1.00  0.00    -0.532 NA 
HETATM    6  N   UNL     1     -12.087   9.886  69.976  1.00  0.00    -0.473 NA 
HETATM    7  H1  UNL     1     -11.836  12.018  71.330  1.00  0.00     0.000 HD 
HETATM    8  H2  UNL     1     -11.800  13.167  69.940  1.00  0.00     0.000 HD 
HETATM    9  H   UNL     1     -12.158   9.125  69.300  1.00  0.00     0.000 HD 
ENDROOT
BRANCH   6  10
HETATM   10  C   UNL     1     -12.115   9.623  71.410  1.00  0.00    -0.388 C  
BRANCH  10  11
HETATM   11  C   UNL     1     -11.004   8.689  71.826  1.00  0.00    -0.396 A  
HETATM   12  C   UNL     1     -11.301   7.423  72.353  1.00  0.00    -0.341 A  
HETATM   13  C   UNL     1     -10.269   6.574  72.759  1.00  0.00    -0.186 A  
HETATM   14  C   UNL     1      -8.937   6.967  72.631  1.00  0.00    -0.142 A  
HETATM   15  I   UNL     1     -10.721   4.713  73.569  1.00  0.00    -0.404 I  
HETATM   16  C   UNL     1      -8.635   8.212  72.081  1.00  0.00    -0.226 A  
HETATM   17  C   UNL     1      -9.662   9.068  71.677  1.00  0.00    -0.347 A  
ENDBRANCH  10  11
ENDBRANCH   6  10
TORSDOF 2
ENDMDL
MODEL       88
REMARK 921   NORMALIZED FREE ENERGY PREDICTED BY IDOCK:   -3.94 KCAL/MOL
REMARK 922        TOTAL FREE ENERGY PREDICTED BY IDOCK:   -4.54 KCAL/MOL
REMARK 923 INTER-LIGAND FREE ENERGY PREDICTED BY IDOCK:   -4.42 KCAL/MOL
REMARK 924 INTRA-LIGAND FREE ENERGY PREDICTED BY IDOCK:   -0.13 KCAL/MOL
REMARK 927      BINDING AFFINITY PREDICTED BY RF-SCORE:    0.00 PKD
ROOT
HETATM    1  N   UNL     1     -11.262   6.628  68.217  1.00  0.00    -0.554 NA 
HETATM    2  C   UNL     1     -10.745   7.550  67.378  1.00  0.00    -0.261 C  
HETATM    3  H1  UNL     1     -11.615   7.056  69.072  1.00  0.00     0.000 HD 
HETATM    4  H2  UNL     1     -11.295   5.628  68.020  1.00  0.00     0.000 HD 
HETATM    5  N   UNL     1     -10.277   6.983  66.246  1.00  0.00    -0.437 NA 
HETATM    6  N   UNL     1     -10.787   8.786  67.712  1.00  0.00    -0.491 NA 
HETATM    7  H1  UNL     1      -9.886   7.680  65.612  1.00  0.00     0.000 HD 
HETATM    8  H2  UNL     1     -10.310   5.983  66.050  1.00  0.00     0.000 HD 
HETATM    9  H   UNL     1     -11.165   9.076  68.614  1.00  0.00     0.000 HD 
ENDROOT
BRANCH   6  10
HETATM   10  C   UNL     1     -10.277   9.766  66.760  1.00  0.00    -0.233 C  
BRANCH  10  11
HETATM   11  C   UNL     1     -10.881  11.131  66.989  1.00  0.00    -0.338 A  
HETATM   12  C   UNL     1     -11.122  11.992  65.908  1.00  0.00    -0.369 A  
HETATM   13  C   UNL     1     -11.657  13.262  66.129  1.00  0.00    -0.348 A  
HETATM   14  C   UNL     1     -11.974  13.682  67.421  1.00  0.00    -0.413 A  
HETATM   15  I   UNL     1     -11.978  14.543  64.522  1.00  0.00    -0.279 I  
HETATM   16  C   UNL     1     -11.765  12.820  68.497  1.00  0.00    -0.371 A  
HETATM   17  C   UNL     1     -11.226  11.550  68.283  1.00  0.00    -0.322 A  
ENDBRANCH  10  11
ENDBRANCH   6  10
TORSDOF 2
ENDMDL
MODEL       89
REMARK 921   NORMALIZED FREE ENERGY PREDICTED BY IDOCK:   -3.93 KCAL/MOL
REMARK 922        TOTAL FREE ENERGY PREDICTED BY IDOCK:   -4.53 KCAL/MOL
REMARK 923 INTER-LIGAND FREE ENERGY PREDICTED BY IDOCK:   -4.40 KCAL/MOL
REMARK 924 INTRA-LIGAND FREE ENERGY PREDICTED BY IDOCK:   -0.13 KCAL/MOL
REMARK 927      BINDING AFFINITY PREDICTED BY RF-SCORE:    0.00 PKD
ROOT
HETATM    1  N   UNL     1     -14.115  14.763  71.494  1.00  0.00    -0.452 NA 
HETATM    2  C   UNL     1     -12.984  15.480  71.327  1.00  0.00    -0.499 C  
HETATM    3  H1  UNL     1     -14.380  14.279  70.636  1.00  0.00     0.000 HD 
HETATM    4  H2  UNL     1     -14.639  14.713  72.367  1.00  0.00     0.000 HD 
HETATM    5  N   UNL     1     -12.633  16.122  72.461  1.00  0.00    -0.438 NA 
HETATM    6  N   UNL     1     -12.386  15.443  70.195  1.00  0.00    -0.447 NA 
HETATM    7  H1  UNL     1     -11.777  16.663  72.336  1.00  0.00     0.000 HD 
HETATM    8  H2  UNL     1     -13.157  16.072  73.334  1.00  0.00     0.000 HD 
HETATM    9  H   UNL     1     -12.774  14.917  69.411  1.00  0.00     0.000 HD 
ENDROOT
BRANCH   6  10
HETATM   10  C   UNL     1     -11.133  16.176  70.062  1.00  0.00    -0.363 C  
BRANCH  10  11
HETATM   11  C   UNL     1     -10.848  16.536  68.623  1.00  0.00    -0.345 A  
HETATM   12  C   UNL     1     -11.103  15.615  67.597  1.00  0.00    -0.305 A  
HETATM   13  C   UNL     1     -10.814  15.945  66.271  1.00  0.00    -0.200 A  
HETATM   14  C   UNL     1     -10.287  17.196  65.952  1.00  0.00    -0.294 A  
HETATM   15  I   UNL     1     -11.164  14.559  64.761  1.00  0.00    -0.317 I  
HETATM   16  C   UNL     1     -10.058  18.128  66.964  1.00  0.00    -0.357 A  
HETATM   17  C   UNL     1     -10.341  17.802  68.292  1.00  0.00    -0.387 A  
ENDBRANCH  10  11
ENDBRANCH   6  10
TORSDOF 2
ENDMDL
MODEL       90
REMARK 921   NORMALIZED FREE ENERGY PREDICTED BY IDOCK:   -3.92 KCAL/MOL
REMARK 922        TOTAL FREE ENERGY PREDICTED BY IDOCK:   -4.52 KCAL/MOL
REMARK 923 INTER-LIGAND FREE ENERGY PREDICTED BY IDOCK:   -4.40 KCAL/MOL
REMARK 924 INTRA-LIGAND FREE ENERGY PREDICTED BY IDOCK:   -0.12 KCAL/MOL
REMARK 927      BINDING AFFINITY PREDICTED BY RF-SCORE:    0.00 PKD
ROOT
HETATM    1  N   UNL     1     -12.219  11.506  70.523  1.00  0.00    -0.377 NA 
HETATM    2  C   UNL     1     -12.648  10.395  71.158  1.00  0.00    -0.410 C  
HETATM    3  H1  UNL     1     -11.620  11.276  69.730  1.00  0.00     0.000 HD 
HETATM    4  H2  UNL     1     -12.464  12.456  70.801  1.00  0.00     0.000 HD 
HETATM    5  N   UNL     1     -13.440  10.699  72.208  1.00  0.00    -0.545 NA 
HETATM    6  N   UNL     1     -12.307   9.247  70.701  1.00  0.00    -0.491 NA 
HETATM    7  H1  UNL     1     -13.764   9.858  72.688  1.00  0.00     0.000 HD 
HETATM    8  H2  UNL     1     -13.684  11.649  72.486  1.00  0.00     0.000 HD 
HETATM    9  H   UNL     1     -11.687   9.164  69.895  1.00  0.00     0.000 HD 
ENDROOT
BRANCH   6  10
HETATM   10  C   UNL     1     -12.834   8.064  71.370  1.00  0.00    -0.269 C  
BRANCH  10  11
HETATM   11  C   UNL     1     -11.869   6.905  71.294  1.00  0.00    -0.385 A  
HETATM   12  C   UNL     1     -11.555   6.166  72.445  1.00  0.00    -0.338 A  
HETATM   13  C   UNL     1     -10.643   5.112  72.373  1.00  0.00    -0.221 A  
HETATM   14  C   UNL     1     -10.048   4.772  71.158  1.00  0.00    -0.261 A  
HETATM   15  I   UNL     1     -10.160   4.044  74.091  1.00  0.00    -0.288 I  
HETATM   16  C   UNL     1     -10.377   5.484  70.005  1.00  0.00    -0.358 A  
HETATM   17  C   UNL     1     -11.286   6.542  70.071  1.00  0.00    -0.453 A  
ENDBRANCH  10  11
ENDBRANCH   6  10
TORSDOF 2
ENDMDL
MODEL       91
REMARK 921   NORMALIZED FREE ENERGY PREDICTED BY IDOCK:   -3.89 KCAL/MOL
REMARK 922        TOTAL FREE ENERGY PREDICTED BY IDOCK:   -4.48 KCAL/MOL
REMARK 923 INTER-LIGAND FREE ENERGY PREDICTED BY IDOCK:   -4.32 KCAL/MOL
REMARK 924 INTRA-LIGAND FREE ENERGY PREDICTED BY IDOCK:   -0.16 KCAL/MOL
REMARK 927      BINDING AFFINITY PREDICTED BY RF-SCORE:    0.00 PKD
ROOT
HETATM    1  N   UNL     1      -8.662  13.616  66.814  1.00  0.00    -0.424 NA 
HETATM    2  C   UNL     1      -9.295  14.505  67.609  1.00  0.00    -0.202 C  
HETATM    3  H1  UNL     1      -8.688  13.904  65.836  1.00  0.00     0.000 HD 
HETATM    4  H2  UNL     1      -8.215  12.764  67.149  1.00  0.00     0.000 HD 
HETATM    5  N   UNL     1      -9.262  14.123  68.903  1.00  0.00    -0.386 NA 
HETATM    6  N   UNL     1      -9.793  15.563  67.085  1.00  0.00    -0.233 NA 
HETATM    7  H1  UNL     1      -9.740  14.795  69.504  1.00  0.00     0.000 HD 
HETATM    8  H2  UNL     1      -8.815  13.271  69.238  1.00  0.00     0.000 HD 
HETATM    9  H   UNL     1      -9.754  15.720  66.077  1.00  0.00     0.000 HD 
ENDROOT
BRANCH   6  10
HETATM   10  C   UNL     1     -10.417  16.535  67.974  1.00  0.00    -0.313 C  
BRANCH  10  11
HETATM   11  C   UNL     1      -9.858  17.922  67.762  1.00  0.00    -0.300 A  
HETATM   12  C   UNL     1      -8.608  18.273  68.293  1.00  0.00    -0.299 A  
HETATM   13  C   UNL     1      -8.109  19.565  68.114  1.00  0.00    -0.319 A  
HETATM   14  C   UNL     1      -8.838  20.512  67.395  1.00  0.00    -0.393 A  
HETATM   15  I   UNL     1      -6.270  20.085  68.934  1.00  0.00    -0.350 I  
HETATM   16  C   UNL     1     -10.068  20.161  66.840  1.00  0.00    -0.592 A  
HETATM   17  C   UNL     1     -10.574  18.872  67.018  1.00  0.00    -0.510 A  
ENDBRANCH  10  11
ENDBRANCH   6  10
TORSDOF 2
ENDMDL
MODEL       92
REMARK 921   NORMALIZED FREE ENERGY PREDICTED BY IDOCK:   -3.88 KCAL/MOL
REMARK 922        TOTAL FREE ENERGY PREDICTED BY IDOCK:   -4.47 KCAL/MOL
REMARK 923 INTER-LIGAND FREE ENERGY PREDICTED BY IDOCK:   -4.42 KCAL/MOL
REMARK 924 INTRA-LIGAND FREE ENERGY PREDICTED BY IDOCK:   -0.05 KCAL/MOL
REMARK 927      BINDING AFFINITY PREDICTED BY RF-SCORE:    0.00 PKD
ROOT
HETATM    1  N   UNL     1     -14.041  13.505  72.545  1.00  0.00    -0.758 NA 
HETATM    2  C   UNL     1     -13.478  14.536  71.881  1.00  0.00    -0.378 C  
HETATM    3  H1  UNL     1     -13.340  12.837  72.864  1.00  0.00     0.000 HD 
HETATM    4  H2  UNL     1     -15.043  13.406  72.708  1.00  0.00     0.000 HD 
HETATM    5  N   UNL     1     -14.407  15.420  71.458  1.00  0.00    -0.567 NA 
HETATM    6  N   UNL     1     -12.203  14.578  71.765  1.00  0.00    -0.335 NA 
HETATM    7  H1  UNL     1     -13.981  16.199  70.957  1.00  0.00     0.000 HD 
HETATM    8  H2  UNL     1     -15.408  15.321  71.621  1.00  0.00     0.000 HD 
HETATM    9  H   UNL     1     -11.616  13.827  72.129  1.00  0.00     0.000 HD 
ENDROOT
BRANCH   6  10
HETATM   10  C   UNL     1     -11.617  15.734  71.097  1.00  0.00    -0.419 C  
BRANCH  10  11
HETATM   11  C   UNL     1     -11.150  15.393  69.702  1.00  0.00    -0.280 A  
HETATM   12  C   UNL     1      -9.836  15.679  69.303  1.00  0.00    -0.269 A  
HETATM   13  C   UNL     1      -9.418  15.384  68.004  1.00  0.00    -0.201 A  
HETATM   14  C   UNL     1     -10.294  14.790  67.096  1.00  0.00    -0.255 A  
HETATM   15  I   UNL     1      -7.478  15.843  67.413  1.00  0.00    -0.261 I  
HETATM   16  C   UNL     1     -11.593  14.476  67.495  1.00  0.00    -0.403 A  
HETATM   17  C   UNL     1     -12.019  14.772  68.792  1.00  0.00    -0.292 A  
ENDBRANCH  10  11
ENDBRANCH   6  10
TORSDOF 2
ENDMDL
MODEL       93
REMARK 921   NORMALIZED FREE ENERGY PREDICTED BY IDOCK:   -3.86 KCAL/MOL
REMARK 922        TOTAL FREE ENERGY PREDICTED BY IDOCK:   -4.45 KCAL/MOL
REMARK 923 INTER-LIGAND FREE ENERGY PREDICTED BY IDOCK:   -4.30 KCAL/MOL
REMARK 924 INTRA-LIGAND FREE ENERGY PREDICTED BY IDOCK:   -0.15 KCAL/MOL
REMARK 927      BINDING AFFINITY PREDICTED BY RF-SCORE:    0.00 PKD
ROOT
HETATM    1  N   UNL     1     -12.934  15.415  70.579  1.00  0.00    -0.648 NA 
HETATM    2  C   UNL     1     -11.916  15.131  69.740  1.00  0.00    -0.334 C  
HETATM    3  H1  UNL     1     -12.594  15.683  71.502  1.00  0.00     0.000 HD 
HETATM    4  H2  UNL     1     -13.920  15.368  70.322  1.00  0.00     0.000 HD 
HETATM    5  N   UNL     1     -12.366  14.777  68.518  1.00  0.00    -0.594 NA 
HETATM    6  N   UNL     1     -10.712  15.258  70.158  1.00  0.00    -0.373 NA 
HETATM    7  H1  UNL     1     -11.596  14.562  67.883  1.00  0.00     0.000 HD 
HETATM    8  H2  UNL     1     -13.352  14.730  68.261  1.00  0.00     0.000 HD 
HETATM    9  H   UNL     1     -10.515  15.528  71.123  1.00  0.00     0.000 HD 
ENDROOT
BRANCH   6  10
HETATM   10  C   UNL     1      -9.632  15.004  69.212  1.00  0.00    -0.180 C  
BRANCH  10  11
HETATM   11  C   UNL     1      -8.864  16.265  68.892  1.00  0.00    -0.253 A  
HETATM   12  C   UNL     1      -9.494  17.332  68.234  1.00  0.00    -0.283 A  
HETATM   13  C   UNL     1      -8.772  18.485  67.919  1.00  0.00    -0.284 A  
HETATM   14  C   UNL     1      -7.427  18.595  68.269  1.00  0.00    -0.302 A  
HETATM   15  I   UNL     1      -9.707  20.047  66.913  1.00  0.00    -0.605 I  
HETATM   16  C   UNL     1      -6.802  17.550  68.949  1.00  0.00    -0.246 A  
HETATM   17  C   UNL     1      -7.518  16.393  69.264  1.00  0.00    -0.202 A  
ENDBRANCH  10  11
ENDBRANCH   6  10
TORSDOF 2
ENDMDL
MODEL       94
REMARK 921   NORMALIZED FREE ENERGY PREDICTED BY IDOCK:   -3.86 KCAL/MOL
REMARK 922        TOTAL FREE ENERGY PREDICTED BY IDOCK:   -4.45 KCAL/MOL
REMARK 923 INTER-LIGAND FREE ENERGY PREDICTED BY IDOCK:   -4.27 KCAL/MOL
REMARK 924 INTRA-LIGAND FREE ENERGY PREDICTED BY IDOCK:   -0.18 KCAL/MOL
REMARK 927      BINDING AFFINITY PREDICTED BY RF-SCORE:    0.00 PKD
ROOT
HETATM    1  N   UNL     1     -14.213   8.903  73.147  1.00  0.00    -1.200 NA 
HETATM    2  C   UNL     1     -13.090   9.335  72.535  1.00  0.00    -0.343 C  
HETATM    3  H1  UNL     1     -14.147   7.917  73.397  1.00  0.00     0.000 HD 
HETATM    4  H2  UNL     1     -15.025   9.490  73.336  1.00  0.00     0.000 HD 
HETATM    5  N   UNL     1     -13.177  10.641  72.205  1.00  0.00    -0.582 NA 
HETATM    6  N   UNL     1     -12.114   8.520  72.380  1.00  0.00    -0.383 NA 
HETATM    7  H1  UNL     1     -12.328  10.967  71.742  1.00  0.00     0.000 HD 
HETATM    8  H2  UNL     1     -13.989  11.227  72.394  1.00  0.00     0.000 HD 
HETATM    9  H   UNL     1     -12.190   7.545  72.673  1.00  0.00     0.000 HD 
ENDROOT
BRANCH   6  10
HETATM   10  C   UNL     1     -10.891   9.029  71.772  1.00  0.00    -0.367 C  
BRANCH  10  11
HETATM   11  C   UNL     1     -10.630   8.393  70.427  1.00  0.00    -0.236 A  
HETATM   12  C   UNL     1     -10.204   7.059  70.343  1.00  0.00    -0.209 A  
HETATM   13  C   UNL     1      -9.942   6.484  69.098  1.00  0.00    -0.146 A  
HETATM   14  C   UNL     1     -10.115   7.222  67.927  1.00  0.00    -0.217 A  
HETATM   15  I   UNL     1      -9.278   4.516  68.987  1.00  0.00    -0.242 I  
HETATM   16  C   UNL     1     -10.567   8.539  68.002  1.00  0.00    -0.197 A  
HETATM   17  C   UNL     1     -10.827   9.121  69.244  1.00  0.00    -0.150 A  
ENDBRANCH  10  11
ENDBRANCH   6  10
TORSDOF 2
ENDMDL
MODEL       95
REMARK 921   NORMALIZED FREE ENERGY PREDICTED BY IDOCK:   -3.85 KCAL/MOL
REMARK 922        TOTAL FREE ENERGY PREDICTED BY IDOCK:   -4.44 KCAL/MOL
REMARK 923 INTER-LIGAND FREE ENERGY PREDICTED BY IDOCK:   -4.31 KCAL/MOL
REMARK 924 INTRA-LIGAND FREE ENERGY PREDICTED BY IDOCK:   -0.12 KCAL/MOL
REMARK 927      BINDING AFFINITY PREDICTED BY RF-SCORE:    0.00 PKD
ROOT
HETATM    1  N   UNL     1      -9.643   9.797  71.014  1.00  0.00    -0.298 NA 
HETATM    2  C   UNL     1     -10.654  10.103  70.175  1.00  0.00    -0.281 C  
HETATM    3  H1  UNL     1      -9.124  10.629  71.294  1.00  0.00     0.000 HD 
HETATM    4  H2  UNL     1      -9.425   8.852  71.329  1.00  0.00     0.000 HD 
HETATM    5  N   UNL     1     -11.341   9.002  69.804  1.00  0.00    -0.436 NA 
HETATM    6  N   UNL     1     -10.860  11.331  69.872  1.00  0.00    -0.466 NA 
HETATM    7  H1  UNL     1     -12.106   9.234  69.169  1.00  0.00     0.000 HD 
HETATM    8  H2  UNL     1     -11.124   8.057  70.119  1.00  0.00     0.000 HD 
HETATM    9  H   UNL     1     -10.249  12.069  70.221  1.00  0.00     0.000 HD 
ENDROOT
BRANCH   6  10
HETATM   10  C   UNL     1     -11.997  11.639  69.013  1.00  0.00    -0.305 C  
BRANCH  10  11
HETATM   11  C   UNL     1     -11.686  12.771  68.063  1.00  0.00    -0.405 A  
HETATM   12  C   UNL     1     -11.181  13.987  68.547  1.00  0.00    -0.291 A  
HETATM   13  C   UNL     1     -10.920  15.038  67.667  1.00  0.00    -0.305 A  
HETATM   14  C   UNL     1     -11.140  14.886  66.298  1.00  0.00    -0.340 A  
HETATM   15  I   UNL     1     -10.203  16.847  68.400  1.00  0.00    -0.387 I  
HETATM   16  C   UNL     1     -11.615  13.671  65.806  1.00  0.00    -0.349 A  
HETATM   17  C   UNL     1     -11.882  12.617  66.682  1.00  0.00    -0.449 A  
ENDBRANCH  10  11
ENDBRANCH   6  10
TORSDOF 2
ENDMDL
MODEL       96
REMARK 921   NORMALIZED FREE ENERGY PREDICTED BY IDOCK:   -3.84 KCAL/MOL
REMARK 922        TOTAL FREE ENERGY PREDICTED BY IDOCK:   -4.43 KCAL/MOL
REMARK 923 INTER-LIGAND FREE ENERGY PREDICTED BY IDOCK:   -4.32 KCAL/MOL
REMARK 924 INTRA-LIGAND FREE ENERGY PREDICTED BY IDOCK:   -0.12 KCAL/MOL
REMARK 927      BINDING AFFINITY PREDICTED BY RF-SCORE:    0.00 PKD
ROOT
HETATM    1  N   UNL     1      -9.888   9.382  70.887  1.00  0.00    -0.283 NA 
HETATM    2  C   UNL     1     -10.726   9.878  69.954  1.00  0.00    -0.280 C  
HETATM    3  H1  UNL     1      -9.589  10.103  71.543  1.00  0.00     0.000 HD 
HETATM    4  H2  UNL     1      -9.590   8.408  70.931  1.00  0.00     0.000 HD 
HETATM    5  N   UNL     1     -11.121   8.924  69.085  1.00  0.00    -0.429 NA 
HETATM    6  N   UNL     1     -11.062  11.113  70.014  1.00  0.00    -0.467 NA 
HETATM    7  H1  UNL     1     -11.756   9.299  68.380  1.00  0.00     0.000 HD 
HETATM    8  H2  UNL     1     -10.824   7.949  69.129  1.00  0.00     0.000 HD 
HETATM    9  H   UNL     1     -10.674  11.731  70.728  1.00  0.00     0.000 HD 
ENDROOT
BRANCH   6  10
HETATM   10  C   UNL     1     -12.018  11.608  69.030  1.00  0.00    -0.305 C  
BRANCH  10  11
HETATM   11  C   UNL     1     -11.825  13.081  68.759  1.00  0.00    -0.355 A  
HETATM   12  C   UNL     1     -11.455  13.526  67.481  1.00  0.00    -0.361 A  
HETATM   13  C   UNL     1     -11.255  14.887  67.244  1.00  0.00    -0.345 A  
HETATM   14  C   UNL     1     -11.436  15.818  68.266  1.00  0.00    -0.338 A  
HETATM   15  I   UNL     1     -10.673  15.532  65.354  1.00  0.00    -0.391 I  
HETATM   16  C   UNL     1     -11.833  15.385  69.531  1.00  0.00    -0.370 A  
HETATM   17  C   UNL     1     -12.031  14.025  69.776  1.00  0.00    -0.393 A  
ENDBRANCH  10  11
ENDBRANCH   6  10
TORSDOF 2
ENDMDL
MODEL       97
REMARK 921   NORMALIZED FREE ENERGY PREDICTED BY IDOCK:   -3.81 KCAL/MOL
REMARK 922        TOTAL FREE ENERGY PREDICTED BY IDOCK:   -4.39 KCAL/MOL
REMARK 923 INTER-LIGAND FREE ENERGY PREDICTED BY IDOCK:   -4.26 KCAL/MOL
REMARK 924 INTRA-LIGAND FREE ENERGY PREDICTED BY IDOCK:   -0.13 KCAL/MOL
REMARK 927      BINDING AFFINITY PREDICTED BY RF-SCORE:    0.00 PKD
ROOT
HETATM    1  N   UNL     1     -10.269  14.991  70.234  1.00  0.00    -0.504 NA 
HETATM    2  C   UNL     1     -11.200  14.365  69.483  1.00  0.00    -0.254 C  
HETATM    3  H1  UNL     1      -9.505  14.363  70.482  1.00  0.00     0.000 HD 
HETATM    4  H2  UNL     1     -10.324  15.968  70.518  1.00  0.00     0.000 HD 
HETATM    5  N   UNL     1     -12.212  15.196  69.155  1.00  0.00    -0.574 NA 
HETATM    6  N   UNL     1     -11.012  13.141  69.154  1.00  0.00    -0.404 NA 
HETATM    7  H1  UNL     1     -12.915  14.723  68.587  1.00  0.00     0.000 HD 
HETATM    8  H2  UNL     1     -12.266  16.174  69.439  1.00  0.00     0.000 HD 
HETATM    9  H   UNL     1     -10.196  12.626  69.485  1.00  0.00     0.000 HD 
ENDROOT
BRANCH   6  10
HETATM   10  C   UNL     1     -12.003  12.509  68.291  1.00  0.00    -0.221 C  
BRANCH  10  11
HETATM   11  C   UNL     1     -11.351  11.697  67.197  1.00  0.00    -0.373 A  
HETATM   12  C   UNL     1     -10.902  10.392  67.453  1.00  0.00    -0.344 A  
HETATM   13  C   UNL     1     -10.277   9.656  66.444  1.00  0.00    -0.217 A  
HETATM   14  C   UNL     1     -10.109  10.200  65.171  1.00  0.00    -0.329 A  
HETATM   15  I   UNL     1      -9.585   7.736  66.843  1.00  0.00    -0.302 I  
HETATM   16  C   UNL     1     -10.579  11.485  64.902  1.00  0.00    -0.360 A  
HETATM   17  C   UNL     1     -11.201  12.229  65.908  1.00  0.00    -0.381 A  
ENDBRANCH  10  11
ENDBRANCH   6  10
TORSDOF 2
ENDMDL
MODEL       98
REMARK 921   NORMALIZED FREE ENERGY PREDICTED BY IDOCK:   -3.81 KCAL/MOL
REMARK 922        TOTAL FREE ENERGY PREDICTED BY IDOCK:   -4.39 KCAL/MOL
REMARK 923 INTER-LIGAND FREE ENERGY PREDICTED BY IDOCK:   -4.21 KCAL/MOL
REMARK 924 INTRA-LIGAND FREE ENERGY PREDICTED BY IDOCK:   -0.18 KCAL/MOL
REMARK 927      BINDING AFFINITY PREDICTED BY RF-SCORE:    0.00 PKD
ROOT
HETATM    1  N   UNL     1     -10.384  15.492  65.906  1.00  0.00    -0.323 NA 
HETATM    2  C   UNL     1     -10.911  14.387  65.338  1.00  0.00    -0.339 C  
HETATM    3  H1  UNL     1      -9.516  15.770  65.448  1.00  0.00     0.000 HD 
HETATM    4  H2  UNL     1     -10.801  15.986  66.695  1.00  0.00     0.000 HD 
HETATM    5  N   UNL     1     -12.059  14.018  65.945  1.00  0.00    -0.405 NA 
HETATM    6  N   UNL     1     -10.321  13.867  64.327  1.00  0.00    -0.679 NA 
HETATM    7  H1  UNL     1     -12.458  13.183  65.515  1.00  0.00     0.000 HD 
HETATM    8  H2  UNL     1     -12.476  14.513  66.733  1.00  0.00     0.000 HD 
HETATM    9  H   UNL     1      -9.443  14.248  63.975  1.00  0.00     0.000 HD 
ENDROOT
BRANCH   6  10
HETATM   10  C   UNL     1     -10.946  12.711  63.695  1.00  0.00    -0.416 C  
BRANCH  10  11
HETATM   11  C   UNL     1     -10.083  11.477  63.814  1.00  0.00    -0.407 A  
HETATM   12  C   UNL     1     -10.214  10.622  64.918  1.00  0.00    -0.395 A  
HETATM   13  C   UNL     1      -9.396   9.497  65.034  1.00  0.00    -0.229 A  
HETATM   14  C   UNL     1      -8.454   9.202  64.049  1.00  0.00    -0.195 A  
HETATM   15  I   UNL     1      -9.576   8.255  66.693  1.00  0.00    -0.300 I  
HETATM   16  C   UNL     1      -8.338  10.031  62.934  1.00  0.00    -0.166 A  
HETATM   17  C   UNL     1      -9.151  11.161  62.814  1.00  0.00    -0.353 A  
ENDBRANCH  10  11
ENDBRANCH   6  10
TORSDOF 2
ENDMDL
MODEL       99
REMARK 921   NORMALIZED FREE ENERGY PREDICTED BY IDOCK:   -3.78 KCAL/MOL
REMARK 922        TOTAL FREE ENERGY PREDICTED BY IDOCK:   -4.37 KCAL/MOL
REMARK 923 INTER-LIGAND FREE ENERGY PREDICTED BY IDOCK:   -4.21 KCAL/MOL
REMARK 924 INTRA-LIGAND FREE ENERGY PREDICTED BY IDOCK:   -0.16 KCAL/MOL
REMARK 927      BINDING AFFINITY PREDICTED BY RF-SCORE:    0.00 PKD
ROOT
HETATM    1  N   UNL     1     -13.879   7.174  71.970  1.00  0.00    -0.567 NA 
HETATM    2  C   UNL     1     -12.592   7.318  71.590  1.00  0.00    -0.368 C  
HETATM    3  H1  UNL     1     -14.451   6.792  71.218  1.00  0.00     0.000 HD 
HETATM    4  H2  UNL     1     -14.235   7.417  72.894  1.00  0.00     0.000 HD 
HETATM    5  N   UNL     1     -11.835   7.824  72.586  1.00  0.00    -0.568 NA 
HETATM    6  N   UNL     1     -12.247   6.946  70.413  1.00  0.00    -0.615 NA 
HETATM    7  H1  UNL     1     -10.862   7.933  72.298  1.00  0.00     0.000 HD 
HETATM    8  H2  UNL     1     -12.191   8.067  73.510  1.00  0.00     0.000 HD 
HETATM    9  H   UNL     1     -12.935   6.585  69.751  1.00  0.00     0.000 HD 
ENDROOT
BRANCH   6  10
HETATM   10  C   UNL     1     -10.839   7.055  70.050  1.00  0.00    -0.261 C  
BRANCH  10  11
HETATM   11  C   UNL     1     -10.634   8.009  68.897  1.00  0.00    -0.160 A  
HETATM   12  C   UNL     1     -11.005   9.357  69.015  1.00  0.00    -0.094 A  
HETATM   13  C   UNL     1     -10.835  10.227  67.937  1.00  0.00    -0.284 A  
HETATM   14  C   UNL     1     -10.281   9.772  66.740  1.00  0.00    -0.300 A  
HETATM   15  I   UNL     1     -11.420  12.215  68.111  1.00  0.00    -0.405 I  
HETATM   16  C   UNL     1      -9.883   8.441  66.626  1.00  0.00    -0.343 A  
HETATM   17  C   UNL     1     -10.054   7.564  67.700  1.00  0.00    -0.243 A  
ENDBRANCH  10  11
ENDBRANCH   6  10
TORSDOF 2
ENDMDL
MODEL      100
REMARK 921   NORMALIZED FREE ENERGY PREDICTED BY IDOCK:   -3.78 KCAL/MOL
REMARK 922        TOTAL FREE ENERGY PREDICTED BY IDOCK:   -4.37 KCAL/MOL
REMARK 923 INTER-LIGAND FREE ENERGY PREDICTED BY IDOCK:   -4.17 KCAL/MOL
REMARK 924 INTRA-LIGAND FREE ENERGY PREDICTED BY IDOCK:   -0.20 KCAL/MOL
REMARK 927      BINDING AFFINITY PREDICTED BY RF-SCORE:    0.00 PKD
ROOT
HETATM    1  N   UNL     1     -10.697  13.190  68.950  1.00  0.00    -0.367 NA 
HETATM    2  C   UNL     1     -10.819  11.847  68.907  1.00  0.00    -0.221 C  
HETATM    3  H1  UNL     1      -9.829  13.473  69.404  1.00  0.00     0.000 HD 
HETATM    4  H2  UNL     1     -11.387  13.841  68.575  1.00  0.00     0.000 HD 
HETATM    5  N   UNL     1     -11.968  11.472  68.307  1.00  0.00    -0.590 NA 
HETATM    6  N   UNL     1      -9.873  11.122  69.377  1.00  0.00    -0.425 NA 
HETATM    7  H1  UNL     1     -12.060  10.457  68.274  1.00  0.00     0.000 HD 
HETATM    8  H2  UNL     1     -12.658  12.123  67.932  1.00  0.00     0.000 HD 
HETATM    9  H   UNL     1      -9.055  11.544  69.818  1.00  0.00     0.000 HD 
ENDROOT
BRANCH   6  10
HETATM   10  C   UNL     1     -10.003   9.674  69.262  1.00  0.00    -0.191 C  
BRANCH  10  11
HETATM   11  C   UNL     1     -10.280   9.032  70.600  1.00  0.00    -0.284 A  
HETATM   12  C   UNL     1      -9.232   8.774  71.496  1.00  0.00    -0.332 A  
HETATM   13  C   UNL     1      -9.492   8.157  72.721  1.00  0.00    -0.279 A  
HETATM   14  C   UNL     1     -10.795   7.807  73.074  1.00  0.00    -0.451 A  
HETATM   15  I   UNL     1      -7.925   7.750  74.026  1.00  0.00    -0.306 I  
HETATM   16  C   UNL     1     -11.846   8.086  72.201  1.00  0.00    -0.401 A  
HETATM   17  C   UNL     1     -11.591   8.699  70.973  1.00  0.00    -0.325 A  
ENDBRANCH  10  11
ENDBRANCH   6  10
TORSDOF 2
ENDMDL
MODEL      101
REMARK 921   NORMALIZED FREE ENERGY PREDICTED BY IDOCK:   -3.77 KCAL/MOL
REMARK 922        TOTAL FREE ENERGY PREDICTED BY IDOCK:   -4.35 KCAL/MOL
REMARK 923 INTER-LIGAND FREE ENERGY PREDICTED BY IDOCK:   -4.24 KCAL/MOL
REMARK 924 INTRA-LIGAND FREE ENERGY PREDICTED BY IDOCK:   -0.11 KCAL/MOL
REMARK 927      BINDING AFFINITY PREDICTED BY RF-SCORE:    0.00 PKD
ROOT
HETATM    1  N   UNL     1     -11.773  16.250  70.638  1.00  0.00    -0.516 NA 
HETATM    2  C   UNL     1     -11.938  14.916  70.521  1.00  0.00    -0.309 C  
HETATM    3  H1  UNL     1     -11.506  16.674  69.750  1.00  0.00     0.000 HD 
HETATM    4  H2  UNL     1     -11.900  16.770  71.506  1.00  0.00     0.000 HD 
HETATM    5  N   UNL     1     -12.292  14.355  71.696  1.00  0.00    -0.352 NA 
HETATM    6  N   UNL     1     -11.788  14.370  69.371  1.00  0.00    -0.306 NA 
HETATM    7  H1  UNL     1     -12.417  13.347  71.607  1.00  0.00     0.000 HD 
HETATM    8  H2  UNL     1     -12.419  14.875  72.564  1.00  0.00     0.000 HD 
HETATM    9  H   UNL     1     -11.506  14.921  68.560  1.00  0.00     0.000 HD 
ENDROOT
BRANCH   6  10
HETATM   10  C   UNL     1     -12.033  12.937  69.261  1.00  0.00    -0.260 C  
BRANCH  10  11
HETATM   11  C   UNL     1     -11.377  12.354  68.032  1.00  0.00    -0.340 A  
HETATM   12  C   UNL     1     -11.811  12.724  66.751  1.00  0.00    -0.452 A  
HETATM   13  C   UNL     1     -11.217  12.162  65.619  1.00  0.00    -0.335 A  
HETATM   14  C   UNL     1     -10.177  11.242  65.749  1.00  0.00    -0.301 A  
HETATM   15  I   UNL     1     -11.892  12.693  63.725  1.00  0.00    -0.659 I  
HETATM   16  C   UNL     1      -9.721  10.891  67.019  1.00  0.00    -0.203 A  
HETATM   17  C   UNL     1     -10.314  11.446  68.155  1.00  0.00    -0.206 A  
ENDBRANCH  10  11
ENDBRANCH   6  10
TORSDOF 2
ENDMDL
MODEL      102
REMARK 921   NORMALIZED FREE ENERGY PREDICTED BY IDOCK:   -3.76 KCAL/MOL
REMARK 922        TOTAL FREE ENERGY PREDICTED BY IDOCK:   -4.34 KCAL/MOL
REMARK 923 INTER-LIGAND FREE ENERGY PREDICTED BY IDOCK:   -4.21 KCAL/MOL
REMARK 924 INTRA-LIGAND FREE ENERGY PREDICTED BY IDOCK:   -0.14 KCAL/MOL
REMARK 927      BINDING AFFINITY PREDICTED BY RF-SCORE:    0.00 PKD
ROOT
HETATM    1  N   UNL     1     -11.964  11.845  67.177  1.00  0.00    -0.603 NA 
HETATM    2  C   UNL     1     -11.054  11.047  67.773  1.00  0.00    -0.295 C  
HETATM    3  H1  UNL     1     -12.449  12.432  67.856  1.00  0.00     0.000 HD 
HETATM    4  H2  UNL     1     -12.146  11.859  66.173  1.00  0.00     0.000 HD 
HETATM    5  N   UNL     1     -10.413  10.269  66.874  1.00  0.00    -0.237 NA 
HETATM    6  N   UNL     1     -10.882  11.138  69.039  1.00  0.00    -0.218 NA 
HETATM    7  H1  UNL     1      -9.724   9.666  67.325  1.00  0.00     0.000 HD 
HETATM    8  H2  UNL     1     -10.595  10.283  65.871  1.00  0.00     0.000 HD 
HETATM    9  H   UNL     1     -11.451  11.770  69.604  1.00  0.00     0.000 HD 
ENDROOT
BRANCH   6  10
HETATM   10  C   UNL     1      -9.849  10.308  69.648  1.00  0.00    -0.198 C  
BRANCH  10  11
HETATM   11  C   UNL     1     -10.420   9.395  70.706  1.00  0.00    -0.372 A  
HETATM   12  C   UNL     1     -11.790   9.095  70.722  1.00  0.00    -0.280 A  
HETATM   13  C   UNL     1     -12.315   8.269  71.718  1.00  0.00    -0.328 A  
HETATM   14  C   UNL     1     -11.484   7.721  72.694  1.00  0.00    -0.430 A  
HETATM   15  I   UNL     1     -14.354   7.859  71.752  1.00  0.00    -0.515 I  
HETATM   16  C   UNL     1     -10.116   7.991  72.667  1.00  0.00    -0.370 A  
HETATM   17  C   UNL     1      -9.585   8.820  71.676  1.00  0.00    -0.363 A  
ENDBRANCH  10  11
ENDBRANCH   6  10
TORSDOF 2
ENDMDL
MODEL      103
REMARK 921   NORMALIZED FREE ENERGY PREDICTED BY IDOCK:   -3.76 KCAL/MOL
REMARK 922        TOTAL FREE ENERGY PREDICTED BY IDOCK:   -4.34 KCAL/MOL
REMARK 923 INTER-LIGAND FREE ENERGY PREDICTED BY IDOCK:   -4.21 KCAL/MOL
REMARK 924 INTRA-LIGAND FREE ENERGY PREDICTED BY IDOCK:   -0.13 KCAL/MOL
REMARK 927      BINDING AFFINITY PREDICTED BY RF-SCORE:    0.00 PKD
ROOT
HETATM    1  N   UNL     1     -11.149   5.665  66.191  1.00  0.00    -0.756 NA 
HETATM    2  C   UNL     1     -10.448   6.623  66.833  1.00  0.00    -0.279 C  
HETATM    3  H1  UNL     1     -12.010   6.036  65.790  1.00  0.00     0.000 HD 
HETATM    4  H2  UNL     1     -10.854   4.692  66.115  1.00  0.00     0.000 HD 
HETATM    5  N   UNL     1      -9.309   6.131  67.364  1.00  0.00    -0.115 NA 
HETATM    6  N   UNL     1     -10.895   7.823  66.836  1.00  0.00    -0.490 NA 
HETATM    7  H1  UNL     1      -8.779   6.856  67.849  1.00  0.00     0.000 HD 
HETATM    8  H2  UNL     1      -9.014   5.158  67.288  1.00  0.00     0.000 HD 
HETATM    9  H   UNL     1     -11.788   8.054  66.398  1.00  0.00     0.000 HD 
ENDROOT
BRANCH   6  10
HETATM   10  C   UNL     1     -10.087   8.850  67.484  1.00  0.00    -0.227 C  
BRANCH  10  11
HETATM   11  C   UNL     1     -10.650   9.233  68.832  1.00  0.00    -0.222 A  
HETATM   12  C   UNL     1     -10.496   8.380  69.934  1.00  0.00    -0.222 A  
HETATM   13  C   UNL     1     -11.041   8.729  71.172  1.00  0.00    -0.276 A  
HETATM   14  C   UNL     1     -11.727   9.933  71.329  1.00  0.00    -0.472 A  
HETATM   15  I   UNL     1     -10.835   7.441  72.792  1.00  0.00    -0.435 I  
HETATM   16  C   UNL     1     -11.858  10.799  70.244  1.00  0.00    -0.438 A  
HETATM   17  C   UNL     1     -11.320  10.454  69.003  1.00  0.00    -0.279 A  
ENDBRANCH  10  11
ENDBRANCH   6  10
TORSDOF 2
ENDMDL
MODEL      104
REMARK 921   NORMALIZED FREE ENERGY PREDICTED BY IDOCK:   -3.73 KCAL/MOL
REMARK 922        TOTAL FREE ENERGY PREDICTED BY IDOCK:   -4.31 KCAL/MOL
REMARK 923 INTER-LIGAND FREE ENERGY PREDICTED BY IDOCK:   -4.16 KCAL/MOL
REMARK 924 INTRA-LIGAND FREE ENERGY PREDICTED BY IDOCK:   -0.15 KCAL/MOL
REMARK 927      BINDING AFFINITY PREDICTED BY RF-SCORE:    0.00 PKD
ROOT
HETATM    1  N   UNL     1      -9.579   3.683  65.750  1.00  0.00    -0.289 NA 
HETATM    2  C   UNL     1     -10.349   4.651  66.289  1.00  0.00    -0.255 C  
HETATM    3  H1  UNL     1      -8.779   3.467  66.344  1.00  0.00     0.000 HD 
HETATM    4  H2  UNL     1      -9.772   3.225  64.860  1.00  0.00     0.000 HD 
HETATM    5  N   UNL     1     -11.408   4.937  65.503  1.00  0.00    -0.942 NA 
HETATM    6  N   UNL     1     -10.032   5.133  67.433  1.00  0.00    -0.170 NA 
HETATM    7  H1  UNL     1     -11.991   5.669  65.911  1.00  0.00     0.000 HD 
HETATM    8  H2  UNL     1     -11.601   4.480  64.612  1.00  0.00     0.000 HD 
HETATM    9  H   UNL     1      -9.187   4.827  67.918  1.00  0.00     0.000 HD 
ENDROOT
BRANCH   6  10
HETATM   10  C   UNL     1     -10.915   6.133  68.020  1.00  0.00    -0.305 C  
BRANCH  10  11
HETATM   11  C   UNL     1     -11.015   5.977  69.519  1.00  0.00    -0.467 A  
HETATM   12  C   UNL     1     -10.241   5.015  70.186  1.00  0.00    -0.329 A  
HETATM   13  C   UNL     1     -10.357   4.859  71.569  1.00  0.00    -0.158 A  
HETATM   14  C   UNL     1     -11.228   5.665  72.302  1.00  0.00    -0.317 A  
HETATM   15  I   UNL     1      -9.230   3.408  72.543  1.00  0.00    -0.176 I  
HETATM   16  C   UNL     1     -11.978   6.642  71.649  1.00  0.00    -0.395 A  
HETATM   17  C   UNL     1     -11.870   6.801  70.266  1.00  0.00    -0.359 A  
ENDBRANCH  10  11
ENDBRANCH   6  10
TORSDOF 2
ENDMDL
MODEL      105
REMARK 921   NORMALIZED FREE ENERGY PREDICTED BY IDOCK:   -3.72 KCAL/MOL
REMARK 922        TOTAL FREE ENERGY PREDICTED BY IDOCK:   -4.30 KCAL/MOL
REMARK 923 INTER-LIGAND FREE ENERGY PREDICTED BY IDOCK:   -4.16 KCAL/MOL
REMARK 924 INTRA-LIGAND FREE ENERGY PREDICTED BY IDOCK:   -0.14 KCAL/MOL
REMARK 927      BINDING AFFINITY PREDICTED BY RF-SCORE:    0.00 PKD
ROOT
HETATM    1  N   UNL     1      -9.893   9.209  65.482  1.00  0.00    -0.452 NA 
HETATM    2  C   UNL     1     -10.006  10.359  66.179  1.00  0.00    -0.231 C  
HETATM    3  H1  UNL     1      -9.873   8.397  66.100  1.00  0.00     0.000 HD 
HETATM    4  H2  UNL     1      -9.835   9.157  64.466  1.00  0.00     0.000 HD 
HETATM    5  N   UNL     1     -10.032  11.432  65.362  1.00  0.00    -0.234 NA 
HETATM    6  N   UNL     1     -10.108  10.305  67.455  1.00  0.00    -0.192 NA 
HETATM    7  H1  UNL     1     -10.118  12.302  65.888  1.00  0.00     0.000 HD 
HETATM    8  H2  UNL     1      -9.974  11.381  64.345  1.00  0.00     0.000 HD 
HETATM    9  H   UNL     1     -10.063   9.414  67.950  1.00  0.00     0.000 HD 
ENDROOT
BRANCH   6  10
HETATM   10  C   UNL     1     -10.292  11.558  68.177  1.00  0.00    -0.195 C  
BRANCH  10  11
HETATM   11  C   UNL     1     -11.156  11.374  69.402  1.00  0.00    -0.301 A  
HETATM   12  C   UNL     1     -11.809  12.471  69.982  1.00  0.00    -0.363 A  
HETATM   13  C   UNL     1     -12.587  12.298  71.128  1.00  0.00    -0.253 A  
HETATM   14  C   UNL     1     -12.737  11.034  71.698  1.00  0.00    -0.483 A  
HETATM   15  I   UNL     1     -13.523  13.938  71.999  1.00  0.00    -0.640 I  
HETATM   16  C   UNL     1     -12.114   9.934  71.109  1.00  0.00    -0.466 A  
HETATM   17  C   UNL     1     -11.332  10.101  69.965  1.00  0.00    -0.351 A  
ENDBRANCH  10  11
ENDBRANCH   6  10
TORSDOF 2
ENDMDL
MODEL      106
REMARK 921   NORMALIZED FREE ENERGY PREDICTED BY IDOCK:   -3.72 KCAL/MOL
REMARK 922        TOTAL FREE ENERGY PREDICTED BY IDOCK:   -4.30 KCAL/MOL
REMARK 923 INTER-LIGAND FREE ENERGY PREDICTED BY IDOCK:   -4.17 KCAL/MOL
REMARK 924 INTRA-LIGAND FREE ENERGY PREDICTED BY IDOCK:   -0.13 KCAL/MOL
REMARK 927      BINDING AFFINITY PREDICTED BY RF-SCORE:    0.00 PKD
ROOT
HETATM    1  N   UNL     1     -13.341  10.647  72.148  1.00  0.00    -0.580 NA 
HETATM    2  C   UNL     1     -12.980   9.406  72.535  1.00  0.00    -0.271 C  
HETATM    3  H1  UNL     1     -12.685  11.034  71.470  1.00  0.00     0.000 HD 
HETATM    4  H2  UNL     1     -14.167  11.137  72.491  1.00  0.00     0.000 HD 
HETATM    5  N   UNL     1     -13.848   8.895  73.433  1.00  0.00    -1.056 NA 
HETATM    6  N   UNL     1     -11.940   8.870  72.012  1.00  0.00    -0.362 NA 
HETATM    7  H1  UNL     1     -13.574   7.956  73.726  1.00  0.00     0.000 HD 
HETATM    8  H2  UNL     1     -14.673   9.385  73.776  1.00  0.00     0.000 HD 
HETATM    9  H   UNL     1     -11.363   9.382  71.344  1.00  0.00     0.000 HD 
ENDROOT
BRANCH   6  10
HETATM   10  C   UNL     1     -11.608   7.505  72.402  1.00  0.00    -0.309 C  
BRANCH  10  11
HETATM   11  C   UNL     1     -10.885   6.771  71.298  1.00  0.00    -0.266 A  
HETATM   12  C   UNL     1      -9.731   6.024  71.578  1.00  0.00    -0.186 A  
HETATM   13  C   UNL     1      -9.054   5.368  70.549  1.00  0.00    -0.142 A  
HETATM   14  C   UNL     1      -9.525   5.433  69.238  1.00  0.00    -0.179 A  
HETATM   15  I   UNL     1      -7.325   4.292  70.970  1.00  0.00    -0.046 I  
HETATM   16  C   UNL     1     -10.688   6.149  68.957  1.00  0.00    -0.377 A  
HETATM   17  C   UNL     1     -11.367   6.811  69.981  1.00  0.00    -0.396 A  
ENDBRANCH  10  11
ENDBRANCH   6  10
TORSDOF 2
ENDMDL
MODEL      107
REMARK 921   NORMALIZED FREE ENERGY PREDICTED BY IDOCK:   -3.72 KCAL/MOL
REMARK 922        TOTAL FREE ENERGY PREDICTED BY IDOCK:   -4.29 KCAL/MOL
REMARK 923 INTER-LIGAND FREE ENERGY PREDICTED BY IDOCK:   -4.09 KCAL/MOL
REMARK 924 INTRA-LIGAND FREE ENERGY PREDICTED BY IDOCK:   -0.20 KCAL/MOL
REMARK 927      BINDING AFFINITY PREDICTED BY RF-SCORE:    0.00 PKD
ROOT
HETATM    1  N   UNL     1     -14.395   7.759  71.243  1.00  0.00    -0.653 NA 
HETATM    2  C   UNL     1     -13.350   8.450  71.745  1.00  0.00    -0.357 C  
HETATM    3  H1  UNL     1     -14.264   7.548  70.254  1.00  0.00     0.000 HD 
HETATM    4  H2  UNL     1     -15.213   7.482  71.785  1.00  0.00     0.000 HD 
HETATM    5  N   UNL     1     -13.523   8.729  73.054  1.00  0.00    -0.938 NA 
HETATM    6  N   UNL     1     -12.356   8.714  70.981  1.00  0.00    -0.466 NA 
HETATM    7  H1  UNL     1     -12.733   9.252  73.433  1.00  0.00     0.000 HD 
HETATM    8  H2  UNL     1     -14.341   8.453  73.596  1.00  0.00     0.000 HD 
HETATM    9  H   UNL     1     -12.363   8.448  69.996  1.00  0.00     0.000 HD 
ENDROOT
BRANCH   6  10
HETATM   10  C   UNL     1     -11.214   9.407  71.564  1.00  0.00    -0.386 C  
BRANCH  10  11
HETATM   11  C   UNL     1     -10.038   8.480  71.757  1.00  0.00    -0.351 A  
HETATM   12  C   UNL     1      -9.204   8.156  70.676  1.00  0.00    -0.162 A  
HETATM   13  C   UNL     1      -8.133   7.278  70.856  1.00  0.00    -0.106 A  
HETATM   14  C   UNL     1      -7.871   6.728  72.111  1.00  0.00    -0.095 A  
HETATM   15  I   UNL     1      -6.924   6.779  69.240  1.00  0.00    -0.080 I  
HETATM   16  C   UNL     1      -8.679   7.069  73.195  1.00  0.00    -0.148 A  
HETATM   17  C   UNL     1      -9.754   7.943  73.022  1.00  0.00    -0.349 A  
ENDBRANCH  10  11
ENDBRANCH   6  10
TORSDOF 2
ENDMDL
MODEL      108
REMARK 921   NORMALIZED FREE ENERGY PREDICTED BY IDOCK:   -3.70 KCAL/MOL
REMARK 922        TOTAL FREE ENERGY PREDICTED BY IDOCK:   -4.27 KCAL/MOL
REMARK 923 INTER-LIGAND FREE ENERGY PREDICTED BY IDOCK:   -4.13 KCAL/MOL
REMARK 924 INTRA-LIGAND FREE ENERGY PREDICTED BY IDOCK:   -0.14 KCAL/MOL
REMARK 927      BINDING AFFINITY PREDICTED BY RF-SCORE:    0.00 PKD
ROOT
HETATM    1  N   UNL     1     -10.897   4.738  66.065  1.00  0.00    -0.676 NA 
HETATM    2  C   UNL     1     -10.468   5.702  66.906  1.00  0.00    -0.288 C  
HETATM    3  H1  UNL     1     -11.642   5.077  65.456  1.00  0.00     0.000 HD 
HETATM    4  H2  UNL     1     -10.524   3.790  66.041  1.00  0.00     0.000 HD 
HETATM    5  N   UNL     1      -9.483   5.254  67.712  1.00  0.00    -0.119 NA 
HETATM    6  N   UNL     1     -10.985   6.872  66.826  1.00  0.00    -0.554 NA 
HETATM    7  H1  UNL     1      -9.159   5.983  68.348  1.00  0.00     0.000 HD 
HETATM    8  H2  UNL     1      -9.110   4.305  67.688  1.00  0.00     0.000 HD 
HETATM    9  H   UNL     1     -11.739   7.071  66.168  1.00  0.00     0.000 HD 
ENDROOT
BRANCH   6  10
HETATM   10  C   UNL     1     -10.459   7.910  67.704  1.00  0.00    -0.234 C  
BRANCH  10  11
HETATM   11  C   UNL     1     -10.460   9.262  67.031  1.00  0.00    -0.303 A  
HETATM   12  C   UNL     1     -10.011   9.398  65.709  1.00  0.00    -0.278 A  
HETATM   13  C   UNL     1      -9.991  10.655  65.101  1.00  0.00    -0.303 A  
HETATM   14  C   UNL     1     -10.432  11.783  65.793  1.00  0.00    -0.302 A  
HETATM   15  I   UNL     1      -9.292  10.849  63.152  1.00  0.00    -0.397 I  
HETATM   16  C   UNL     1     -10.906  11.651  67.098  1.00  0.00    -0.306 A  
HETATM   17  C   UNL     1     -10.925  10.397  67.713  1.00  0.00    -0.369 A  
ENDBRANCH  10  11
ENDBRANCH   6  10
TORSDOF 2
ENDMDL
MODEL      109
REMARK 921   NORMALIZED FREE ENERGY PREDICTED BY IDOCK:   -3.66 KCAL/MOL
REMARK 922        TOTAL FREE ENERGY PREDICTED BY IDOCK:   -4.23 KCAL/MOL
REMARK 923 INTER-LIGAND FREE ENERGY PREDICTED BY IDOCK:   -4.09 KCAL/MOL
REMARK 924 INTRA-LIGAND FREE ENERGY PREDICTED BY IDOCK:   -0.15 KCAL/MOL
REMARK 927      BINDING AFFINITY PREDICTED BY RF-SCORE:    0.00 PKD
ROOT
HETATM    1  N   UNL     1     -14.395   7.759  71.243  1.00  0.00    -0.653 NA 
HETATM    2  C   UNL     1     -13.350   8.450  71.745  1.00  0.00    -0.357 C  
HETATM    3  H1  UNL     1     -14.264   7.548  70.254  1.00  0.00     0.000 HD 
HETATM    4  H2  UNL     1     -15.213   7.482  71.785  1.00  0.00     0.000 HD 
HETATM    5  N   UNL     1     -13.523   8.729  73.054  1.00  0.00    -0.938 NA 
HETATM    6  N   UNL     1     -12.356   8.714  70.981  1.00  0.00    -0.466 NA 
HETATM    7  H1  UNL     1     -12.733   9.252  73.433  1.00  0.00     0.000 HD 
HETATM    8  H2  UNL     1     -14.341   8.453  73.596  1.00  0.00     0.000 HD 
HETATM    9  H   UNL     1     -12.363   8.448  69.996  1.00  0.00     0.000 HD 
ENDROOT
BRANCH   6  10
HETATM   10  C   UNL     1     -11.214   9.407  71.564  1.00  0.00    -0.386 C  
BRANCH  10  11
HETATM   11  C   UNL     1     -10.038   8.480  71.757  1.00  0.00    -0.351 A  
HETATM   12  C   UNL     1     -10.054   7.514  72.774  1.00  0.00    -0.293 A  
HETATM   13  C   UNL     1      -8.953   6.676  72.963  1.00  0.00    -0.127 A  
HETATM   14  C   UNL     1      -7.836   6.778  72.134  1.00  0.00    -0.095 A  
HETATM   15  I   UNL     1      -8.975   5.271  74.496  1.00  0.00    -0.124 I  
HETATM   16  C   UNL     1      -7.825   7.716  71.103  1.00  0.00    -0.090 A  
HETATM   17  C   UNL     1      -8.921   8.560  70.911  1.00  0.00    -0.206 A  
ENDBRANCH  10  11
ENDBRANCH   6  10
TORSDOF 2
ENDMDL
MODEL      110
REMARK 921   NORMALIZED FREE ENERGY PREDICTED BY IDOCK:   -3.66 KCAL/MOL
REMARK 922        TOTAL FREE ENERGY PREDICTED BY IDOCK:   -4.23 KCAL/MOL
REMARK 923 INTER-LIGAND FREE ENERGY PREDICTED BY IDOCK:   -4.08 KCAL/MOL
REMARK 924 INTRA-LIGAND FREE ENERGY PREDICTED BY IDOCK:   -0.15 KCAL/MOL
REMARK 927      BINDING AFFINITY PREDICTED BY RF-SCORE:    0.00 PKD
ROOT
HETATM    1  N   UNL     1     -11.250   7.717  69.302  1.00  0.00    -0.433 NA 
HETATM    2  C   UNL     1     -10.338   8.114  68.390  1.00  0.00    -0.199 C  
HETATM    3  H1  UNL     1     -12.199   7.782  68.934  1.00  0.00     0.000 HD 
HETATM    4  H2  UNL     1     -11.019   7.392  70.240  1.00  0.00     0.000 HD 
HETATM    5  N   UNL     1      -9.081   8.028  68.876  1.00  0.00    -0.145 NA 
HETATM    6  N   UNL     1     -10.737   8.470  67.226  1.00  0.00    -0.447 NA 
HETATM    7  H1  UNL     1      -8.392   8.328  68.187  1.00  0.00     0.000 HD 
HETATM    8  H2  UNL     1      -8.851   7.704  69.815  1.00  0.00     0.000 HD 
HETATM    9  H   UNL     1     -11.731   8.496  66.995  1.00  0.00     0.000 HD 
ENDROOT
BRANCH   6  10
HETATM   10  C   UNL     1      -9.726   8.835  66.241  1.00  0.00    -0.272 C  
BRANCH  10  11
HETATM   11  C   UNL     1     -10.011  10.183  65.624  1.00  0.00    -0.348 A  
HETATM   12  C   UNL     1     -10.576  11.211  66.393  1.00  0.00    -0.315 A  
HETATM   13  C   UNL     1     -10.860  12.448  65.810  1.00  0.00    -0.276 A  
HETATM   14  C   UNL     1     -10.571  12.680  64.466  1.00  0.00    -0.369 A  
HETATM   15  I   UNL     1     -11.728  13.954  66.952  1.00  0.00    -0.480 I  
HETATM   16  C   UNL     1      -9.982  11.672  63.703  1.00  0.00    -0.406 A  
HETATM   17  C   UNL     1      -9.699  10.432  64.279  1.00  0.00    -0.389 A  
ENDBRANCH  10  11
ENDBRANCH   6  10
TORSDOF 2
ENDMDL
MODEL      111
REMARK 921   NORMALIZED FREE ENERGY PREDICTED BY IDOCK:   -3.64 KCAL/MOL
REMARK 922        TOTAL FREE ENERGY PREDICTED BY IDOCK:   -4.21 KCAL/MOL
REMARK 923 INTER-LIGAND FREE ENERGY PREDICTED BY IDOCK:   -4.02 KCAL/MOL
REMARK 924 INTRA-LIGAND FREE ENERGY PREDICTED BY IDOCK:   -0.18 KCAL/MOL
REMARK 927      BINDING AFFINITY PREDICTED BY RF-SCORE:    0.00 PKD
ROOT
HETATM    1  N   UNL     1      -8.234   7.471  74.455  1.00  0.00    -0.191 NA 
HETATM    2  C   UNL     1      -8.539   7.881  73.206  1.00  0.00    -0.218 C  
HETATM    3  H1  UNL     1      -8.958   6.862  74.835  1.00  0.00     0.000 HD 
HETATM    4  H2  UNL     1      -7.387   7.737  74.955  1.00  0.00     0.000 HD 
HETATM    5  N   UNL     1      -7.581   8.687  72.702  1.00  0.00    -0.353 NA 
HETATM    6  N   UNL     1      -9.616   7.456  72.657  1.00  0.00    -0.151 NA 
HETATM    7  H1  UNL     1      -7.811   8.997  71.757  1.00  0.00     0.000 HD 
HETATM    8  H2  UNL     1      -6.733   8.953  73.202  1.00  0.00     0.000 HD 
HETATM    9  H   UNL     1     -10.262   6.850  73.165  1.00  0.00     0.000 HD 
ENDROOT
BRANCH   6  10
HETATM   10  C   UNL     1      -9.889   7.865  71.285  1.00  0.00    -0.168 C  
BRANCH  10  11
HETATM   11  C   UNL     1     -10.951   8.937  71.224  1.00  0.00    -0.363 A  
HETATM   12  C   UNL     1     -10.827  10.009  70.328  1.00  0.00    -0.370 A  
HETATM   13  C   UNL     1     -11.800  11.010  70.294  1.00  0.00    -0.367 A  
HETATM   14  C   UNL     1     -12.910  10.946  71.136  1.00  0.00    -0.508 A  
HETATM   15  I   UNL     1     -11.589  12.613  68.986  1.00  0.00    -0.346 I  
HETATM   16  C   UNL     1     -13.054   9.868  72.008  1.00  0.00    -0.545 A  
HETATM   17  C   UNL     1     -12.083   8.866  72.050  1.00  0.00    -0.442 A  
ENDBRANCH  10  11
ENDBRANCH   6  10
TORSDOF 2
ENDMDL
MODEL      112
REMARK 921   NORMALIZED FREE ENERGY PREDICTED BY IDOCK:   -3.63 KCAL/MOL
REMARK 922        TOTAL FREE ENERGY PREDICTED BY IDOCK:   -4.20 KCAL/MOL
REMARK 923 INTER-LIGAND FREE ENERGY PREDICTED BY IDOCK:   -4.14 KCAL/MOL
REMARK 924 INTRA-LIGAND FREE ENERGY PREDICTED BY IDOCK:   -0.05 KCAL/MOL
REMARK 927      BINDING AFFINITY PREDICTED BY RF-SCORE:    0.00 PKD
ROOT
HETATM    1  N   UNL     1     -12.099  11.281  70.356  1.00  0.00    -0.360 NA 
HETATM    2  C   UNL     1     -12.415  10.118  70.963  1.00  0.00    -0.375 C  
HETATM    3  H1  UNL     1     -11.129  11.543  70.530  1.00  0.00     0.000 HD 
HETATM    4  H2  UNL     1     -12.749  11.830  69.794  1.00  0.00     0.000 HD 
HETATM    5  N   UNL     1     -13.700   9.772  70.733  1.00  0.00    -0.478 NA 
HETATM    6  N   UNL     1     -11.509   9.492  71.617  1.00  0.00    -0.389 NA 
HETATM    7  H1  UNL     1     -13.938   8.892  71.192  1.00  0.00     0.000 HD 
HETATM    8  H2  UNL     1     -14.349  10.321  70.171  1.00  0.00     0.000 HD 
HETATM    9  H   UNL     1     -10.570   9.880  71.719  1.00  0.00     0.000 HD 
ENDROOT
BRANCH   6  10
HETATM   10  C   UNL     1     -11.861   8.208  72.210  1.00  0.00    -0.382 C  
BRANCH  10  11
HETATM   11  C   UNL     1     -11.242   7.056  71.454  1.00  0.00    -0.283 A  
HETATM   12  C   UNL     1     -11.193   7.071  70.052  1.00  0.00    -0.310 A  
HETATM   13  C   UNL     1     -10.642   5.992  69.359  1.00  0.00    -0.298 A  
HETATM   14  C   UNL     1     -10.119   4.899  70.050  1.00  0.00    -0.337 A  
HETATM   15  I   UNL     1     -10.606   6.010  67.280  1.00  0.00    -0.386 I  
HETATM   16  C   UNL     1     -10.138   4.891  71.444  1.00  0.00    -0.268 A  
HETATM   17  C   UNL     1     -10.691   5.965  72.144  1.00  0.00    -0.278 A  
ENDBRANCH  10  11
ENDBRANCH   6  10
TORSDOF 2
ENDMDL
MODEL      113
REMARK 921   NORMALIZED FREE ENERGY PREDICTED BY IDOCK:   -3.63 KCAL/MOL
REMARK 922        TOTAL FREE ENERGY PREDICTED BY IDOCK:   -4.20 KCAL/MOL
REMARK 923 INTER-LIGAND FREE ENERGY PREDICTED BY IDOCK:   -4.17 KCAL/MOL
REMARK 924 INTRA-LIGAND FREE ENERGY PREDICTED BY IDOCK:   -0.02 KCAL/MOL
REMARK 927      BINDING AFFINITY PREDICTED BY RF-SCORE:    0.00 PKD
ROOT
HETATM    1  N   UNL     1     -10.274  12.739  63.939  1.00  0.00    -0.548 NA 
HETATM    2  C   UNL     1     -10.963  12.515  65.078  1.00  0.00    -0.294 C  
HETATM    3  H1  UNL     1      -9.268  12.745  64.106  1.00  0.00     0.000 HD 
HETATM    4  H2  UNL     1     -10.704  12.884  63.027  1.00  0.00     0.000 HD 
HETATM    5  N   UNL     1     -12.294  12.507  64.857  1.00  0.00    -0.483 NA 
HETATM    6  N   UNL     1     -10.317  12.310  66.165  1.00  0.00    -0.237 NA 
HETATM    7  H1  UNL     1     -12.816  12.337  65.717  1.00  0.00     0.000 HD 
HETATM    8  H2  UNL     1     -12.725  12.652  63.944  1.00  0.00     0.000 HD 
HETATM    9  H   UNL     1      -9.298  12.356  66.189  1.00  0.00     0.000 HD 
ENDROOT
BRANCH   6  10
HETATM   10  C   UNL     1     -11.086  12.009  67.367  1.00  0.00    -0.281 C  
BRANCH  10  11
HETATM   11  C   UNL     1     -11.313  13.244  68.206  1.00  0.00    -0.335 A  
HETATM   12  C   UNL     1     -10.756  14.474  67.825  1.00  0.00    -0.256 A  
HETATM   13  C   UNL     1     -10.950  15.606  68.619  1.00  0.00    -0.294 A  
HETATM   14  C   UNL     1     -11.710  15.531  69.786  1.00  0.00    -0.362 A  
HETATM   15  I   UNL     1     -10.092  17.417  68.063  1.00  0.00    -0.384 I  
HETATM   16  C   UNL     1     -12.290  14.318  70.155  1.00  0.00    -0.413 A  
HETATM   17  C   UNL     1     -12.097  13.181  69.368  1.00  0.00    -0.285 A  
ENDBRANCH  10  11
ENDBRANCH   6  10
TORSDOF 2
ENDMDL
MODEL      114
REMARK 921   NORMALIZED FREE ENERGY PREDICTED BY IDOCK:   -3.63 KCAL/MOL
REMARK 922        TOTAL FREE ENERGY PREDICTED BY IDOCK:   -4.19 KCAL/MOL
REMARK 923 INTER-LIGAND FREE ENERGY PREDICTED BY IDOCK:   -4.07 KCAL/MOL
REMARK 924 INTRA-LIGAND FREE ENERGY PREDICTED BY IDOCK:   -0.12 KCAL/MOL
REMARK 927      BINDING AFFINITY PREDICTED BY RF-SCORE:    0.00 PKD
ROOT
HETATM    1  N   UNL     1      -9.700   9.116  65.425  1.00  0.00    -0.457 NA 
HETATM    2  C   UNL     1      -9.710  10.085  66.365  1.00  0.00    -0.210 C  
HETATM    3  H1  UNL     1      -9.649   8.188  65.846  1.00  0.00     0.000 HD 
HETATM    4  H2  UNL     1      -9.738   9.290  64.421  1.00  0.00     0.000 HD 
HETATM    5  N   UNL     1      -9.777  11.313  65.809  1.00  0.00    -0.218 NA 
HETATM    6  N   UNL     1      -9.693   9.752  67.601  1.00  0.00    -0.152 NA 
HETATM    7  H1  UNL     1      -9.785  12.046  66.519  1.00  0.00     0.000 HD 
HETATM    8  H2  UNL     1      -9.815  11.487  64.805  1.00  0.00     0.000 HD 
HETATM    9  H   UNL     1      -9.631   8.772  67.883  1.00  0.00     0.000 HD 
ENDROOT
BRANCH   6  10
HETATM   10  C   UNL     1      -9.767  10.816  68.595  1.00  0.00    -0.186 C  
BRANCH  10  11
HETATM   11  C   UNL     1     -10.626  10.420  69.773  1.00  0.00    -0.302 A  
HETATM   12  C   UNL     1     -10.243   9.359  70.606  1.00  0.00    -0.353 A  
HETATM   13  C   UNL     1     -11.054   8.982  71.678  1.00  0.00    -0.363 A  
HETATM   14  C   UNL     1     -12.241   9.665  71.942  1.00  0.00    -0.413 A  
HETATM   15  I   UNL     1     -10.494   7.385  72.887  1.00  0.00    -0.443 I  
HETATM   16  C   UNL     1     -12.613  10.740  71.135  1.00  0.00    -0.532 A  
HETATM   17  C   UNL     1     -11.808  11.119  70.059  1.00  0.00    -0.441 A  
ENDBRANCH  10  11
ENDBRANCH   6  10
TORSDOF 2
ENDMDL
MODEL      115
REMARK 921   NORMALIZED FREE ENERGY PREDICTED BY IDOCK:   -3.61 KCAL/MOL
REMARK 922        TOTAL FREE ENERGY PREDICTED BY IDOCK:   -4.17 KCAL/MOL
REMARK 923 INTER-LIGAND FREE ENERGY PREDICTED BY IDOCK:   -4.04 KCAL/MOL
REMARK 924 INTRA-LIGAND FREE ENERGY PREDICTED BY IDOCK:   -0.13 KCAL/MOL
REMARK 927      BINDING AFFINITY PREDICTED BY RF-SCORE:    0.00 PKD
ROOT
HETATM    1  N   UNL     1     -12.004  11.670  70.164  1.00  0.00    -0.349 NA 
HETATM    2  C   UNL     1     -11.634  12.919  69.812  1.00  0.00    -0.218 C  
HETATM    3  H1  UNL     1     -11.425  10.965  69.707  1.00  0.00     0.000 HD 
HETATM    4  H2  UNL     1     -12.766  11.457  70.808  1.00  0.00     0.000 HD 
HETATM    5  N   UNL     1     -12.400  13.851  70.417  1.00  0.00    -0.352 NA 
HETATM    6  N   UNL     1     -10.637  13.073  69.022  1.00  0.00    -0.423 NA 
HETATM    7  H1  UNL     1     -12.120  14.796  70.151  1.00  0.00     0.000 HD 
HETATM    8  H2  UNL     1     -13.162  13.638  71.061  1.00  0.00     0.000 HD 
HETATM    9  H   UNL     1     -10.150  12.268  68.626  1.00  0.00     0.000 HD 
ENDROOT
BRANCH   6  10
HETATM   10  C   UNL     1     -10.221  14.434  68.707  1.00  0.00    -0.239 C  
BRANCH  10  11
HETATM   11  C   UNL     1     -10.594  14.818  67.295  1.00  0.00    -0.273 A  
HETATM   12  C   UNL     1     -11.101  13.857  66.408  1.00  0.00    -0.309 A  
HETATM   13  C   UNL     1     -11.420  14.213  65.097  1.00  0.00    -0.336 A  
HETATM   14  C   UNL     1     -11.257  15.528  64.660  1.00  0.00    -0.381 A  
HETATM   15  I   UNL     1     -12.139  12.772  63.780  1.00  0.00    -0.591 I  
HETATM   16  C   UNL     1     -10.782  16.494  65.546  1.00  0.00    -0.267 A  
HETATM   17  C   UNL     1     -10.456  16.144  66.857  1.00  0.00    -0.300 A  
ENDBRANCH  10  11
ENDBRANCH   6  10
TORSDOF 2
ENDMDL
MODEL      116
REMARK 921   NORMALIZED FREE ENERGY PREDICTED BY IDOCK:   -3.59 KCAL/MOL
REMARK 922        TOTAL FREE ENERGY PREDICTED BY IDOCK:   -4.15 KCAL/MOL
REMARK 923 INTER-LIGAND FREE ENERGY PREDICTED BY IDOCK:   -4.04 KCAL/MOL
REMARK 924 INTRA-LIGAND FREE ENERGY PREDICTED BY IDOCK:   -0.11 KCAL/MOL
REMARK 927      BINDING AFFINITY PREDICTED BY RF-SCORE:    0.00 PKD
ROOT
HETATM    1  N   UNL     1     -13.411   9.499  71.649  1.00  0.00    -0.389 NA 
HETATM    2  C   UNL     1     -12.850  10.606  71.121  1.00  0.00    -0.420 C  
HETATM    3  H1  UNL     1     -13.390   8.719  70.993  1.00  0.00     0.000 HD 
HETATM    4  H2  UNL     1     -13.807   9.448  72.588  1.00  0.00     0.000 HD 
HETATM    5  N   UNL     1     -12.879  11.639  71.989  1.00  0.00    -0.262 NA 
HETATM    6  N   UNL     1     -12.351  10.548  69.943  1.00  0.00    -0.513 NA 
HETATM    7  H1  UNL     1     -12.455  12.476  71.590  1.00  0.00     0.000 HD 
HETATM    8  H2  UNL     1     -13.275  11.588  72.928  1.00  0.00     0.000 HD 
HETATM    9  H   UNL     1     -12.409   9.694  69.387  1.00  0.00     0.000 HD 
ENDROOT
BRANCH   6  10
HETATM   10  C   UNL     1     -11.696  11.742  69.420  1.00  0.00    -0.341 C  
BRANCH  10  11
HETATM   11  C   UNL     1     -11.292  11.568  67.976  1.00  0.00    -0.368 A  
HETATM   12  C   UNL     1     -10.307  10.633  67.621  1.00  0.00    -0.246 A  
HETATM   13  C   UNL     1      -9.920  10.495  66.287  1.00  0.00    -0.221 A  
HETATM   14  C   UNL     1     -10.517  11.270  65.293  1.00  0.00    -0.341 A  
HETATM   15  I   UNL     1      -8.436   9.130  65.777  1.00  0.00    -0.201 I  
HETATM   16  C   UNL     1     -11.517  12.181  65.635  1.00  0.00    -0.408 A  
HETATM   17  C   UNL     1     -11.906  12.326  66.968  1.00  0.00    -0.329 A  
ENDBRANCH  10  11
ENDBRANCH   6  10
TORSDOF 2
ENDMDL
MODEL      117
REMARK 921   NORMALIZED FREE ENERGY PREDICTED BY IDOCK:   -3.57 KCAL/MOL
REMARK 922        TOTAL FREE ENERGY PREDICTED BY IDOCK:   -4.13 KCAL/MOL
REMARK 923 INTER-LIGAND FREE ENERGY PREDICTED BY IDOCK:   -3.97 KCAL/MOL
REMARK 924 INTRA-LIGAND FREE ENERGY PREDICTED BY IDOCK:   -0.16 KCAL/MOL
REMARK 927      BINDING AFFINITY PREDICTED BY RF-SCORE:    0.00 PKD
ROOT
HETATM    1  N   UNL     1     -11.379   6.546  66.862  1.00  0.00    -0.817 NA 
HETATM    2  C   UNL     1     -10.321   7.384  66.863  1.00  0.00    -0.296 C  
HETATM    3  H1  UNL     1     -12.166   6.937  67.380  1.00  0.00     0.000 HD 
HETATM    4  H2  UNL     1     -11.391   5.637  66.400  1.00  0.00     0.000 HD 
HETATM    5  N   UNL     1      -9.280   6.867  66.177  1.00  0.00    -0.310 NA 
HETATM    6  N   UNL     1     -10.428   8.520  67.445  1.00  0.00    -0.321 NA 
HETATM    7  H1  UNL     1      -8.480   7.500  66.177  1.00  0.00     0.000 HD 
HETATM    8  H2  UNL     1      -9.291   5.958  65.715  1.00  0.00     0.000 HD 
HETATM    9  H   UNL     1     -11.282   8.780  67.940  1.00  0.00     0.000 HD 
ENDROOT
BRANCH   6  10
HETATM   10  C   UNL     1      -9.291   9.430  67.378  1.00  0.00    -0.126 C  
BRANCH  10  11
HETATM   11  C   UNL     1      -9.708  10.810  66.930  1.00  0.00    -0.209 A  
HETATM   12  C   UNL     1     -10.504  10.976  65.786  1.00  0.00    -0.290 A  
HETATM   13  C   UNL     1     -10.865  12.256  65.363  1.00  0.00    -0.286 A  
HETATM   14  C   UNL     1     -10.455  13.380  66.080  1.00  0.00    -0.294 A  
HETATM   15  I   UNL     1     -12.016  12.492  63.647  1.00  0.00    -0.610 I  
HETATM   16  C   UNL     1      -9.689  13.222  67.234  1.00  0.00    -0.231 A  
HETATM   17  C   UNL     1      -9.321  11.944  67.660  1.00  0.00    -0.183 A  
ENDBRANCH  10  11
ENDBRANCH   6  10
TORSDOF 2
ENDMDL
MODEL      118
REMARK 921   NORMALIZED FREE ENERGY PREDICTED BY IDOCK:   -3.57 KCAL/MOL
REMARK 922        TOTAL FREE ENERGY PREDICTED BY IDOCK:   -4.12 KCAL/MOL
REMARK 923 INTER-LIGAND FREE ENERGY PREDICTED BY IDOCK:   -3.99 KCAL/MOL
REMARK 924 INTRA-LIGAND FREE ENERGY PREDICTED BY IDOCK:   -0.14 KCAL/MOL
REMARK 927      BINDING AFFINITY PREDICTED BY RF-SCORE:    0.00 PKD
ROOT
HETATM    1  N   UNL     1      -8.723  11.197  62.657  1.00  0.00    -0.442 NA 
HETATM    2  C   UNL     1      -9.623  11.103  63.658  1.00  0.00    -0.288 C  
HETATM    3  H1  UNL     1      -8.425  12.161  62.510  1.00  0.00     0.000 HD 
HETATM    4  H2  UNL     1      -8.382  10.403  62.115  1.00  0.00     0.000 HD 
HETATM    5  N   UNL     1     -10.017   9.827  63.852  1.00  0.00    -0.355 NA 
HETATM    6  N   UNL     1      -9.954  12.163  64.297  1.00  0.00    -0.469 NA 
HETATM    7  H1  UNL     1     -10.697   9.756  64.610  1.00  0.00     0.000 HD 
HETATM    8  H2  UNL     1      -9.677   9.033  63.311  1.00  0.00     0.000 HD 
HETATM    9  H   UNL     1      -9.581  13.076  64.034  1.00  0.00     0.000 HD 
ENDROOT
BRANCH   6  10
HETATM   10  C   UNL     1     -10.881  12.024  65.414  1.00  0.00    -0.291 C  
BRANCH  10  11
HETATM   11  C   UNL     1     -10.977  13.297  66.220  1.00  0.00    -0.296 A  
HETATM   12  C   UNL     1     -10.096  14.361  65.976  1.00  0.00    -0.338 A  
HETATM   13  C   UNL     1     -10.175  15.526  66.741  1.00  0.00    -0.280 A  
HETATM   14  C   UNL     1     -11.138  15.652  67.742  1.00  0.00    -0.311 A  
HETATM   15  I   UNL     1      -8.841  17.084  66.393  1.00  0.00    -0.231 I  
HETATM   16  C   UNL     1     -12.036  14.610  67.971  1.00  0.00    -0.292 A  
HETATM   17  C   UNL     1     -11.960  13.440  67.211  1.00  0.00    -0.393 A  
ENDBRANCH  10  11
ENDBRANCH   6  10
TORSDOF 2
ENDMDL
MODEL      119
REMARK 921   NORMALIZED FREE ENERGY PREDICTED BY IDOCK:   -3.55 KCAL/MOL
REMARK 922        TOTAL FREE ENERGY PREDICTED BY IDOCK:   -4.10 KCAL/MOL
REMARK 923 INTER-LIGAND FREE ENERGY PREDICTED BY IDOCK:   -3.95 KCAL/MOL
REMARK 924 INTRA-LIGAND FREE ENERGY PREDICTED BY IDOCK:   -0.15 KCAL/MOL
REMARK 927      BINDING AFFINITY PREDICTED BY RF-SCORE:    0.00 PKD
ROOT
HETATM    1  N   UNL     1     -12.160  12.465  67.648  1.00  0.00    -0.449 NA 
HETATM    2  C   UNL     1     -11.643  13.491  68.355  1.00  0.00    -0.343 C  
HETATM    3  H1  UNL     1     -12.991  12.749  67.129  1.00  0.00     0.000 HD 
HETATM    4  H2  UNL     1     -11.770  11.523  67.635  1.00  0.00     0.000 HD 
HETATM    5  N   UNL     1     -10.545  13.115  69.044  1.00  0.00    -0.424 NA 
HETATM    6  N   UNL     1     -12.195  14.644  68.271  1.00  0.00    -0.604 NA 
HETATM    7  H1  UNL     1     -10.153  13.891  69.578  1.00  0.00     0.000 HD 
HETATM    8  H2  UNL     1     -10.155  12.173  69.030  1.00  0.00     0.000 HD 
HETATM    9  H   UNL     1     -13.038  14.786  67.714  1.00  0.00     0.000 HD 
ENDROOT
BRANCH   6  10
HETATM   10  C   UNL     1     -11.579  15.749  68.996  1.00  0.00    -0.400 C  
BRANCH  10  11
HETATM   11  C   UNL     1     -10.655  16.550  68.111  1.00  0.00    -0.329 A  
HETATM   12  C   UNL     1      -9.524  17.182  68.651  1.00  0.00    -0.275 A  
HETATM   13  C   UNL     1      -8.688  17.942  67.831  1.00  0.00    -0.252 A  
HETATM   14  C   UNL     1      -8.956  18.068  66.468  1.00  0.00    -0.280 A  
HETATM   15  I   UNL     1      -7.034  18.902  68.648  1.00  0.00    -0.341 I  
HETATM   16  C   UNL     1     -10.062  17.419  65.920  1.00  0.00    -0.219 A  
HETATM   17  C   UNL     1     -10.905  16.660  66.735  1.00  0.00    -0.037 A  
ENDBRANCH  10  11
ENDBRANCH   6  10
TORSDOF 2
ENDMDL
MODEL      120
REMARK 921   NORMALIZED FREE ENERGY PREDICTED BY IDOCK:   -3.55 KCAL/MOL
REMARK 922        TOTAL FREE ENERGY PREDICTED BY IDOCK:   -4.10 KCAL/MOL
REMARK 923 INTER-LIGAND FREE ENERGY PREDICTED BY IDOCK:   -3.91 KCAL/MOL
REMARK 924 INTRA-LIGAND FREE ENERGY PREDICTED BY IDOCK:   -0.19 KCAL/MOL
REMARK 927      BINDING AFFINITY PREDICTED BY RF-SCORE:    0.00 PKD
ROOT
HETATM    1  N   UNL     1     -11.760  16.094  71.859  1.00  0.00    -0.501 NA 
HETATM    2  C   UNL     1     -12.038  15.628  70.624  1.00  0.00    -0.405 C  
HETATM    3  H1  UNL     1     -10.809  16.458  71.916  1.00  0.00     0.000 HD 
HETATM    4  H2  UNL     1     -12.418  16.084  72.638  1.00  0.00     0.000 HD 
HETATM    5  N   UNL     1     -13.297  15.146  70.548  1.00  0.00    -0.689 NA 
HETATM    6  N   UNL     1     -11.147  15.723  69.708  1.00  0.00    -0.292 NA 
HETATM    7  H1  UNL     1     -13.507  14.794  69.614  1.00  0.00     0.000 HD 
HETATM    8  H2  UNL     1     -13.955  15.136  71.327  1.00  0.00     0.000 HD 
HETATM    9  H   UNL     1     -10.223  16.105  69.911  1.00  0.00     0.000 HD 
ENDROOT
BRANCH   6  10
HETATM   10  C   UNL     1     -11.496  15.269  68.368  1.00  0.00    -0.345 C  
BRANCH  10  11
HETATM   11  C   UNL     1     -11.035  13.852  68.123  1.00  0.00    -0.267 A  
HETATM   12  C   UNL     1      -9.698  13.491  68.346  1.00  0.00    -0.207 A  
HETATM   13  C   UNL     1      -9.273  12.185  68.094  1.00  0.00    -0.197 A  
HETATM   14  C   UNL     1     -10.173  11.224  67.635  1.00  0.00    -0.206 A  
HETATM   15  I   UNL     1      -7.281  11.669  68.397  1.00  0.00    -0.106 I  
HETATM   16  C   UNL     1     -11.510  11.568  67.438  1.00  0.00    -0.349 A  
HETATM   17  C   UNL     1     -11.941  12.874  67.685  1.00  0.00    -0.344 A  
ENDBRANCH  10  11
ENDBRANCH   6  10
TORSDOF 2
ENDMDL
MODEL      121
REMARK 921   NORMALIZED FREE ENERGY PREDICTED BY IDOCK:   -3.54 KCAL/MOL
REMARK 922        TOTAL FREE ENERGY PREDICTED BY IDOCK:   -4.09 KCAL/MOL
REMARK 923 INTER-LIGAND FREE ENERGY PREDICTED BY IDOCK:   -3.93 KCAL/MOL
REMARK 924 INTRA-LIGAND FREE ENERGY PREDICTED BY IDOCK:   -0.16 KCAL/MOL
REMARK 927      BINDING AFFINITY PREDICTED BY RF-SCORE:    0.00 PKD
ROOT
HETATM    1  N   UNL     1      -9.610   9.826  63.361  1.00  0.00    -0.504 NA 
HETATM    2  C   UNL     1      -9.496  10.175  64.660  1.00  0.00    -0.297 C  
HETATM    3  H1  UNL     1      -9.393  10.608  62.743  1.00  0.00     0.000 HD 
HETATM    4  H2  UNL     1      -9.879   8.897  63.037  1.00  0.00     0.000 HD 
HETATM    5  N   UNL     1      -9.784   9.140  65.477  1.00  0.00    -0.462 NA 
HETATM    6  N   UNL     1      -9.115  11.362  64.953  1.00  0.00    -0.407 NA 
HETATM    7  H1  UNL     1      -9.697   9.404  66.459  1.00  0.00     0.000 HD 
HETATM    8  H2  UNL     1     -10.053   8.211  65.154  1.00  0.00     0.000 HD 
HETATM    9  H   UNL     1      -8.940  12.055  64.224  1.00  0.00     0.000 HD 
ENDROOT
BRANCH   6  10
HETATM   10  C   UNL     1      -8.941  11.693  66.362  1.00  0.00    -0.198 C  
BRANCH  10  11
HETATM   11  C   UNL     1      -9.864  12.809  66.791  1.00  0.00    -0.242 A  
HETATM   12  C   UNL     1     -10.330  12.878  68.112  1.00  0.00    -0.243 A  
HETATM   13  C   UNL     1     -11.203  13.898  68.495  1.00  0.00    -0.270 A  
HETATM   14  C   UNL     1     -11.607  14.866  67.576  1.00  0.00    -0.355 A  
HETATM   15  I   UNL     1     -11.915  13.971  70.448  1.00  0.00    -0.294 I  
HETATM   16  C   UNL     1     -11.125  14.821  66.268  1.00  0.00    -0.341 A  
HETATM   17  C   UNL     1     -10.255  13.801  65.878  1.00  0.00    -0.322 A  
ENDBRANCH  10  11
ENDBRANCH   6  10
TORSDOF 2
ENDMDL
MODEL      122
REMARK 921   NORMALIZED FREE ENERGY PREDICTED BY IDOCK:   -3.52 KCAL/MOL
REMARK 922        TOTAL FREE ENERGY PREDICTED BY IDOCK:   -4.07 KCAL/MOL
REMARK 923 INTER-LIGAND FREE ENERGY PREDICTED BY IDOCK:   -3.89 KCAL/MOL
REMARK 924 INTRA-LIGAND FREE ENERGY PREDICTED BY IDOCK:   -0.19 KCAL/MOL
REMARK 927      BINDING AFFINITY PREDICTED BY RF-SCORE:    0.00 PKD
ROOT
HETATM    1  N   UNL     1     -10.114  12.838  63.487  1.00  0.00    -0.680 NA 
HETATM    2  C   UNL     1     -10.544  13.292  64.683  1.00  0.00    -0.404 C  
HETATM    3  H1  UNL     1      -9.102  12.710  63.477  1.00  0.00     0.000 HD 
HETATM    4  H2  UNL     1     -10.724  12.649  62.692  1.00  0.00     0.000 HD 
HETATM    5  N   UNL     1     -11.882  13.463  64.696  1.00  0.00    -0.374 NA 
HETATM    6  N   UNL     1      -9.693  13.462  65.625  1.00  0.00    -0.481 NA 
HETATM    7  H1  UNL     1     -12.207  13.805  65.601  1.00  0.00     0.000 HD 
HETATM    8  H2  UNL     1     -12.492  13.273  63.901  1.00  0.00     0.000 HD 
HETATM    9  H   UNL     1      -8.696  13.302  65.471  1.00  0.00     0.000 HD 
ENDROOT
BRANCH   6  10
HETATM   10  C   UNL     1     -10.192  13.893  66.925  1.00  0.00    -0.257 C  
BRANCH  10  11
HETATM   11  C   UNL     1      -9.788  15.315  67.234  1.00  0.00    -0.220 A  
HETATM   12  C   UNL     1      -8.527  15.591  67.785  1.00  0.00    -0.159 A  
HETATM   13  C   UNL     1      -8.169  16.905  68.091  1.00  0.00    -0.207 A  
HETATM   14  C   UNL     1      -9.051  17.956  67.838  1.00  0.00    -0.260 A  
HETATM   15  I   UNL     1      -6.311  17.300  68.938  1.00  0.00    -0.230 I  
HETATM   16  C   UNL     1     -10.294  17.692  67.264  1.00  0.00    -0.354 A  
HETATM   17  C   UNL     1     -10.660  16.379  66.959  1.00  0.00    -0.260 A  
ENDBRANCH  10  11
ENDBRANCH   6  10
TORSDOF 2
ENDMDL
MODEL      123
REMARK 921   NORMALIZED FREE ENERGY PREDICTED BY IDOCK:   -3.52 KCAL/MOL
REMARK 922        TOTAL FREE ENERGY PREDICTED BY IDOCK:   -4.07 KCAL/MOL
REMARK 923 INTER-LIGAND FREE ENERGY PREDICTED BY IDOCK:   -3.95 KCAL/MOL
REMARK 924 INTRA-LIGAND FREE ENERGY PREDICTED BY IDOCK:   -0.12 KCAL/MOL
REMARK 927      BINDING AFFINITY PREDICTED BY RF-SCORE:    0.00 PKD
ROOT
HETATM    1  N   UNL     1      -8.150   8.451  65.296  1.00  0.00    -0.131 NA 
HETATM    2  C   UNL     1      -8.717   9.097  64.255  1.00  0.00    -0.150 C  
HETATM    3  H1  UNL     1      -8.183   9.012  66.147  1.00  0.00     0.000 HD 
HETATM    4  H2  UNL     1      -7.739   7.520  65.238  1.00  0.00     0.000 HD 
HETATM    5  N   UNL     1      -8.673   8.355  63.129  1.00  0.00    -0.413 NA 
HETATM    6  N   UNL     1      -9.235  10.252  64.449  1.00  0.00    -0.228 NA 
HETATM    7  H1  UNL     1      -9.102   8.843  62.342  1.00  0.00     0.000 HD 
HETATM    8  H2  UNL     1      -8.262   7.423  63.071  1.00  0.00     0.000 HD 
HETATM    9  H   UNL     1      -9.187  10.705  65.362  1.00  0.00     0.000 HD 
ENDROOT
BRANCH   6  10
HETATM   10  C   UNL     1      -9.896  10.900  63.322  1.00  0.00    -0.365 C  
BRANCH  10  11
HETATM   11  C   UNL     1     -10.609  12.162  63.745  1.00  0.00    -0.482 A  
HETATM   12  C   UNL     1      -9.953  13.117  64.536  1.00  0.00    -0.137 A  
HETATM   13  C   UNL     1     -10.626  14.270  64.944  1.00  0.00    -0.431 A  
HETATM   14  C   UNL     1     -11.948  14.493  64.558  1.00  0.00    -0.482 A  
HETATM   15  I   UNL     1      -9.655  15.664  66.145  1.00  0.00    -0.390 I  
HETATM   16  C   UNL     1     -12.596  13.562  63.747  1.00  0.00    -0.147 A  
HETATM   17  C   UNL     1     -11.930  12.405  63.339  1.00  0.00    -0.595 A  
ENDBRANCH  10  11
ENDBRANCH   6  10
TORSDOF 2
ENDMDL
MODEL      124
REMARK 921   NORMALIZED FREE ENERGY PREDICTED BY IDOCK:   -3.49 KCAL/MOL
REMARK 922        TOTAL FREE ENERGY PREDICTED BY IDOCK:   -4.04 KCAL/MOL
REMARK 923 INTER-LIGAND FREE ENERGY PREDICTED BY IDOCK:   -3.87 KCAL/MOL
REMARK 924 INTRA-LIGAND FREE ENERGY PREDICTED BY IDOCK:   -0.17 KCAL/MOL
REMARK 927      BINDING AFFINITY PREDICTED BY RF-SCORE:    0.00 PKD
ROOT
HETATM    1  N   UNL     1     -10.002   8.617  66.082  1.00  0.00    -0.453 NA 
HETATM    2  C   UNL     1     -10.000   7.449  66.759  1.00  0.00    -0.230 C  
HETATM    3  H1  UNL     1     -10.899   9.095  66.162  1.00  0.00     0.000 HD 
HETATM    4  H2  UNL     1      -9.205   8.977  65.557  1.00  0.00     0.000 HD 
HETATM    5  N   UNL     1      -8.813   6.817  66.652  1.00  0.00    -0.132 NA 
HETATM    6  N   UNL     1     -11.047   7.111  67.416  1.00  0.00    -0.583 NA 
HETATM    7  H1  UNL     1      -8.812   5.934  67.164  1.00  0.00     0.000 HD 
HETATM    8  H2  UNL     1      -8.016   7.176  66.127  1.00  0.00     0.000 HD 
HETATM    9  H   UNL     1     -11.889   7.687  67.399  1.00  0.00     0.000 HD 
ENDROOT
BRANCH   6  10
HETATM   10  C   UNL     1     -10.997   5.875  68.187  1.00  0.00    -0.162 C  
BRANCH  10  11
HETATM   11  C   UNL     1     -11.166   6.134  69.665  1.00  0.00    -0.488 A  
HETATM   12  C   UNL     1     -11.983   7.182  70.114  1.00  0.00    -0.044 A  
HETATM   13  C   UNL     1     -12.115   7.432  71.481  1.00  0.00    -0.327 A  
HETATM   14  C   UNL     1     -11.454   6.634  72.414  1.00  0.00    -0.300 A  
HETATM   15  I   UNL     1     -13.302   9.010  72.133  1.00  0.00    -0.551 I  
HETATM   16  C   UNL     1     -10.663   5.572  71.976  1.00  0.00    -0.293 A  
HETATM   17  C   UNL     1     -10.523   5.319  70.610  1.00  0.00    -0.306 A  
ENDBRANCH  10  11
ENDBRANCH   6  10
TORSDOF 2
ENDMDL
MODEL      125
REMARK 921   NORMALIZED FREE ENERGY PREDICTED BY IDOCK:   -3.46 KCAL/MOL
REMARK 922        TOTAL FREE ENERGY PREDICTED BY IDOCK:   -4.01 KCAL/MOL
REMARK 923 INTER-LIGAND FREE ENERGY PREDICTED BY IDOCK:   -3.86 KCAL/MOL
REMARK 924 INTRA-LIGAND FREE ENERGY PREDICTED BY IDOCK:   -0.14 KCAL/MOL
REMARK 927      BINDING AFFINITY PREDICTED BY RF-SCORE:    0.00 PKD
ROOT
HETATM    1  N   UNL     1     -11.045   8.326  72.584  1.00  0.00    -0.367 NA 
HETATM    2  C   UNL     1     -10.600   8.990  71.496  1.00  0.00    -0.345 C  
HETATM    3  H1  UNL     1     -12.063   8.323  72.630  1.00  0.00     0.000 HD 
HETATM    4  H2  UNL     1     -10.438   7.883  73.273  1.00  0.00     0.000 HD 
HETATM    5  N   UNL     1      -9.252   8.995  71.435  1.00  0.00    -0.258 NA 
HETATM    6  N   UNL     1     -11.454   9.478  70.675  1.00  0.00    -0.281 NA 
HETATM    7  H1  UNL     1      -8.916   9.496  70.613  1.00  0.00     0.000 HD 
HETATM    8  H2  UNL     1      -8.645   8.552  72.125  1.00  0.00     0.000 HD 
HETATM    9  H   UNL     1     -12.456   9.408  70.853  1.00  0.00     0.000 HD 
ENDROOT
BRANCH   6  10
HETATM   10  C   UNL     1     -10.947  10.136  69.477  1.00  0.00    -0.256 C  
BRANCH  10  11
HETATM   11  C   UNL     1     -11.458  11.552  69.360  1.00  0.00    -0.376 A  
HETATM   12  C   UNL     1     -11.996  12.207  70.478  1.00  0.00    -0.308 A  
HETATM   13  C   UNL     1     -12.490  13.507  70.358  1.00  0.00    -0.275 A  
HETATM   14  C   UNL     1     -12.439  14.174  69.133  1.00  0.00    -0.005 A  
HETATM   15  I   UNL     1     -13.316  14.457  72.014  1.00  0.00    -0.642 I  
HETATM   16  C   UNL     1     -11.880  13.539  68.025  1.00  0.00    -0.400 A  
HETATM   17  C   UNL     1     -11.387  12.237  68.138  1.00  0.00    -0.349 A  
ENDBRANCH  10  11
ENDBRANCH   6  10
TORSDOF 2
ENDMDL
MODEL      126
REMARK 921   NORMALIZED FREE ENERGY PREDICTED BY IDOCK:   -3.44 KCAL/MOL
REMARK 922        TOTAL FREE ENERGY PREDICTED BY IDOCK:   -3.98 KCAL/MOL
REMARK 923 INTER-LIGAND FREE ENERGY PREDICTED BY IDOCK:   -3.79 KCAL/MOL
REMARK 924 INTRA-LIGAND FREE ENERGY PREDICTED BY IDOCK:   -0.19 KCAL/MOL
REMARK 927      BINDING AFFINITY PREDICTED BY RF-SCORE:    0.00 PKD
ROOT
HETATM    1  N   UNL     1     -12.079  12.300  67.638  1.00  0.00    -0.473 NA 
HETATM    2  C   UNL     1     -11.212  13.046  68.354  1.00  0.00    -0.269 C  
HETATM    3  H1  UNL     1     -12.841  12.867  67.265  1.00  0.00     0.000 HD 
HETATM    4  H2  UNL     1     -11.985  11.296  67.488  1.00  0.00     0.000 HD 
HETATM    5  N   UNL     1     -10.204  12.296  68.848  1.00  0.00    -0.421 NA 
HETATM    6  N   UNL     1     -11.408  14.308  68.448  1.00  0.00    -0.268 NA 
HETATM    7  H1  UNL     1      -9.548  12.860  69.389  1.00  0.00     0.000 HD 
HETATM    8  H2  UNL     1     -10.110  11.292  68.699  1.00  0.00     0.000 HD 
HETATM    9  H   UNL     1     -12.228  14.747  68.027  1.00  0.00     0.000 HD 
ENDROOT
BRANCH   6  10
HETATM   10  C   UNL     1     -10.423  15.099  69.176  1.00  0.00    -0.252 C  
BRANCH  10  11
HETATM   11  C   UNL     1      -9.586  15.942  68.243  1.00  0.00    -0.205 A  
HETATM   12  C   UNL     1      -9.976  17.252  67.927  1.00  0.00    -0.297 A  
HETATM   13  C   UNL     1      -9.212  18.017  67.044  1.00  0.00    -0.265 A  
HETATM   14  C   UNL     1      -8.047  17.496  66.481  1.00  0.00    -0.305 A  
HETATM   15  I   UNL     1      -9.817  19.946  66.557  1.00  0.00    -0.597 I  
HETATM   16  C   UNL     1      -7.638  16.205  66.814  1.00  0.00    -0.268 A  
HETATM   17  C   UNL     1      -8.400  15.433  67.693  1.00  0.00    -0.174 A  
ENDBRANCH  10  11
ENDBRANCH   6  10
TORSDOF 2
ENDMDL
MODEL      127
REMARK 921   NORMALIZED FREE ENERGY PREDICTED BY IDOCK:   -3.43 KCAL/MOL
REMARK 922        TOTAL FREE ENERGY PREDICTED BY IDOCK:   -3.97 KCAL/MOL
REMARK 923 INTER-LIGAND FREE ENERGY PREDICTED BY IDOCK:   -3.81 KCAL/MOL
REMARK 924 INTRA-LIGAND FREE ENERGY PREDICTED BY IDOCK:   -0.17 KCAL/MOL
REMARK 927      BINDING AFFINITY PREDICTED BY RF-SCORE:    0.00 PKD
ROOT
HETATM    1  N   UNL     1      -7.730  18.010  65.792  1.00  0.00    -0.545 NA 
HETATM    2  C   UNL     1      -8.555  17.375  66.651  1.00  0.00    -0.255 C  
HETATM    3  H1  UNL     1      -8.088  17.981  64.838  1.00  0.00     0.000 HD 
HETATM    4  H2  UNL     1      -6.857  18.461  66.064  1.00  0.00     0.000 HD 
HETATM    5  N   UNL     1      -8.080  17.412  67.914  1.00  0.00    -0.215 NA 
HETATM    6  N   UNL     1      -9.646  16.872  66.207  1.00  0.00    -0.304 NA 
HETATM    7  H1  UNL     1      -8.704  16.932  68.563  1.00  0.00     0.000 HD 
HETATM    8  H2  UNL     1      -7.207  17.864  68.185  1.00  0.00     0.000 HD 
HETATM    9  H   UNL     1      -9.877  16.908  65.213  1.00  0.00     0.000 HD 
ENDROOT
BRANCH   6  10
HETATM   10  C   UNL     1     -10.548  16.246  67.166  1.00  0.00    -0.291 C  
BRANCH  10  11
HETATM   11  C   UNL     1     -10.721  14.772  66.888  1.00  0.00    -0.308 A  
HETATM   12  C   UNL     1      -9.647  13.886  67.062  1.00  0.00    -0.254 A  
HETATM   13  C   UNL     1      -9.806  12.528  66.780  1.00  0.00    -0.229 A  
HETATM   14  C   UNL     1     -11.035  12.035  66.340  1.00  0.00    -0.337 A  
HETATM   15  I   UNL     1      -8.199  11.229  67.009  1.00  0.00    -0.163 I  
HETATM   16  C   UNL     1     -12.114  12.906  66.192  1.00  0.00    -0.458 A  
HETATM   17  C   UNL     1     -11.961  14.266  66.469  1.00  0.00    -0.448 A  
ENDBRANCH  10  11
ENDBRANCH   6  10
TORSDOF 2
ENDMDL
MODEL      128
REMARK 921   NORMALIZED FREE ENERGY PREDICTED BY IDOCK:   -3.43 KCAL/MOL
REMARK 922        TOTAL FREE ENERGY PREDICTED BY IDOCK:   -3.97 KCAL/MOL
REMARK 923 INTER-LIGAND FREE ENERGY PREDICTED BY IDOCK:   -3.83 KCAL/MOL
REMARK 924 INTRA-LIGAND FREE ENERGY PREDICTED BY IDOCK:   -0.14 KCAL/MOL
REMARK 927      BINDING AFFINITY PREDICTED BY RF-SCORE:    0.00 PKD
ROOT
HETATM    1  N   UNL     1     -10.119   6.806  70.721  1.00  0.00    -0.191 NA 
HETATM    2  C   UNL     1     -10.577   7.498  69.656  1.00  0.00    -0.239 C  
HETATM    3  H1  UNL     1      -9.581   7.401  71.350  1.00  0.00     0.000 HD 
HETATM    4  H2  UNL     1     -10.290   5.813  70.876  1.00  0.00     0.000 HD 
HETATM    5  N   UNL     1     -11.289   6.710  68.823  1.00  0.00    -0.584 NA 
HETATM    6  N   UNL     1     -10.333   8.753  69.579  1.00  0.00    -0.209 NA 
HETATM    7  H1  UNL     1     -11.636   7.234  68.018  1.00  0.00     0.000 HD 
HETATM    8  H2  UNL     1     -11.460   5.717  68.978  1.00  0.00     0.000 HD 
HETATM    9  H   UNL     1      -9.765   9.224  70.285  1.00  0.00     0.000 HD 
ENDROOT
BRANCH   6  10
HETATM   10  C   UNL     1     -10.892   9.488  68.451  1.00  0.00    -0.137 C  
BRANCH  10  11
HETATM   11  C   UNL     1     -11.290  10.891  68.842  1.00  0.00    -0.354 A  
HETATM   12  C   UNL     1     -11.055  11.965  67.971  1.00  0.00    -0.293 A  
HETATM   13  C   UNL     1     -11.402  13.263  68.349  1.00  0.00    -0.291 A  
HETATM   14  C   UNL     1     -12.000  13.504  69.586  1.00  0.00    -0.397 A  
HETATM   15  I   UNL     1     -11.018  14.852  67.063  1.00  0.00    -0.321 I  
HETATM   16  C   UNL     1     -12.263  12.438  70.445  1.00  0.00    -0.370 A  
HETATM   17  C   UNL     1     -11.914  11.137  70.074  1.00  0.00    -0.447 A  
ENDBRANCH  10  11
ENDBRANCH   6  10
TORSDOF 2
ENDMDL
MODEL      129
REMARK 921   NORMALIZED FREE ENERGY PREDICTED BY IDOCK:   -3.40 KCAL/MOL
REMARK 922        TOTAL FREE ENERGY PREDICTED BY IDOCK:   -3.94 KCAL/MOL
REMARK 923 INTER-LIGAND FREE ENERGY PREDICTED BY IDOCK:   -3.76 KCAL/MOL
REMARK 924 INTRA-LIGAND FREE ENERGY PREDICTED BY IDOCK:   -0.18 KCAL/MOL
REMARK 927      BINDING AFFINITY PREDICTED BY RF-SCORE:    0.00 PKD
ROOT
HETATM    1  N   UNL     1     -10.953  19.535  66.961  1.00  0.00    -0.429 NA 
HETATM    2  C   UNL     1     -10.269  18.568  66.315  1.00  0.00    -0.418 C  
HETATM    3  H1  UNL     1     -10.537  19.745  67.868  1.00  0.00     0.000 HD 
HETATM    4  H2  UNL     1     -11.783  19.997  66.590  1.00  0.00     0.000 HD 
HETATM    5  N   UNL     1     -10.820  18.289  65.115  1.00  0.00    -0.555 NA 
HETATM    6  N   UNL     1      -9.217  18.081  66.860  1.00  0.00    -0.262 NA 
HETATM    7  H1  UNL     1     -10.302  17.559  64.625  1.00  0.00     0.000 HD 
HETATM    8  H2  UNL     1     -11.650  18.751  64.744  1.00  0.00     0.000 HD 
HETATM    9  H   UNL     1      -8.917  18.382  67.788  1.00  0.00     0.000 HD 
ENDROOT
BRANCH   6  10
HETATM   10  C   UNL     1      -8.462  17.083  66.112  1.00  0.00    -0.227 C  
BRANCH  10  11
HETATM   11  C   UNL     1      -8.665  15.695  66.672  1.00  0.00    -0.333 A  
HETATM   12  C   UNL     1      -9.760  14.918  66.266  1.00  0.00    -0.320 A  
HETATM   13  C   UNL     1      -9.956  13.646  66.807  1.00  0.00    -0.270 A  
HETATM   14  C   UNL     1      -9.059  13.129  67.742  1.00  0.00    -0.200 A  
HETATM   15  I   UNL     1     -11.601  12.517  66.223  1.00  0.00    -0.408 I  
HETATM   16  C   UNL     1      -7.953  13.884  68.128  1.00  0.00    -0.148 A  
HETATM   17  C   UNL     1      -7.753  15.159  67.594  1.00  0.00    -0.186 A  
ENDBRANCH  10  11
ENDBRANCH   6  10
TORSDOF 2
ENDMDL
MODEL      130
REMARK 921   NORMALIZED FREE ENERGY PREDICTED BY IDOCK:   -3.40 KCAL/MOL
REMARK 922        TOTAL FREE ENERGY PREDICTED BY IDOCK:   -3.94 KCAL/MOL
REMARK 923 INTER-LIGAND FREE ENERGY PREDICTED BY IDOCK:   -3.77 KCAL/MOL
REMARK 924 INTRA-LIGAND FREE ENERGY PREDICTED BY IDOCK:   -0.16 KCAL/MOL
REMARK 927      BINDING AFFINITY PREDICTED BY RF-SCORE:    0.00 PKD
ROOT
HETATM    1  N   UNL     1      -8.800   8.932  72.138  1.00  0.00    -0.380 NA 
HETATM    2  C   UNL     1      -9.789   8.748  71.238  1.00  0.00    -0.266 C  
HETATM    3  H1  UNL     1      -7.924   9.189  71.683  1.00  0.00     0.000 HD 
HETATM    4  H2  UNL     1      -8.915   8.828  73.145  1.00  0.00     0.000 HD 
HETATM    5  N   UNL     1     -10.949   8.408  71.839  1.00  0.00    -0.282 NA 
HETATM    6  N   UNL     1      -9.542   8.941  69.996  1.00  0.00    -0.171 NA 
HETATM    7  H1  UNL     1     -11.696   8.269  71.158  1.00  0.00     0.000 HD 
HETATM    8  H2  UNL     1     -11.063   8.304  72.846  1.00  0.00     0.000 HD 
HETATM    9  H   UNL     1      -8.605   9.189  69.677  1.00  0.00     0.000 HD 
ENDROOT
BRANCH   6  10
HETATM   10  C   UNL     1     -10.644   8.795  69.052  1.00  0.00    -0.171 C  
BRANCH  10  11
HETATM   11  C   UNL     1     -10.975  10.104  68.375  1.00  0.00    -0.293 A  
HETATM   12  C   UNL     1     -10.674  10.299  67.019  1.00  0.00    -0.281 A  
HETATM   13  C   UNL     1     -10.960  11.520  66.406  1.00  0.00    -0.284 A  
HETATM   14  C   UNL     1     -11.561  12.551  67.128  1.00  0.00    -0.437 A  
HETATM   15  I   UNL     1     -10.480  11.809  64.403  1.00  0.00    -0.461 I  
HETATM   16  C   UNL     1     -11.889  12.354  68.469  1.00  0.00    -0.352 A  
HETATM   17  C   UNL     1     -11.602  11.136  69.089  1.00  0.00    -0.393 A  
ENDBRANCH  10  11
ENDBRANCH   6  10
TORSDOF 2
ENDMDL
MODEL      131
REMARK 921   NORMALIZED FREE ENERGY PREDICTED BY IDOCK:   -3.38 KCAL/MOL
REMARK 922        TOTAL FREE ENERGY PREDICTED BY IDOCK:   -3.91 KCAL/MOL
REMARK 923 INTER-LIGAND FREE ENERGY PREDICTED BY IDOCK:   -3.80 KCAL/MOL
REMARK 924 INTRA-LIGAND FREE ENERGY PREDICTED BY IDOCK:   -0.11 KCAL/MOL
REMARK 927      BINDING AFFINITY PREDICTED BY RF-SCORE:    0.00 PKD
ROOT
HETATM    1  N   UNL     1     -11.073   5.528  66.085  1.00  0.00    -0.778 NA 
HETATM    2  C   UNL     1     -10.731   6.434  67.025  1.00  0.00    -0.363 C  
HETATM    3  H1  UNL     1     -11.588   4.746  66.488  1.00  0.00     0.000 HD 
HETATM    4  H2  UNL     1     -10.844   5.615  65.095  1.00  0.00     0.000 HD 
HETATM    5  N   UNL     1     -10.048   7.469  66.492  1.00  0.00    -0.460 NA 
HETATM    6  N   UNL     1     -11.101   6.242  68.237  1.00  0.00    -0.427 NA 
HETATM    7  H1  UNL     1      -9.790   8.153  67.203  1.00  0.00     0.000 HD 
HETATM    8  H2  UNL     1      -9.820   7.555  65.502  1.00  0.00     0.000 HD 
HETATM    9  H   UNL     1     -11.611   5.399  68.505  1.00  0.00     0.000 HD 
ENDROOT
BRANCH   6  10
HETATM   10  C   UNL     1     -10.772   7.266  69.221  1.00  0.00    -0.198 C  
BRANCH  10  11
HETATM   11  C   UNL     1     -10.626   6.682  70.605  1.00  0.00    -0.268 A  
HETATM   12  C   UNL     1      -9.353   6.435  71.142  1.00  0.00    -0.166 A  
HETATM   13  C   UNL     1      -9.226   5.872  72.413  1.00  0.00    -0.143 A  
HETATM   14  C   UNL     1     -10.357   5.564  73.168  1.00  0.00    -0.231 A  
HETATM   15  I   UNL     1      -7.335   5.479  73.184  1.00  0.00    -0.097 I  
HETATM   16  C   UNL     1     -11.625   5.834  72.652  1.00  0.00    -0.304 A  
HETATM   17  C   UNL     1     -11.759   6.394  71.380  1.00  0.00    -0.364 A  
ENDBRANCH  10  11
ENDBRANCH   6  10
TORSDOF 2
ENDMDL
MODEL      132
REMARK 921   NORMALIZED FREE ENERGY PREDICTED BY IDOCK:   -3.37 KCAL/MOL
REMARK 922        TOTAL FREE ENERGY PREDICTED BY IDOCK:   -3.90 KCAL/MOL
REMARK 923 INTER-LIGAND FREE ENERGY PREDICTED BY IDOCK:   -3.78 KCAL/MOL
REMARK 924 INTRA-LIGAND FREE ENERGY PREDICTED BY IDOCK:   -0.12 KCAL/MOL
REMARK 927      BINDING AFFINITY PREDICTED BY RF-SCORE:    0.00 PKD
ROOT
HETATM    1  N   UNL     1     -10.434  19.928  66.777  1.00  0.00    -0.463 NA 
HETATM    2  C   UNL     1     -10.460  19.015  67.771  1.00  0.00    -0.417 C  
HETATM    3  H1  UNL     1     -10.757  19.530  65.895  1.00  0.00     0.000 HD 
HETATM    4  H2  UNL     1     -10.130  20.894  66.893  1.00  0.00     0.000 HD 
HETATM    5  N   UNL     1     -10.032  19.541  68.938  1.00  0.00    -0.481 NA 
HETATM    6  N   UNL     1     -10.895  17.836  67.521  1.00  0.00    -0.295 NA 
HETATM    7  H1  UNL     1     -10.052  18.851  69.689  1.00  0.00     0.000 HD 
HETATM    8  H2  UNL     1      -9.727  20.507  69.054  1.00  0.00     0.000 HD 
HETATM    9  H   UNL     1     -11.181  17.569  66.578  1.00  0.00     0.000 HD 
ENDROOT
BRANCH   6  10
HETATM   10  C   UNL     1     -10.970  16.889  68.627  1.00  0.00    -0.262 C  
BRANCH  10  11
HETATM   11  C   UNL     1     -10.779  15.467  68.156  1.00  0.00    -0.282 A  
HETATM   12  C   UNL     1      -9.499  14.896  68.122  1.00  0.00    -0.202 A  
HETATM   13  C   UNL     1      -9.326  13.589  67.661  1.00  0.00    -0.216 A  
HETATM   14  C   UNL     1     -10.423  12.833  67.248  1.00  0.00    -0.238 A  
HETATM   15  I   UNL     1      -7.419  12.764  67.584  1.00  0.00    -0.141 I  
HETATM   16  C   UNL     1     -11.703  13.385  67.307  1.00  0.00    -0.424 A  
HETATM   17  C   UNL     1     -11.881  14.693  67.762  1.00  0.00    -0.359 A  
ENDBRANCH  10  11
ENDBRANCH   6  10
TORSDOF 2
ENDMDL
MODEL      133
REMARK 921   NORMALIZED FREE ENERGY PREDICTED BY IDOCK:   -3.36 KCAL/MOL
REMARK 922        TOTAL FREE ENERGY PREDICTED BY IDOCK:   -3.90 KCAL/MOL
REMARK 923 INTER-LIGAND FREE ENERGY PREDICTED BY IDOCK:   -3.78 KCAL/MOL
REMARK 924 INTRA-LIGAND FREE ENERGY PREDICTED BY IDOCK:   -0.11 KCAL/MOL
REMARK 927      BINDING AFFINITY PREDICTED BY RF-SCORE:    0.00 PKD
ROOT
HETATM    1  N   UNL     1     -13.896   7.297  71.713  1.00  0.00    -0.519 NA 
HETATM    2  C   UNL     1     -13.265   8.487  71.624  1.00  0.00    -0.343 C  
HETATM    3  H1  UNL     1     -13.811   6.763  70.849  1.00  0.00     0.000 HD 
HETATM    4  H2  UNL     1     -14.395   6.973  72.541  1.00  0.00     0.000 HD 
HETATM    5  N   UNL     1     -13.376   9.194  72.769  1.00  0.00    -0.722 NA 
HETATM    6  N   UNL     1     -12.637   8.778  70.546  1.00  0.00    -0.288 NA 
HETATM    7  H1  UNL     1     -12.899  10.093  72.702  1.00  0.00     0.000 HD 
HETATM    8  H2  UNL     1     -13.875   8.869  73.597  1.00  0.00     0.000 HD 
HETATM    9  H   UNL     1     -12.644   8.146  69.745  1.00  0.00     0.000 HD 
ENDROOT
BRANCH   6  10
HETATM   10  C   UNL     1     -11.913  10.042  70.500  1.00  0.00    -0.272 C  
BRANCH  10  11
HETATM   11  C   UNL     1     -10.656   9.934  69.670  1.00  0.00    -0.273 A  
HETATM   12  C   UNL     1     -10.710  10.082  68.276  1.00  0.00    -0.280 A  
HETATM   13  C   UNL     1      -9.548   9.956  67.512  1.00  0.00    -0.157 A  
HETATM   14  C   UNL     1      -8.322   9.699  68.126  1.00  0.00    -0.117 A  
HETATM   15  I   UNL     1      -9.646  10.144  65.443  1.00  0.00    -0.378 I  
HETATM   16  C   UNL     1      -8.256   9.580  69.513  1.00  0.00    -0.134 A  
HETATM   17  C   UNL     1      -9.415   9.701  70.283  1.00  0.00    -0.300 A  
ENDBRANCH  10  11
ENDBRANCH   6  10
TORSDOF 2
ENDMDL
MODEL      134
REMARK 921   NORMALIZED FREE ENERGY PREDICTED BY IDOCK:   -3.36 KCAL/MOL
REMARK 922        TOTAL FREE ENERGY PREDICTED BY IDOCK:   -3.89 KCAL/MOL
REMARK 923 INTER-LIGAND FREE ENERGY PREDICTED BY IDOCK:   -3.71 KCAL/MOL
REMARK 924 INTRA-LIGAND FREE ENERGY PREDICTED BY IDOCK:   -0.17 KCAL/MOL
REMARK 927      BINDING AFFINITY PREDICTED BY RF-SCORE:    0.00 PKD
ROOT
HETATM    1  N   UNL     1      -7.347  11.302  67.421  1.00  0.00    -0.108 NA 
HETATM    2  C   UNL     1      -8.630  11.666  67.213  1.00  0.00    -0.154 C  
HETATM    3  H1  UNL     1      -7.205  10.958  68.371  1.00  0.00     0.000 HD 
HETATM    4  H2  UNL     1      -6.612  11.363  66.717  1.00  0.00     0.000 HD 
HETATM    5  N   UNL     1      -8.818  12.121  65.956  1.00  0.00    -0.412 NA 
HETATM    6  N   UNL     1      -9.480  11.512  68.159  1.00  0.00    -0.178 NA 
HETATM    7  H1  UNL     1      -9.788  12.396  65.799  1.00  0.00     0.000 HD 
HETATM    8  H2  UNL     1      -8.083  12.182  65.253  1.00  0.00     0.000 HD 
HETATM    9  H   UNL     1      -9.194  11.162  69.073  1.00  0.00     0.000 HD 
ENDROOT
BRANCH   6  10
HETATM   10  C   UNL     1     -10.871  11.855  67.886  1.00  0.00    -0.213 C  
BRANCH  10  11
HETATM   11  C   UNL     1     -11.314  13.060  68.683  1.00  0.00    -0.329 A  
HETATM   12  C   UNL     1     -12.064  12.898  69.857  1.00  0.00    -0.335 A  
HETATM   13  C   UNL     1     -12.492  14.016  70.575  1.00  0.00    -0.359 A  
HETATM   14  C   UNL     1     -12.164  15.302  70.144  1.00  0.00    -0.402 A  
HETATM   15  I   UNL     1     -13.632  13.766  72.296  1.00  0.00    -0.635 I  
HETATM   16  C   UNL     1     -11.394  15.469  68.994  1.00  0.00    -0.331 A  
HETATM   17  C   UNL     1     -10.967  14.355  68.269  1.00  0.00    -0.259 A  
ENDBRANCH  10  11
ENDBRANCH   6  10
TORSDOF 2
ENDMDL
MODEL      135
REMARK 921   NORMALIZED FREE ENERGY PREDICTED BY IDOCK:   -3.35 KCAL/MOL
REMARK 922        TOTAL FREE ENERGY PREDICTED BY IDOCK:   -3.88 KCAL/MOL
REMARK 923 INTER-LIGAND FREE ENERGY PREDICTED BY IDOCK:   -3.77 KCAL/MOL
REMARK 924 INTRA-LIGAND FREE ENERGY PREDICTED BY IDOCK:   -0.12 KCAL/MOL
REMARK 927      BINDING AFFINITY PREDICTED BY RF-SCORE:    0.00 PKD
ROOT
HETATM    1  N   UNL     1      -8.427   7.166  73.483  1.00  0.00    -0.121 NA 
HETATM    2  C   UNL     1      -9.700   7.487  73.172  1.00  0.00    -0.247 C  
HETATM    3  H1  UNL     1      -7.784   7.415  72.732  1.00  0.00     0.000 HD 
HETATM    4  H2  UNL     1      -8.143   6.730  74.360  1.00  0.00     0.000 HD 
HETATM    5  N   UNL     1     -10.551   7.158  74.166  1.00  0.00    -0.564 NA 
HETATM    6  N   UNL     1      -9.939   8.066  72.054  1.00  0.00    -0.196 NA 
HETATM    7  H1  UNL     1     -11.514   7.401  73.931  1.00  0.00     0.000 HD 
HETATM    8  H2  UNL     1     -10.268   6.723  75.043  1.00  0.00     0.000 HD 
HETATM    9  H   UNL     1      -9.191   8.247  71.384  1.00  0.00     0.000 HD 
ENDROOT
BRANCH   6  10
HETATM   10  C   UNL     1     -11.315   8.457  71.770  1.00  0.00    -0.300 C  
BRANCH  10  11
HETATM   11  C   UNL     1     -11.388   9.447  70.631  1.00  0.00    -0.352 A  
HETATM   12  C   UNL     1     -10.785   9.157  69.399  1.00  0.00    -0.210 A  
HETATM   13  C   UNL     1     -10.836  10.087  68.358  1.00  0.00    -0.235 A  
HETATM   14  C   UNL     1     -11.499  11.303  68.527  1.00  0.00    -0.372 A  
HETATM   15  I   UNL     1      -9.908   9.662  66.546  1.00  0.00    -0.322 I  
HETATM   16  C   UNL     1     -12.126  11.584  69.740  1.00  0.00    -0.374 A  
HETATM   17  C   UNL     1     -12.076  10.660  70.786  1.00  0.00    -0.474 A  
ENDBRANCH  10  11
ENDBRANCH   6  10
TORSDOF 2
ENDMDL
MODEL      136
REMARK 921   NORMALIZED FREE ENERGY PREDICTED BY IDOCK:   -3.34 KCAL/MOL
REMARK 922        TOTAL FREE ENERGY PREDICTED BY IDOCK:   -3.87 KCAL/MOL
REMARK 923 INTER-LIGAND FREE ENERGY PREDICTED BY IDOCK:   -3.75 KCAL/MOL
REMARK 924 INTRA-LIGAND FREE ENERGY PREDICTED BY IDOCK:   -0.13 KCAL/MOL
REMARK 927      BINDING AFFINITY PREDICTED BY RF-SCORE:    0.00 PKD
ROOT
HETATM    1  N   UNL     1     -12.361  14.228  68.809  1.00  0.00    -0.573 NA 
HETATM    2  C   UNL     1     -11.821  14.643  67.643  1.00  0.00    -0.337 C  
HETATM    3  H1  UNL     1     -11.859  14.609  69.610  1.00  0.00     0.000 HD 
HETATM    4  H2  UNL     1     -13.170  13.611  68.879  1.00  0.00     0.000 HD 
HETATM    5  N   UNL     1     -12.485  14.139  66.582  1.00  0.00    -0.548 NA 
HETATM    6  N   UNL     1     -10.825  15.449  67.672  1.00  0.00    -0.297 NA 
HETATM    7  H1  UNL     1     -12.077  14.453  65.701  1.00  0.00     0.000 HD 
HETATM    8  H2  UNL     1     -13.294  13.522  66.652  1.00  0.00     0.000 HD 
HETATM    9  H   UNL     1     -10.412  15.745  68.557  1.00  0.00     0.000 HD 
ENDROOT
BRANCH   6  10
HETATM   10  C   UNL     1     -10.301  15.930  66.399  1.00  0.00    -0.306 C  
BRANCH  10  11
HETATM   11  C   UNL     1      -8.852  16.339  66.513  1.00  0.00    -0.318 A  
HETATM   12  C   UNL     1      -8.421  17.574  66.005  1.00  0.00    -0.099 A  
HETATM   13  C   UNL     1      -7.075  17.936  66.091  1.00  0.00    -0.306 A  
HETATM   14  C   UNL     1      -6.151  17.085  66.696  1.00  0.00    -0.231 A  
HETATM   15  I   UNL     1      -6.441  19.753  65.304  1.00  0.00    -0.277 I  
HETATM   16  C   UNL     1      -6.578  15.869  67.230  1.00  0.00    -0.200 A  
HETATM   17  C   UNL     1      -7.921  15.499  67.143  1.00  0.00    -0.255 A  
ENDBRANCH  10  11
ENDBRANCH   6  10
TORSDOF 2
ENDMDL
MODEL      137
REMARK 921   NORMALIZED FREE ENERGY PREDICTED BY IDOCK:   -3.34 KCAL/MOL
REMARK 922        TOTAL FREE ENERGY PREDICTED BY IDOCK:   -3.87 KCAL/MOL
REMARK 923 INTER-LIGAND FREE ENERGY PREDICTED BY IDOCK:   -3.69 KCAL/MOL
REMARK 924 INTRA-LIGAND FREE ENERGY PREDICTED BY IDOCK:   -0.18 KCAL/MOL
REMARK 927      BINDING AFFINITY PREDICTED BY RF-SCORE:    0.00 PKD
ROOT
HETATM    1  N   UNL     1     -12.780  11.225  71.257  1.00  0.00    -0.415 NA 
HETATM    2  C   UNL     1     -12.447   9.917  71.286  1.00  0.00    -0.381 C  
HETATM    3  H1  UNL     1     -11.957  11.822  71.338  1.00  0.00     0.000 HD 
HETATM    4  H2  UNL     1     -13.734  11.573  71.165  1.00  0.00     0.000 HD 
HETATM    5  N   UNL     1     -13.536   9.127  71.179  1.00  0.00    -0.569 NA 
HETATM    6  N   UNL     1     -11.211   9.592  71.368  1.00  0.00    -0.374 NA 
HETATM    7  H1  UNL     1     -13.285   8.139  71.201  1.00  0.00     0.000 HD 
HETATM    8  H2  UNL     1     -14.490   9.475  71.088  1.00  0.00     0.000 HD 
HETATM    9  H   UNL     1     -10.484  10.303  71.454  1.00  0.00     0.000 HD 
ENDROOT
BRANCH   6  10
HETATM   10  C   UNL     1     -10.876   8.174  71.335  1.00  0.00    -0.234 C  
BRANCH  10  11
HETATM   11  C   UNL     1     -10.587   7.702  69.930  1.00  0.00    -0.237 A  
HETATM   12  C   UNL     1      -9.638   8.366  69.139  1.00  0.00    -0.164 A  
HETATM   13  C   UNL     1      -9.394   7.940  67.832  1.00  0.00    -0.141 A  
HETATM   14  C   UNL     1     -10.076   6.843  67.306  1.00  0.00    -0.256 A  
HETATM   15  I   UNL     1      -8.009   8.952  66.656  1.00  0.00    -0.105 I  
HETATM   16  C   UNL     1     -11.000   6.160  68.097  1.00  0.00    -0.398 A  
HETATM   17  C   UNL     1     -11.252   6.584  69.404  1.00  0.00    -0.418 A  
ENDBRANCH  10  11
ENDBRANCH   6  10
TORSDOF 2
ENDMDL
MODEL      138
REMARK 921   NORMALIZED FREE ENERGY PREDICTED BY IDOCK:   -3.33 KCAL/MOL
REMARK 922        TOTAL FREE ENERGY PREDICTED BY IDOCK:   -3.86 KCAL/MOL
REMARK 923 INTER-LIGAND FREE ENERGY PREDICTED BY IDOCK:   -3.70 KCAL/MOL
REMARK 924 INTRA-LIGAND FREE ENERGY PREDICTED BY IDOCK:   -0.16 KCAL/MOL
REMARK 927      BINDING AFFINITY PREDICTED BY RF-SCORE:    0.00 PKD
ROOT
HETATM    1  N   UNL     1      -9.222  12.601  66.185  1.00  0.00    -0.423 NA 
HETATM    2  C   UNL     1      -9.733  11.393  65.867  1.00  0.00    -0.227 C  
HETATM    3  H1  UNL     1      -8.466  12.521  66.865  1.00  0.00     0.000 HD 
HETATM    4  H2  UNL     1      -9.550  13.484  65.794  1.00  0.00     0.000 HD 
HETATM    5  N   UNL     1     -10.733  11.500  64.967  1.00  0.00    -0.293 NA 
HETATM    6  N   UNL     1      -9.220  10.344  66.393  1.00  0.00    -0.159 NA 
HETATM    7  H1  UNL     1     -11.119  10.587  64.727  1.00  0.00     0.000 HD 
HETATM    8  H2  UNL     1     -11.061  12.383  64.576  1.00  0.00     0.000 HD 
HETATM    9  H   UNL     1      -8.464  10.412  67.076  1.00  0.00     0.000 HD 
ENDROOT
BRANCH   6  10
HETATM   10  C   UNL     1      -9.750   9.049  65.986  1.00  0.00    -0.269 C  
BRANCH  10  11
HETATM   11  C   UNL     1     -10.214   8.238  67.172  1.00  0.00    -0.365 A  
HETATM   12  C   UNL     1     -10.142   8.771  68.468  1.00  0.00    -0.210 A  
HETATM   13  C   UNL     1     -10.549   8.006  69.564  1.00  0.00    -0.214 A  
HETATM   14  C   UNL     1     -11.044   6.716  69.381  1.00  0.00    -0.365 A  
HETATM   15  I   UNL     1     -10.407   8.794  71.483  1.00  0.00    -0.421 I  
HETATM   16  C   UNL     1     -11.145   6.191  68.093  1.00  0.00    -0.328 A  
HETATM   17  C   UNL     1     -10.737   6.948  66.994  1.00  0.00    -0.432 A  
ENDBRANCH  10  11
ENDBRANCH   6  10
TORSDOF 2
ENDMDL
MODEL      139
REMARK 921   NORMALIZED FREE ENERGY PREDICTED BY IDOCK:   -3.33 KCAL/MOL
REMARK 922        TOTAL FREE ENERGY PREDICTED BY IDOCK:   -3.86 KCAL/MOL
REMARK 923 INTER-LIGAND FREE ENERGY PREDICTED BY IDOCK:   -3.75 KCAL/MOL
REMARK 924 INTRA-LIGAND FREE ENERGY PREDICTED BY IDOCK:   -0.11 KCAL/MOL
REMARK 927      BINDING AFFINITY PREDICTED BY RF-SCORE:    0.00 PKD
ROOT
HETATM    1  N   UNL     1      -6.172  16.552  69.102  1.00  0.00    -0.162 NA 
HETATM    2  C   UNL     1      -7.455  16.814  68.775  1.00  0.00    -0.231 C  
HETATM    3  H1  UNL     1      -6.108  15.813  69.801  1.00  0.00     0.000 HD 
HETATM    4  H2  UNL     1      -5.368  17.033  68.700  1.00  0.00     0.000 HD 
HETATM    5  N   UNL     1      -7.540  17.793  67.849  1.00  0.00    -0.208 NA 
HETATM    6  N   UNL     1      -8.388  16.123  69.316  1.00  0.00    -0.224 NA 
HETATM    7  H1  UNL     1      -8.510  17.991  67.602  1.00  0.00     0.000 HD 
HETATM    8  H2  UNL     1      -6.735  18.274  67.448  1.00  0.00     0.000 HD 
HETATM    9  H   UNL     1      -8.178  15.412  70.017  1.00  0.00     0.000 HD 
ENDROOT
BRANCH   6  10
HETATM   10  C   UNL     1      -9.760  16.386  68.898  1.00  0.00    -0.257 C  
BRANCH  10  11
HETATM   11  C   UNL     1     -10.739  15.469  69.592  1.00  0.00    -0.274 A  
HETATM   12  C   UNL     1     -11.085  15.684  70.934  1.00  0.00    -0.377 A  
HETATM   13  C   UNL     1     -11.971  14.818  71.577  1.00  0.00    -0.353 A  
HETATM   14  C   UNL     1     -12.533  13.742  70.890  1.00  0.00    -0.451 A  
HETATM   15  I   UNL     1     -12.452  15.127  73.577  1.00  0.00    -0.628 I  
HETATM   16  C   UNL     1     -12.216  13.539  69.547  1.00  0.00    -0.289 A  
HETATM   17  C   UNL     1     -11.327  14.399  68.900  1.00  0.00    -0.300 A  
ENDBRANCH  10  11
ENDBRANCH   6  10
TORSDOF 2
ENDMDL
MODEL      140
REMARK 921   NORMALIZED FREE ENERGY PREDICTED BY IDOCK:   -3.32 KCAL/MOL
REMARK 922        TOTAL FREE ENERGY PREDICTED BY IDOCK:   -3.85 KCAL/MOL
REMARK 923 INTER-LIGAND FREE ENERGY PREDICTED BY IDOCK:   -3.68 KCAL/MOL
REMARK 924 INTRA-LIGAND FREE ENERGY PREDICTED BY IDOCK:   -0.17 KCAL/MOL
REMARK 927      BINDING AFFINITY PREDICTED BY RF-SCORE:    0.00 PKD
ROOT
HETATM    1  N   UNL     1     -13.527  14.002  65.331  1.00  0.00    -0.542 NA 
HETATM    2  C   UNL     1     -12.396  13.320  65.051  1.00  0.00    -0.448 C  
HETATM    3  H1  UNL     1     -13.974  13.651  66.178  1.00  0.00     0.000 HD 
HETATM    4  H2  UNL     1     -13.888  14.770  64.768  1.00  0.00     0.000 HD 
HETATM    5  N   UNL     1     -11.803  13.784  63.930  1.00  0.00    -0.647 NA 
HETATM    6  N   UNL     1     -12.015  12.394  65.849  1.00  0.00    -0.587 NA 
HETATM    7  H1  UNL     1     -10.948  13.269  63.718  1.00  0.00     0.000 HD 
HETATM    8  H2  UNL     1     -12.165  14.553  63.367  1.00  0.00     0.000 HD 
HETATM    9  H   UNL     1     -12.573  12.138  66.664  1.00  0.00     0.000 HD 
ENDROOT
BRANCH   6  10
HETATM   10  C   UNL     1     -10.757  11.716  65.555  1.00  0.00    -0.281 C  
BRANCH  10  11
HETATM   11  C   UNL     1      -9.731  11.954  66.637  1.00  0.00    -0.220 A  
HETATM   12  C   UNL     1      -9.381  10.925  67.523  1.00  0.00    -0.164 A  
HETATM   13  C   UNL     1      -8.449  11.159  68.536  1.00  0.00    -0.156 A  
HETATM   14  C   UNL     1      -7.845  12.409  68.668  1.00  0.00    -0.049 A  
HETATM   15  I   UNL     1      -7.963   9.635  69.866  1.00  0.00    -0.202 I  
HETATM   16  C   UNL     1      -8.167  13.428  67.772  1.00  0.00    -0.172 A  
HETATM   17  C   UNL     1      -9.101  13.202  66.759  1.00  0.00    -0.214 A  
ENDBRANCH  10  11
ENDBRANCH   6  10
TORSDOF 2
ENDMDL
MODEL      141
REMARK 921   NORMALIZED FREE ENERGY PREDICTED BY IDOCK:   -3.29 KCAL/MOL
REMARK 922        TOTAL FREE ENERGY PREDICTED BY IDOCK:   -3.81 KCAL/MOL
REMARK 923 INTER-LIGAND FREE ENERGY PREDICTED BY IDOCK:   -3.68 KCAL/MOL
REMARK 924 INTRA-LIGAND FREE ENERGY PREDICTED BY IDOCK:   -0.13 KCAL/MOL
REMARK 927      BINDING AFFINITY PREDICTED BY RF-SCORE:    0.00 PKD
ROOT
HETATM    1  N   UNL     1     -12.448  14.602  68.334  1.00  0.00    -0.512 NA 
HETATM    2  C   UNL     1     -11.861  13.389  68.263  1.00  0.00    -0.358 C  
HETATM    3  H1  UNL     1     -12.456  15.068  67.427  1.00  0.00     0.000 HD 
HETATM    4  H2  UNL     1     -12.836  15.003  69.188  1.00  0.00     0.000 HD 
HETATM    5  N   UNL     1     -11.850  12.773  69.463  1.00  0.00    -0.320 NA 
HETATM    6  N   UNL     1     -11.439  12.969  67.128  1.00  0.00    -0.312 NA 
HETATM    7  H1  UNL     1     -11.406  11.855  69.409  1.00  0.00     0.000 HD 
HETATM    8  H2  UNL     1     -12.237  13.173  70.317  1.00  0.00     0.000 HD 
HETATM    9  H   UNL     1     -11.504  13.552  66.293  1.00  0.00     0.000 HD 
ENDROOT
BRANCH   6  10
HETATM   10  C   UNL     1     -10.865  11.630  67.068  1.00  0.00    -0.266 C  
BRANCH  10  11
HETATM   11  C   UNL     1     -10.323  11.318  65.694  1.00  0.00    -0.310 A  
HETATM   12  C   UNL     1      -9.672  10.100  65.446  1.00  0.00    -0.355 A  
HETATM   13  C   UNL     1      -9.151   9.829  64.180  1.00  0.00    -0.244 A  
HETATM   14  C   UNL     1      -9.286  10.754  63.145  1.00  0.00    -0.336 A  
HETATM   15  I   UNL     1      -8.159   8.034  63.834  1.00  0.00     0.100 I  
HETATM   16  C   UNL     1      -9.958  11.954  63.376  1.00  0.00    -0.435 A  
HETATM   17  C   UNL     1     -10.477  12.234  64.642  1.00  0.00    -0.334 A  
ENDBRANCH  10  11
ENDBRANCH   6  10
TORSDOF 2
ENDMDL
MODEL      142
REMARK 921   NORMALIZED FREE ENERGY PREDICTED BY IDOCK:   -3.25 KCAL/MOL
REMARK 922        TOTAL FREE ENERGY PREDICTED BY IDOCK:   -3.77 KCAL/MOL
REMARK 923 INTER-LIGAND FREE ENERGY PREDICTED BY IDOCK:   -3.59 KCAL/MOL
REMARK 924 INTRA-LIGAND FREE ENERGY PREDICTED BY IDOCK:   -0.18 KCAL/MOL
REMARK 927      BINDING AFFINITY PREDICTED BY RF-SCORE:    0.00 PKD
ROOT
HETATM    1  N   UNL     1      -8.361  15.130  69.685  1.00  0.00    -0.407 NA 
HETATM    2  C   UNL     1      -9.198  14.555  68.796  1.00  0.00    -0.162 C  
HETATM    3  H1  UNL     1      -8.807  15.253  70.594  1.00  0.00     0.000 HD 
HETATM    4  H2  UNL     1      -7.402  15.407  69.475  1.00  0.00     0.000 HD 
HETATM    5  N   UNL     1      -8.607  14.393  67.593  1.00  0.00    -0.173 NA 
HETATM    6  N   UNL     1     -10.372  14.215  69.179  1.00  0.00    -0.409 NA 
HETATM    7  H1  UNL     1      -9.240  13.958  66.921  1.00  0.00     0.000 HD 
HETATM    8  H2  UNL     1      -7.649  14.670  67.383  1.00  0.00     0.000 HD 
HETATM    9  H   UNL     1     -10.694  14.409  70.127  1.00  0.00     0.000 HD 
ENDROOT
BRANCH   6  10
HETATM   10  C   UNL     1     -11.233  13.539  68.216  1.00  0.00    -0.274 C  
BRANCH  10  11
HETATM   11  C   UNL     1     -11.082  12.039  68.289  1.00  0.00    -0.290 A  
HETATM   12  C   UNL     1     -11.298  11.361  69.499  1.00  0.00    -0.357 A  
HETATM   13  C   UNL     1     -11.132   9.977  69.566  1.00  0.00    -0.238 A  
HETATM   14  C   UNL     1     -10.768   9.252  68.431  1.00  0.00    -0.192 A  
HETATM   15  I   UNL     1     -11.421   8.987  71.372  1.00  0.00    -0.478 I  
HETATM   16  C   UNL     1     -10.580   9.915  67.219  1.00  0.00    -0.316 A  
HETATM   17  C   UNL     1     -10.740  11.300  67.146  1.00  0.00    -0.297 A  
ENDBRANCH  10  11
ENDBRANCH   6  10
TORSDOF 2
ENDMDL
MODEL      143
REMARK 921   NORMALIZED FREE ENERGY PREDICTED BY IDOCK:   -3.23 KCAL/MOL
REMARK 922        TOTAL FREE ENERGY PREDICTED BY IDOCK:   -3.74 KCAL/MOL
REMARK 923 INTER-LIGAND FREE ENERGY PREDICTED BY IDOCK:   -3.56 KCAL/MOL
REMARK 924 INTRA-LIGAND FREE ENERGY PREDICTED BY IDOCK:   -0.18 KCAL/MOL
REMARK 927      BINDING AFFINITY PREDICTED BY RF-SCORE:    0.00 PKD
ROOT
HETATM    1  N   UNL     1     -12.263  16.178  71.486  1.00  0.00    -0.600 NA 
HETATM    2  C   UNL     1     -12.024  15.266  70.520  1.00  0.00    -0.344 C  
HETATM    3  H1  UNL     1     -12.486  17.091  71.091  1.00  0.00     0.000 HD 
HETATM    4  H2  UNL     1     -12.225  15.979  72.485  1.00  0.00     0.000 HD 
HETATM    5  N   UNL     1     -11.729  14.057  71.042  1.00  0.00    -0.497 NA 
HETATM    6  N   UNL     1     -12.135  15.617  69.293  1.00  0.00    -0.539 NA 
HETATM    7  H1  UNL     1     -11.549  13.367  70.312  1.00  0.00     0.000 HD 
HETATM    8  H2  UNL     1     -11.690  13.858  72.042  1.00  0.00     0.000 HD 
HETATM    9  H   UNL     1     -12.358  16.579  69.038  1.00  0.00     0.000 HD 
ENDROOT
BRANCH   6  10
HETATM   10  C   UNL     1     -11.933  14.596  68.271  1.00  0.00    -0.247 C  
BRANCH  10  11
HETATM   11  C   UNL     1     -10.497  14.552  67.805  1.00  0.00    -0.242 A  
HETATM   12  C   UNL     1      -9.777  13.349  67.834  1.00  0.00    -0.226 A  
HETATM   13  C   UNL     1      -8.443  13.320  67.425  1.00  0.00    -0.206 A  
HETATM   14  C   UNL     1      -7.817  14.480  66.968  1.00  0.00    -0.015 A  
HETATM   15  I   UNL     1      -7.375  11.537  67.503  1.00  0.00    -0.139 I  
HETATM   16  C   UNL     1      -8.536  15.674  66.909  1.00  0.00    -0.286 A  
HETATM   17  C   UNL     1      -9.870  15.710  67.321  1.00  0.00    -0.225 A  
ENDBRANCH  10  11
ENDBRANCH   6  10
TORSDOF 2
ENDMDL
MODEL      144
REMARK 921   NORMALIZED FREE ENERGY PREDICTED BY IDOCK:   -3.22 KCAL/MOL
REMARK 922        TOTAL FREE ENERGY PREDICTED BY IDOCK:   -3.73 KCAL/MOL
REMARK 923 INTER-LIGAND FREE ENERGY PREDICTED BY IDOCK:   -3.57 KCAL/MOL
REMARK 924 INTRA-LIGAND FREE ENERGY PREDICTED BY IDOCK:   -0.17 KCAL/MOL
REMARK 927      BINDING AFFINITY PREDICTED BY RF-SCORE:    0.00 PKD
ROOT
HETATM    1  N   UNL     1      -7.534   8.425  66.134  1.00  0.00    -0.087 NA 
HETATM    2  C   UNL     1      -8.761   8.866  65.784  1.00  0.00    -0.176 C  
HETATM    3  H1  UNL     1      -6.825   9.145  65.999  1.00  0.00     0.000 HD 
HETATM    4  H2  UNL     1      -7.341   7.489  66.489  1.00  0.00     0.000 HD 
HETATM    5  N   UNL     1      -9.700   7.913  65.962  1.00  0.00    -0.452 NA 
HETATM    6  N   UNL     1      -8.895  10.075  65.383  1.00  0.00    -0.162 NA 
HETATM    7  H1  UNL     1     -10.627   8.246  65.698  1.00  0.00     0.000 HD 
HETATM    8  H2  UNL     1      -9.506   6.977  66.317  1.00  0.00     0.000 HD 
HETATM    9  H   UNL     1      -8.087  10.691  65.285  1.00  0.00     0.000 HD 
ENDROOT
BRANCH   6  10
HETATM   10  C   UNL     1     -10.240  10.544  65.071  1.00  0.00    -0.295 C  
BRANCH  10  11
HETATM   11  C   UNL     1     -10.665  11.668  65.986  1.00  0.00    -0.328 A  
HETATM   12  C   UNL     1     -10.351  12.998  65.670  1.00  0.00    -0.294 A  
HETATM   13  C   UNL     1     -10.725  14.030  66.533  1.00  0.00    -0.281 A  
HETATM   14  C   UNL     1     -11.427  13.753  67.705  1.00  0.00    -0.354 A  
HETATM   15  I   UNL     1     -10.225  15.995  66.071  1.00  0.00    -0.395 I  
HETATM   16  C   UNL     1     -11.768  12.436  68.011  1.00  0.00    -0.414 A  
HETATM   17  C   UNL     1     -11.393  11.398  67.154  1.00  0.00    -0.327 A  
ENDBRANCH  10  11
ENDBRANCH   6  10
TORSDOF 2
ENDMDL
MODEL      145
REMARK 921   NORMALIZED FREE ENERGY PREDICTED BY IDOCK:   -3.22 KCAL/MOL
REMARK 922        TOTAL FREE ENERGY PREDICTED BY IDOCK:   -3.73 KCAL/MOL
REMARK 923 INTER-LIGAND FREE ENERGY PREDICTED BY IDOCK:   -3.60 KCAL/MOL
REMARK 924 INTRA-LIGAND FREE ENERGY PREDICTED BY IDOCK:   -0.13 KCAL/MOL
REMARK 927      BINDING AFFINITY PREDICTED BY RF-SCORE:    0.00 PKD
ROOT
HETATM    1  N   UNL     1      -8.381   6.229  68.491  1.00  0.00    -0.115 NA 
HETATM    2  C   UNL     1      -9.022   6.401  69.666  1.00  0.00    -0.137 C  
HETATM    3  H1  UNL     1      -8.478   7.046  67.889  1.00  0.00     0.000 HD 
HETATM    4  H2  UNL     1      -7.864   5.387  68.237  1.00  0.00     0.000 HD 
HETATM    5  N   UNL     1      -8.894   5.319  70.463  1.00  0.00    -0.129 NA 
HETATM    6  N   UNL     1      -9.612   7.515  69.894  1.00  0.00    -0.161 NA 
HETATM    7  H1  UNL     1      -9.379   5.449  71.351  1.00  0.00     0.000 HD 
HETATM    8  H2  UNL     1      -8.377   4.478  70.209  1.00  0.00     0.000 HD 
HETATM    9  H   UNL     1      -9.638   8.252  69.189  1.00  0.00     0.000 HD 
ENDROOT
BRANCH   6  10
HETATM   10  C   UNL     1     -10.244   7.697  71.196  1.00  0.00    -0.195 C  
BRANCH  10  11
HETATM   11  C   UNL     1     -11.216   8.852  71.186  1.00  0.00    -0.352 A  
HETATM   12  C   UNL     1     -11.024   9.935  70.315  1.00  0.00    -0.366 A  
HETATM   13  C   UNL     1     -11.913  11.012  70.329  1.00  0.00    -0.365 A  
HETATM   14  C   UNL     1     -13.008  11.015  71.193  1.00  0.00    -0.421 A  
HETATM   15  I   UNL     1     -11.599  12.628  69.058  1.00  0.00    -0.346 I  
HETATM   16  C   UNL     1     -13.221   9.928  72.041  1.00  0.00    -0.555 A  
HETATM   17  C   UNL     1     -12.334   8.850  72.035  1.00  0.00    -0.460 A  
ENDBRANCH  10  11
ENDBRANCH   6  10
TORSDOF 2
ENDMDL
MODEL      146
REMARK 921   NORMALIZED FREE ENERGY PREDICTED BY IDOCK:   -3.22 KCAL/MOL
REMARK 922        TOTAL FREE ENERGY PREDICTED BY IDOCK:   -3.73 KCAL/MOL
REMARK 923 INTER-LIGAND FREE ENERGY PREDICTED BY IDOCK:   -3.59 KCAL/MOL
REMARK 924 INTRA-LIGAND FREE ENERGY PREDICTED BY IDOCK:   -0.14 KCAL/MOL
REMARK 927      BINDING AFFINITY PREDICTED BY RF-SCORE:    0.00 PKD
ROOT
HETATM    1  N   UNL     1      -6.999  16.960  68.608  1.00  0.00    -0.180 NA 
HETATM    2  C   UNL     1      -7.833  17.120  67.558  1.00  0.00    -0.175 C  
HETATM    3  H1  UNL     1      -7.511  16.921  69.489  1.00  0.00     0.000 HD 
HETATM    4  H2  UNL     1      -5.986  16.887  68.529  1.00  0.00     0.000 HD 
HETATM    5  N   UNL     1      -7.156  17.171  66.392  1.00  0.00    -0.264 NA 
HETATM    6  N   UNL     1      -9.096  17.164  67.769  1.00  0.00    -0.231 NA 
HETATM    7  H1  UNL     1      -7.786  17.292  65.598  1.00  0.00     0.000 HD 
HETATM    8  H2  UNL     1      -6.142  17.098  66.313  1.00  0.00     0.000 HD 
HETATM    9  H   UNL     1      -9.474  17.122  68.716  1.00  0.00     0.000 HD 
ENDROOT
BRANCH   6  10
HETATM   10  C   UNL     1      -9.976  17.275  66.612  1.00  0.00    -0.294 C  
BRANCH  10  11
HETATM   11  C   UNL     1     -10.568  15.938  66.232  1.00  0.00    -0.301 A  
HETATM   12  C   UNL     1     -10.609  14.889  67.162  1.00  0.00    -0.285 A  
HETATM   13  C   UNL     1     -11.134  13.648  66.796  1.00  0.00    -0.307 A  
HETATM   14  C   UNL     1     -11.638  13.444  65.512  1.00  0.00    -0.346 A  
HETATM   15  I   UNL     1     -11.160  12.090  68.173  1.00  0.00    -0.387 I  
HETATM   16  C   UNL     1     -11.627  14.491  64.591  1.00  0.00    -0.413 A  
HETATM   17  C   UNL     1     -11.099  15.733  64.950  1.00  0.00    -0.411 A  
ENDBRANCH  10  11
ENDBRANCH   6  10
TORSDOF 2
ENDMDL
MODEL      147
REMARK 921   NORMALIZED FREE ENERGY PREDICTED BY IDOCK:   -3.20 KCAL/MOL
REMARK 922        TOTAL FREE ENERGY PREDICTED BY IDOCK:   -3.71 KCAL/MOL
REMARK 923 INTER-LIGAND FREE ENERGY PREDICTED BY IDOCK:   -3.58 KCAL/MOL
REMARK 924 INTRA-LIGAND FREE ENERGY PREDICTED BY IDOCK:   -0.14 KCAL/MOL
REMARK 927      BINDING AFFINITY PREDICTED BY RF-SCORE:    0.00 PKD
ROOT
HETATM    1  N   UNL     1      -5.972  19.638  69.967  1.00  0.00    -0.273 NA 
HETATM    2  C   UNL     1      -6.809  19.464  68.922  1.00  0.00    -0.335 C  
HETATM    3  H1  UNL     1      -6.413  19.373  70.847  1.00  0.00     0.000 HD 
HETATM    4  H2  UNL     1      -5.019  19.992  69.886  1.00  0.00     0.000 HD 
HETATM    5  N   UNL     1      -6.226  19.816  67.757  1.00  0.00    -0.203 NA 
HETATM    6  N   UNL     1      -7.975  18.979  69.134  1.00  0.00    -0.196 NA 
HETATM    7  H1  UNL     1      -6.858  19.683  66.967  1.00  0.00     0.000 HD 
HETATM    8  H2  UNL     1      -5.273  20.169  67.676  1.00  0.00     0.000 HD 
HETATM    9  H   UNL     1      -8.292  18.764  70.081  1.00  0.00     0.000 HD 
ENDROOT
BRANCH   6  10
HETATM   10  C   UNL     1      -8.835  18.743  67.981  1.00  0.00    -0.300 C  
BRANCH  10  11
HETATM   11  C   UNL     1      -9.686  17.508  68.164  1.00  0.00    -0.302 A  
HETATM   12  C   UNL     1     -10.198  17.179  69.428  1.00  0.00    -0.164 A  
HETATM   13  C   UNL     1     -10.962  16.023  69.595  1.00  0.00    -0.326 A  
HETATM   14  C   UNL     1     -11.240  15.195  68.508  1.00  0.00    -0.301 A  
HETATM   15  I   UNL     1     -11.688  15.527  71.480  1.00  0.00    -0.600 I  
HETATM   16  C   UNL     1     -10.759  15.532  67.243  1.00  0.00    -0.308 A  
HETATM   17  C   UNL     1      -9.990  16.684  67.070  1.00  0.00    -0.271 A  
ENDBRANCH  10  11
ENDBRANCH   6  10
TORSDOF 2
ENDMDL
MODEL      148
REMARK 921   NORMALIZED FREE ENERGY PREDICTED BY IDOCK:   -3.20 KCAL/MOL
REMARK 922        TOTAL FREE ENERGY PREDICTED BY IDOCK:   -3.71 KCAL/MOL
REMARK 923 INTER-LIGAND FREE ENERGY PREDICTED BY IDOCK:   -3.57 KCAL/MOL
REMARK 924 INTRA-LIGAND FREE ENERGY PREDICTED BY IDOCK:   -0.14 KCAL/MOL
REMARK 927      BINDING AFFINITY PREDICTED BY RF-SCORE:    0.00 PKD
ROOT
HETATM    1  N   UNL     1     -11.681  12.620  65.855  1.00  0.00    -0.398 NA 
HETATM    2  C   UNL     1     -10.602  13.228  66.392  1.00  0.00    -0.284 C  
HETATM    3  H1  UNL     1     -12.070  13.161  65.083  1.00  0.00     0.000 HD 
HETATM    4  H2  UNL     1     -12.060  11.731  66.181  1.00  0.00     0.000 HD 
HETATM    5  N   UNL     1     -10.088  12.513  67.414  1.00  0.00    -0.209 NA 
HETATM    6  N   UNL     1     -10.190  14.328  65.879  1.00  0.00    -0.310 NA 
HETATM    7  H1  UNL     1      -9.272  12.973  67.820  1.00  0.00     0.000 HD 
HETATM    8  H2  UNL     1     -10.467  11.625  67.740  1.00  0.00     0.000 HD 
HETATM    9  H   UNL     1     -10.688  14.767  65.104  1.00  0.00     0.000 HD 
ENDROOT
BRANCH   6  10
HETATM   10  C   UNL     1      -8.987  14.931  66.439  1.00  0.00    -0.219 C  
BRANCH  10  11
HETATM   11  C   UNL     1      -9.241  16.341  66.917  1.00  0.00    -0.237 A  
HETATM   12  C   UNL     1      -8.322  17.363  66.636  1.00  0.00    -0.295 A  
HETATM   13  C   UNL     1      -8.551  18.659  67.103  1.00  0.00    -0.269 A  
HETATM   14  C   UNL     1      -9.700  18.954  67.836  1.00  0.00    -0.376 A  
HETATM   15  I   UNL     1      -7.166  20.159  66.708  1.00  0.00    -0.318 I  
HETATM   16  C   UNL     1     -10.632  17.949  68.094  1.00  0.00    -0.351 A  
HETATM   17  C   UNL     1     -10.407  16.650  67.634  1.00  0.00    -0.305 A  
ENDBRANCH  10  11
ENDBRANCH   6  10
TORSDOF 2
ENDMDL
MODEL      149
REMARK 921   NORMALIZED FREE ENERGY PREDICTED BY IDOCK:   -3.19 KCAL/MOL
REMARK 922        TOTAL FREE ENERGY PREDICTED BY IDOCK:   -3.70 KCAL/MOL
REMARK 923 INTER-LIGAND FREE ENERGY PREDICTED BY IDOCK:   -3.54 KCAL/MOL
REMARK 924 INTRA-LIGAND FREE ENERGY PREDICTED BY IDOCK:   -0.16 KCAL/MOL
REMARK 927      BINDING AFFINITY PREDICTED BY RF-SCORE:    0.00 PKD
ROOT
HETATM    1  N   UNL     1      -7.093  10.077  70.942  1.00  0.00    -0.344 NA 
HETATM    2  C   UNL     1      -8.164   9.644  70.244  1.00  0.00    -0.191 C  
HETATM    3  H1  UNL     1      -7.175  11.067  71.176  1.00  0.00     0.000 HD 
HETATM    4  H2  UNL     1      -6.302   9.489  71.202  1.00  0.00     0.000 HD 
HETATM    5  N   UNL     1      -8.056   8.335  69.934  1.00  0.00    -0.115 NA 
HETATM    6  N   UNL     1      -9.120  10.462  70.002  1.00  0.00    -0.336 NA 
HETATM    7  H1  UNL     1      -8.866   8.007  69.407  1.00  0.00     0.000 HD 
HETATM    8  H2  UNL     1      -7.265   7.747  70.194  1.00  0.00     0.000 HD 
HETATM    9  H   UNL     1      -9.064  11.439  70.291  1.00  0.00     0.000 HD 
ENDROOT
BRANCH   6  10
HETATM   10  C   UNL     1     -10.292   9.951  69.301  1.00  0.00    -0.219 C  
BRANCH  10  11
HETATM   11  C   UNL     1     -10.610  10.774  68.076  1.00  0.00    -0.245 A  
HETATM   12  C   UNL     1     -10.044  10.448  66.834  1.00  0.00    -0.269 A  
HETATM   13  C   UNL     1     -10.323  11.228  65.710  1.00  0.00    -0.258 A  
HETATM   14  C   UNL     1     -11.177  12.326  65.805  1.00  0.00    -0.378 A  
HETATM   15  I   UNL     1      -9.451  10.755  63.882  1.00  0.00    -0.369 I  
HETATM   16  C   UNL     1     -11.767  12.638  67.029  1.00  0.00    -0.438 A  
HETATM   17  C   UNL     1     -11.489  11.865  68.158  1.00  0.00    -0.384 A  
ENDBRANCH  10  11
ENDBRANCH   6  10
TORSDOF 2
ENDMDL
MODEL      150
REMARK 921   NORMALIZED FREE ENERGY PREDICTED BY IDOCK:   -3.19 KCAL/MOL
REMARK 922        TOTAL FREE ENERGY PREDICTED BY IDOCK:   -3.70 KCAL/MOL
REMARK 923 INTER-LIGAND FREE ENERGY PREDICTED BY IDOCK:   -3.51 KCAL/MOL
REMARK 924 INTRA-LIGAND FREE ENERGY PREDICTED BY IDOCK:   -0.19 KCAL/MOL
REMARK 927      BINDING AFFINITY PREDICTED BY RF-SCORE:    0.00 PKD
ROOT
HETATM    1  N   UNL     1      -8.309   9.645  70.820  1.00  0.00    -0.371 NA 
HETATM    2  C   UNL     1      -9.311   9.444  69.938  1.00  0.00    -0.214 C  
HETATM    3  H1  UNL     1      -7.537   8.998  70.662  1.00  0.00     0.000 HD 
HETATM    4  H2  UNL     1      -8.323  10.355  71.552  1.00  0.00     0.000 HD 
HETATM    5  N   UNL     1     -10.334  10.300  70.146  1.00  0.00    -0.426 NA 
HETATM    6  N   UNL     1      -9.173   8.546  69.035  1.00  0.00    -0.146 NA 
HETATM    7  H1  UNL     1     -11.091  10.148  69.479  1.00  0.00     0.000 HD 
HETATM    8  H2  UNL     1     -10.348  11.009  70.878  1.00  0.00     0.000 HD 
HETATM    9  H   UNL     1      -8.340   7.957  69.000  1.00  0.00     0.000 HD 
ENDROOT
BRANCH   6  10
HETATM   10  C   UNL     1     -10.243   8.392  68.057  1.00  0.00    -0.212 C  
BRANCH  10  11
HETATM   11  C   UNL     1      -9.822   8.874  66.690  1.00  0.00    -0.332 A  
HETATM   12  C   UNL     1     -10.395  10.029  66.136  1.00  0.00    -0.225 A  
HETATM   13  C   UNL     1     -10.019  10.455  64.860  1.00  0.00    -0.339 A  
HETATM   14  C   UNL     1      -9.062   9.749  64.132  1.00  0.00    -0.289 A  
HETATM   15  I   UNL     1     -10.898  12.149  64.036  1.00  0.00    -0.595 I  
HETATM   16  C   UNL     1      -8.468   8.616  64.688  1.00  0.00    -0.150 A  
HETATM   17  C   UNL     1      -8.842   8.183  65.961  1.00  0.00    -0.206 A  
ENDBRANCH  10  11
ENDBRANCH   6  10
TORSDOF 2
ENDMDL
MODEL      151
REMARK 921   NORMALIZED FREE ENERGY PREDICTED BY IDOCK:   -3.18 KCAL/MOL
REMARK 922        TOTAL FREE ENERGY PREDICTED BY IDOCK:   -3.69 KCAL/MOL
REMARK 923 INTER-LIGAND FREE ENERGY PREDICTED BY IDOCK:   -3.54 KCAL/MOL
REMARK 924 INTRA-LIGAND FREE ENERGY PREDICTED BY IDOCK:   -0.15 KCAL/MOL
REMARK 927      BINDING AFFINITY PREDICTED BY RF-SCORE:    0.00 PKD
ROOT
HETATM    1  N   UNL     1      -8.869  13.306  66.569  1.00  0.00    -0.449 NA 
HETATM    2  C   UNL     1      -8.238  13.923  67.590  1.00  0.00    -0.177 C  
HETATM    3  H1  UNL     1      -8.701  13.783  65.683  1.00  0.00     0.000 HD 
HETATM    4  H2  UNL     1      -9.442  12.469  66.670  1.00  0.00     0.000 HD 
HETATM    5  N   UNL     1      -8.461  13.292  68.763  1.00  0.00    -0.363 NA 
HETATM    6  N   UNL     1      -7.513  14.950  67.344  1.00  0.00    -0.197 NA 
HETATM    7  H1  UNL     1      -7.984  13.758  69.535  1.00  0.00     0.000 HD 
HETATM    8  H2  UNL     1      -9.034  12.455  68.863  1.00  0.00     0.000 HD 
HETATM    9  H   UNL     1      -7.442  15.330  66.399  1.00  0.00     0.000 HD 
ENDROOT
BRANCH   6  10
HETATM   10  C   UNL     1      -6.794  15.559  68.456  1.00  0.00    -0.114 C  
BRANCH  10  11
HETATM   11  C   UNL     1      -7.022  17.050  68.517  1.00  0.00    -0.197 A  
HETATM   12  C   UNL     1      -8.063  17.640  67.785  1.00  0.00    -0.224 A  
HETATM   13  C   UNL     1      -8.253  19.023  67.827  1.00  0.00    -0.276 A  
HETATM   14  C   UNL     1      -7.423  19.828  68.607  1.00  0.00    -0.329 A  
HETATM   15  I   UNL     1      -9.778  19.891  66.711  1.00  0.00    -0.631 I  
HETATM   16  C   UNL     1      -6.404  19.245  69.360  1.00  0.00    -0.337 A  
HETATM   17  C   UNL     1      -6.207  17.863  69.320  1.00  0.00    -0.242 A  
ENDBRANCH  10  11
ENDBRANCH   6  10
TORSDOF 2
ENDMDL
MODEL      152
REMARK 921   NORMALIZED FREE ENERGY PREDICTED BY IDOCK:   -3.17 KCAL/MOL
REMARK 922        TOTAL FREE ENERGY PREDICTED BY IDOCK:   -3.68 KCAL/MOL
REMARK 923 INTER-LIGAND FREE ENERGY PREDICTED BY IDOCK:   -3.55 KCAL/MOL
REMARK 924 INTRA-LIGAND FREE ENERGY PREDICTED BY IDOCK:   -0.14 KCAL/MOL
REMARK 927      BINDING AFFINITY PREDICTED BY RF-SCORE:    0.00 PKD
ROOT
HETATM    1  N   UNL     1      -7.447  15.022  69.241  1.00  0.00    -0.175 NA 
HETATM    2  C   UNL     1      -8.443  15.511  68.472  1.00  0.00    -0.163 C  
HETATM    3  H1  UNL     1      -7.549  14.019  69.393  1.00  0.00     0.000 HD 
HETATM    4  H2  UNL     1      -6.687  15.585  69.623  1.00  0.00     0.000 HD 
HETATM    5  N   UNL     1      -8.307  16.839  68.272  1.00  0.00    -0.205 NA 
HETATM    6  N   UNL     1      -9.328  14.705  68.016  1.00  0.00    -0.194 NA 
HETATM    7  H1  UNL     1      -9.060  17.208  67.691  1.00  0.00     0.000 HD 
HETATM    8  H2  UNL     1      -7.548  17.402  68.654  1.00  0.00     0.000 HD 
HETATM    9  H   UNL     1      -9.314  13.714  68.259  1.00  0.00     0.000 HD 
ENDROOT
BRANCH   6  10
HETATM   10  C   UNL     1     -10.357  15.250  67.138  1.00  0.00    -0.265 C  
BRANCH  10  11
HETATM   11  C   UNL     1     -10.962  14.181  66.259  1.00  0.00    -0.303 A  
HETATM   12  C   UNL     1     -10.169  13.133  65.768  1.00  0.00    -0.294 A  
HETATM   13  C   UNL     1     -10.730  12.162  64.936  1.00  0.00    -0.295 A  
HETATM   14  C   UNL     1     -12.082  12.213  64.599  1.00  0.00    -0.389 A  
HETATM   15  I   UNL     1      -9.538  10.631  64.186  1.00  0.00    -0.402 I  
HETATM   16  C   UNL     1     -12.882  13.236  65.107  1.00  0.00    -0.376 A  
HETATM   17  C   UNL     1     -12.327  14.212  65.937  1.00  0.00    -0.486 A  
ENDBRANCH  10  11
ENDBRANCH   6  10
TORSDOF 2
ENDMDL
MODEL      153
REMARK 921   NORMALIZED FREE ENERGY PREDICTED BY IDOCK:   -3.15 KCAL/MOL
REMARK 922        TOTAL FREE ENERGY PREDICTED BY IDOCK:   -3.66 KCAL/MOL
REMARK 923 INTER-LIGAND FREE ENERGY PREDICTED BY IDOCK:   -3.50 KCAL/MOL
REMARK 924 INTRA-LIGAND FREE ENERGY PREDICTED BY IDOCK:   -0.16 KCAL/MOL
REMARK 927      BINDING AFFINITY PREDICTED BY RF-SCORE:    0.00 PKD
ROOT
HETATM    1  N   UNL     1     -10.303  19.657  68.957  1.00  0.00    -0.595 NA 
HETATM    2  C   UNL     1     -10.093  19.009  67.792  1.00  0.00    -0.379 C  
HETATM    3  H1  UNL     1     -10.804  19.072  69.626  1.00  0.00     0.000 HD 
HETATM    4  H2  UNL     1     -10.000  20.613  69.145  1.00  0.00     0.000 HD 
HETATM    5  N   UNL     1      -9.431  19.783  66.907  1.00  0.00    -0.348 NA 
HETATM    6  N   UNL     1     -10.486  17.795  67.677  1.00  0.00    -0.378 NA 
HETATM    7  H1  UNL     1      -9.271  19.293  66.026  1.00  0.00     0.000 HD 
HETATM    8  H2  UNL     1      -9.128  20.739  67.095  1.00  0.00     0.000 HD 
HETATM    9  H   UNL     1     -10.990  17.330  68.433  1.00  0.00     0.000 HD 
ENDROOT
BRANCH   6  10
HETATM   10  C   UNL     1     -10.191  17.099  66.431  1.00  0.00    -0.328 C  
BRANCH  10  11
HETATM   11  C   UNL     1      -9.501  15.779  66.680  1.00  0.00    -0.279 A  
HETATM   12  C   UNL     1      -8.275  15.735  67.361  1.00  0.00    -0.196 A  
HETATM   13  C   UNL     1      -7.630  14.514  67.566  1.00  0.00    -0.190 A  
HETATM   14  C   UNL     1      -8.204  13.326  67.113  1.00  0.00    -0.123 A  
HETATM   15  I   UNL     1      -5.797  14.465  68.548  1.00  0.00    -0.123 I  
HETATM   16  C   UNL     1      -9.436  13.359  66.461  1.00  0.00    -0.252 A  
HETATM   17  C   UNL     1     -10.084  14.578  66.249  1.00  0.00    -0.308 A  
ENDBRANCH  10  11
ENDBRANCH   6  10
TORSDOF 2
ENDMDL
MODEL      154
REMARK 921   NORMALIZED FREE ENERGY PREDICTED BY IDOCK:   -3.15 KCAL/MOL
REMARK 922        TOTAL FREE ENERGY PREDICTED BY IDOCK:   -3.66 KCAL/MOL
REMARK 923 INTER-LIGAND FREE ENERGY PREDICTED BY IDOCK:   -3.52 KCAL/MOL
REMARK 924 INTRA-LIGAND FREE ENERGY PREDICTED BY IDOCK:   -0.14 KCAL/MOL
REMARK 927      BINDING AFFINITY PREDICTED BY RF-SCORE:    0.00 PKD
ROOT
HETATM    1  N   UNL     1      -7.019  10.659  67.427  1.00  0.00    -0.080 NA 
HETATM    2  C   UNL     1      -8.153  10.653  66.696  1.00  0.00    -0.136 C  
HETATM    3  H1  UNL     1      -7.215  10.566  68.423  1.00  0.00     0.000 HD 
HETATM    4  H2  UNL     1      -6.083  10.747  67.032  1.00  0.00     0.000 HD 
HETATM    5  N   UNL     1      -7.894  10.777  65.378  1.00  0.00    -0.331 NA 
HETATM    6  N   UNL     1      -9.276  10.501  67.294  1.00  0.00    -0.143 NA 
HETATM    7  H1  UNL     1      -8.752  10.772  64.825  1.00  0.00     0.000 HD 
HETATM    8  H2  UNL     1      -6.958  10.865  64.983  1.00  0.00     0.000 HD 
HETATM    9  H   UNL     1      -9.326  10.428  68.311  1.00  0.00     0.000 HD 
ENDROOT
BRANCH   6  10
HETATM   10  C   UNL     1     -10.481  10.435  66.475  1.00  0.00    -0.196 C  
BRANCH  10  11
HETATM   11  C   UNL     1     -11.125  11.793  66.323  1.00  0.00    -0.364 A  
HETATM   12  C   UNL     1     -11.043  12.738  67.356  1.00  0.00    -0.312 A  
HETATM   13  C   UNL     1     -11.662  13.982  67.219  1.00  0.00    -0.389 A  
HETATM   14  C   UNL     1     -12.353  14.304  66.051  1.00  0.00    -0.416 A  
HETATM   15  I   UNL     1     -11.563  15.363  68.771  1.00  0.00    -0.317 I  
HETATM   16  C   UNL     1     -12.414  13.380  65.008  1.00  0.00    -0.479 A  
HETATM   17  C   UNL     1     -11.800  12.132  65.141  1.00  0.00    -0.356 A  
ENDBRANCH  10  11
ENDBRANCH   6  10
TORSDOF 2
ENDMDL
MODEL      155
REMARK 921   NORMALIZED FREE ENERGY PREDICTED BY IDOCK:   -3.12 KCAL/MOL
REMARK 922        TOTAL FREE ENERGY PREDICTED BY IDOCK:   -3.63 KCAL/MOL
REMARK 923 INTER-LIGAND FREE ENERGY PREDICTED BY IDOCK:   -3.48 KCAL/MOL
REMARK 924 INTRA-LIGAND FREE ENERGY PREDICTED BY IDOCK:   -0.15 KCAL/MOL
REMARK 927      BINDING AFFINITY PREDICTED BY RF-SCORE:    0.00 PKD
ROOT
HETATM    1  N   UNL     1      -8.968   8.310  73.805  1.00  0.00    -0.237 NA 
HETATM    2  C   UNL     1      -9.878   7.595  73.111  1.00  0.00    -0.279 C  
HETATM    3  H1  UNL     1      -8.063   8.321  73.335  1.00  0.00     0.000 HD 
HETATM    4  H2  UNL     1      -9.161   8.781  74.689  1.00  0.00     0.000 HD 
HETATM    5  N   UNL     1     -11.076   7.581  73.733  1.00  0.00    -0.441 NA 
HETATM    6  N   UNL     1      -9.536   7.075  71.991  1.00  0.00    -0.140 NA 
HETATM    7  H1  UNL     1     -11.764   7.040  73.207  1.00  0.00     0.000 HD 
HETATM    8  H2  UNL     1     -11.269   8.051  74.616  1.00  0.00     0.000 HD 
HETATM    9  H   UNL     1      -8.581   7.158  71.641  1.00  0.00     0.000 HD 
ENDROOT
BRANCH   6  10
HETATM   10  C   UNL     1     -10.556   6.360  71.232  1.00  0.00    -0.230 C  
BRANCH  10  11
HETATM   11  C   UNL     1     -10.604   6.819  69.794  1.00  0.00    -0.263 A  
HETATM   12  C   UNL     1     -10.459   8.178  69.477  1.00  0.00    -0.227 A  
HETATM   13  C   UNL     1     -10.529   8.598  68.147  1.00  0.00    -0.187 A  
HETATM   14  C   UNL     1     -10.726   7.673  67.122  1.00  0.00    -0.361 A  
HETATM   15  I   UNL     1     -10.347  10.619  67.691  1.00  0.00    -0.311 I  
HETATM   16  C   UNL     1     -10.842   6.318  67.428  1.00  0.00    -0.448 A  
HETATM   17  C   UNL     1     -10.777   5.891  68.756  1.00  0.00    -0.354 A  
ENDBRANCH  10  11
ENDBRANCH   6  10
TORSDOF 2
ENDMDL
MODEL      156
REMARK 921   NORMALIZED FREE ENERGY PREDICTED BY IDOCK:   -3.12 KCAL/MOL
REMARK 922        TOTAL FREE ENERGY PREDICTED BY IDOCK:   -3.63 KCAL/MOL
REMARK 923 INTER-LIGAND FREE ENERGY PREDICTED BY IDOCK:   -3.54 KCAL/MOL
REMARK 924 INTRA-LIGAND FREE ENERGY PREDICTED BY IDOCK:   -0.09 KCAL/MOL
REMARK 927      BINDING AFFINITY PREDICTED BY RF-SCORE:    0.00 PKD
ROOT
HETATM    1  N   UNL     1      -9.794   3.126  64.642  1.00  0.00    -0.290 NA 
HETATM    2  C   UNL     1     -10.350   4.124  65.362  1.00  0.00    -0.148 C  
HETATM    3  H1  UNL     1      -8.836   2.941  64.938  1.00  0.00     0.000 HD 
HETATM    4  H2  UNL     1     -10.272   2.622  63.897  1.00  0.00     0.000 HD 
HETATM    5  N   UNL     1     -11.618   4.370  64.970  1.00  0.00    -0.989 NA 
HETATM    6  N   UNL     1      -9.670   4.666  66.302  1.00  0.00    -0.181 NA 
HETATM    7  H1  UNL     1     -12.039   5.123  65.515  1.00  0.00     0.000 HD 
HETATM    8  H2  UNL     1     -12.096   3.865  64.224  1.00  0.00     0.000 HD 
HETATM    9  H   UNL     1      -8.705   4.385  66.484  1.00  0.00     0.000 HD 
ENDROOT
BRANCH   6  10
HETATM   10  C   UNL     1     -10.316   5.698  67.104  1.00  0.00    -0.248 C  
BRANCH  10  11
HETATM   11  C   UNL     1      -9.896   7.083  66.672  1.00  0.00    -0.223 A  
HETATM   12  C   UNL     1     -10.508   8.216  67.229  1.00  0.00    -0.379 A  
HETATM   13  C   UNL     1     -10.132   9.493  66.807  1.00  0.00    -0.245 A  
HETATM   14  C   UNL     1      -9.137   9.657  65.844  1.00  0.00    -0.221 A  
HETATM   15  I   UNL     1     -11.069  11.165  67.615  1.00  0.00    -0.327 I  
HETATM   16  C   UNL     1      -8.504   8.535  65.308  1.00  0.00    -0.192 A  
HETATM   17  C   UNL     1      -8.878   7.255  65.722  1.00  0.00    -0.095 A  
ENDBRANCH  10  11
ENDBRANCH   6  10
TORSDOF 2
ENDMDL
MODEL      157
REMARK 921   NORMALIZED FREE ENERGY PREDICTED BY IDOCK:   -3.11 KCAL/MOL
REMARK 922        TOTAL FREE ENERGY PREDICTED BY IDOCK:   -3.62 KCAL/MOL
REMARK 923 INTER-LIGAND FREE ENERGY PREDICTED BY IDOCK:   -3.45 KCAL/MOL
REMARK 924 INTRA-LIGAND FREE ENERGY PREDICTED BY IDOCK:   -0.17 KCAL/MOL
REMARK 927      BINDING AFFINITY PREDICTED BY RF-SCORE:    0.00 PKD
ROOT
HETATM    1  N   UNL     1      -7.115  11.533  69.909  1.00  0.00    -0.372 NA 
HETATM    2  C   UNL     1      -7.823  11.420  68.765  1.00  0.00    -0.128 C  
HETATM    3  H1  UNL     1      -7.654  12.001  70.638  1.00  0.00     0.000 HD 
HETATM    4  H2  UNL     1      -6.161  11.194  70.030  1.00  0.00     0.000 HD 
HETATM    5  N   UNL     1      -7.109  10.802  67.801  1.00  0.00    -0.085 NA 
HETATM    6  N   UNL     1      -9.029  11.850  68.736  1.00  0.00    -0.383 NA 
HETATM    7  H1  UNL     1      -7.644  10.715  66.936  1.00  0.00     0.000 HD 
HETATM    8  H2  UNL     1      -6.155  10.462  67.922  1.00  0.00     0.000 HD 
HETATM    9  H   UNL     1      -9.444  12.312  69.546  1.00  0.00     0.000 HD 
ENDROOT
BRANCH   6  10
HETATM   10  C   UNL     1      -9.790  11.659  67.507  1.00  0.00    -0.188 C  
BRANCH  10  11
HETATM   11  C   UNL     1     -10.091  12.974  66.828  1.00  0.00    -0.247 A  
HETATM   12  C   UNL     1     -10.061  14.173  67.556  1.00  0.00    -0.236 A  
HETATM   13  C   UNL     1     -10.364  15.382  66.928  1.00  0.00    -0.277 A  
HETATM   14  C   UNL     1     -10.683  15.414  65.570  1.00  0.00    -0.397 A  
HETATM   15  I   UNL     1     -10.350  17.149  68.025  1.00  0.00    -0.380 I  
HETATM   16  C   UNL     1     -10.686  14.230  64.834  1.00  0.00    -0.448 A  
HETATM   17  C   UNL     1     -10.387  13.017  65.457  1.00  0.00    -0.304 A  
ENDBRANCH  10  11
ENDBRANCH   6  10
TORSDOF 2
ENDMDL
MODEL      158
REMARK 921   NORMALIZED FREE ENERGY PREDICTED BY IDOCK:   -3.09 KCAL/MOL
REMARK 922        TOTAL FREE ENERGY PREDICTED BY IDOCK:   -3.59 KCAL/MOL
REMARK 923 INTER-LIGAND FREE ENERGY PREDICTED BY IDOCK:   -3.44 KCAL/MOL
REMARK 924 INTRA-LIGAND FREE ENERGY PREDICTED BY IDOCK:   -0.15 KCAL/MOL
REMARK 927      BINDING AFFINITY PREDICTED BY RF-SCORE:    0.00 PKD
ROOT
HETATM    1  N   UNL     1     -12.365  12.366  70.752  1.00  0.00    -0.362 NA 
HETATM    2  C   UNL     1     -11.969  11.244  70.115  1.00  0.00    -0.369 C  
HETATM    3  H1  UNL     1     -11.571  12.874  71.143  1.00  0.00     0.000 HD 
HETATM    4  H2  UNL     1     -13.335  12.668  70.834  1.00  0.00     0.000 HD 
HETATM    5  N   UNL     1     -13.019  10.571  69.599  1.00  0.00    -0.537 NA 
HETATM    6  N   UNL     1     -10.718  10.978  70.043  1.00  0.00    -0.446 NA 
HETATM    7  H1  UNL     1     -12.720   9.723  69.117  1.00  0.00     0.000 HD 
HETATM    8  H2  UNL     1     -13.990  10.873  69.681  1.00  0.00     0.000 HD 
HETATM    9  H   UNL     1     -10.025  11.577  70.494  1.00  0.00     0.000 HD 
ENDROOT
BRANCH   6  10
HETATM   10  C   UNL     1     -10.315   9.793  69.296  1.00  0.00    -0.215 C  
BRANCH  10  11
HETATM   11  C   UNL     1      -9.942   8.655  70.216  1.00  0.00    -0.204 A  
HETATM   12  C   UNL     1      -9.929   7.334  69.743  1.00  0.00    -0.183 A  
HETATM   13  C   UNL     1      -9.608   6.284  70.605  1.00  0.00    -0.172 A  
HETATM   14  C   UNL     1      -9.281   6.537  71.937  1.00  0.00    -0.148 A  
HETATM   15  I   UNL     1      -9.625   4.327  69.902  1.00  0.00    -0.203 I  
HETATM   16  C   UNL     1      -9.263   7.850  72.406  1.00  0.00    -0.239 A  
HETATM   17  C   UNL     1      -9.588   8.904  71.550  1.00  0.00    -0.362 A  
ENDBRANCH  10  11
ENDBRANCH   6  10
TORSDOF 2
ENDMDL
MODEL      159
REMARK 921   NORMALIZED FREE ENERGY PREDICTED BY IDOCK:   -3.08 KCAL/MOL
REMARK 922        TOTAL FREE ENERGY PREDICTED BY IDOCK:   -3.58 KCAL/MOL
REMARK 923 INTER-LIGAND FREE ENERGY PREDICTED BY IDOCK:   -3.42 KCAL/MOL
REMARK 924 INTRA-LIGAND FREE ENERGY PREDICTED BY IDOCK:   -0.16 KCAL/MOL
REMARK 927      BINDING AFFINITY PREDICTED BY RF-SCORE:    0.00 PKD
ROOT
HETATM    1  N   UNL     1      -8.668   8.524  63.842  1.00  0.00    -0.413 NA 
HETATM    2  C   UNL     1      -8.751   8.724  65.174  1.00  0.00    -0.167 C  
HETATM    3  H1  UNL     1      -8.324   9.355  63.360  1.00  0.00     0.000 HD 
HETATM    4  H2  UNL     1      -8.918   7.653  63.376  1.00  0.00     0.000 HD 
HETATM    5  N   UNL     1      -9.207   7.625  65.812  1.00  0.00    -0.393 NA 
HETATM    6  N   UNL     1      -8.375   9.849  65.659  1.00  0.00    -0.132 NA 
HETATM    7  H1  UNL     1      -9.269   7.775  66.819  1.00  0.00     0.000 HD 
HETATM    8  H2  UNL     1      -9.457   6.753  65.346  1.00  0.00     0.000 HD 
HETATM    9  H   UNL     1      -8.057  10.604  65.051  1.00  0.00     0.000 HD 
ENDROOT
BRANCH   6  10
HETATM   10  C   UNL     1      -8.417  10.015  67.107  1.00  0.00    -0.125 C  
BRANCH  10  11
HETATM   11  C   UNL     1      -9.643  10.780  67.544  1.00  0.00    -0.176 A  
HETATM   12  C   UNL     1     -10.252  11.701  66.679  1.00  0.00    -0.249 A  
HETATM   13  C   UNL     1     -11.370  12.424  67.099  1.00  0.00    -0.329 A  
HETATM   14  C   UNL     1     -11.903  12.226  68.373  1.00  0.00    -0.358 A  
HETATM   15  I   UNL     1     -12.245  13.811  65.820  1.00  0.00    -0.519 I  
HETATM   16  C   UNL     1     -11.321  11.291  69.227  1.00  0.00    -0.354 A  
HETATM   17  C   UNL     1     -10.199  10.568  68.815  1.00  0.00    -0.205 A  
ENDBRANCH  10  11
ENDBRANCH   6  10
TORSDOF 2
ENDMDL
MODEL      160
REMARK 921   NORMALIZED FREE ENERGY PREDICTED BY IDOCK:   -3.07 KCAL/MOL
REMARK 922        TOTAL FREE ENERGY PREDICTED BY IDOCK:   -3.57 KCAL/MOL
REMARK 923 INTER-LIGAND FREE ENERGY PREDICTED BY IDOCK:   -3.51 KCAL/MOL
REMARK 924 INTRA-LIGAND FREE ENERGY PREDICTED BY IDOCK:   -0.06 KCAL/MOL
REMARK 927      BINDING AFFINITY PREDICTED BY RF-SCORE:    0.00 PKD
ROOT
HETATM    1  N   UNL     1     -12.283  16.252  71.438  1.00  0.00    -0.573 NA 
HETATM    2  C   UNL     1     -12.096  15.280  70.520  1.00  0.00    -0.354 C  
HETATM    3  H1  UNL     1     -12.315  17.175  71.004  1.00  0.00     0.000 HD 
HETATM    4  H2  UNL     1     -12.380  16.085  72.439  1.00  0.00     0.000 HD 
HETATM    5  N   UNL     1     -12.053  14.059  71.094  1.00  0.00    -0.435 NA 
HETATM    6  N   UNL     1     -12.022  15.600  69.282  1.00  0.00    -0.489 NA 
HETATM    7  H1  UNL     1     -11.911  13.324  70.401  1.00  0.00     0.000 HD 
HETATM    8  H2  UNL     1     -12.150  13.892  72.095  1.00  0.00     0.000 HD 
HETATM    9  H   UNL     1     -12.061  16.577  68.987  1.00  0.00     0.000 HD 
ENDROOT
BRANCH   6  10
HETATM   10  C   UNL     1     -11.882  14.525  68.308  1.00  0.00    -0.312 C  
BRANCH  10  11
HETATM   11  C   UNL     1     -10.449  14.064  68.189  1.00  0.00    -0.243 A  
HETATM   12  C   UNL     1      -9.404  14.999  68.140  1.00  0.00    -0.187 A  
HETATM   13  C   UNL     1      -8.083  14.567  68.005  1.00  0.00    -0.139 A  
HETATM   14  C   UNL     1      -7.787  13.206  67.935  1.00  0.00    -0.151 A  
HETATM   15  I   UNL     1      -6.545  15.963  67.899  1.00  0.00    -0.212 I  
HETATM   16  C   UNL     1      -8.818  12.270  68.013  1.00  0.00    -0.182 A  
HETATM   17  C   UNL     1     -10.142  12.696  68.144  1.00  0.00    -0.231 A  
ENDBRANCH  10  11
ENDBRANCH   6  10
TORSDOF 2
ENDMDL
MODEL      161
REMARK 921   NORMALIZED FREE ENERGY PREDICTED BY IDOCK:   -3.07 KCAL/MOL
REMARK 922        TOTAL FREE ENERGY PREDICTED BY IDOCK:   -3.57 KCAL/MOL
REMARK 923 INTER-LIGAND FREE ENERGY PREDICTED BY IDOCK:   -3.45 KCAL/MOL
REMARK 924 INTRA-LIGAND FREE ENERGY PREDICTED BY IDOCK:   -0.12 KCAL/MOL
REMARK 927      BINDING AFFINITY PREDICTED BY RF-SCORE:    0.00 PKD
ROOT
HETATM    1  N   UNL     1      -5.743  16.092  69.276  1.00  0.00    -0.117 NA 
HETATM    2  C   UNL     1      -6.974  16.639  69.198  1.00  0.00    -0.227 C  
HETATM    3  H1  UNL     1      -5.790  15.078  69.373  1.00  0.00     0.000 HD 
HETATM    4  H2  UNL     1      -4.874  16.625  69.242  1.00  0.00     0.000 HD 
HETATM    5  N   UNL     1      -6.912  17.982  69.070  1.00  0.00    -0.264 NA 
HETATM    6  N   UNL     1      -7.998  15.870  69.215  1.00  0.00    -0.232 NA 
HETATM    7  H1  UNL     1      -7.843  18.396  69.011  1.00  0.00     0.000 HD 
HETATM    8  H2  UNL     1      -6.043  18.515  69.037  1.00  0.00     0.000 HD 
HETATM    9  H   UNL     1      -7.897  14.861  69.328  1.00  0.00     0.000 HD 
ENDROOT
BRANCH   6  10
HETATM   10  C   UNL     1      -9.313  16.483  69.067  1.00  0.00    -0.239 C  
BRANCH  10  11
HETATM   11  C   UNL     1     -10.411  15.572  69.562  1.00  0.00    -0.271 A  
HETATM   12  C   UNL     1     -10.449  14.226  69.168  1.00  0.00    -0.170 A  
HETATM   13  C   UNL     1     -11.481  13.396  69.609  1.00  0.00    -0.207 A  
HETATM   14  C   UNL     1     -12.472  13.888  70.458  1.00  0.00    -0.422 A  
HETATM   15  I   UNL     1     -11.546  11.411  68.991  1.00  0.00    -0.451 I  
HETATM   16  C   UNL     1     -12.424  15.217  70.877  1.00  0.00    -0.446 A  
HETATM   17  C   UNL     1     -11.397  16.054  70.436  1.00  0.00    -0.405 A  
ENDBRANCH  10  11
ENDBRANCH   6  10
TORSDOF 2
ENDMDL
MODEL      162
REMARK 921   NORMALIZED FREE ENERGY PREDICTED BY IDOCK:   -3.07 KCAL/MOL
REMARK 922        TOTAL FREE ENERGY PREDICTED BY IDOCK:   -3.57 KCAL/MOL
REMARK 923 INTER-LIGAND FREE ENERGY PREDICTED BY IDOCK:   -3.60 KCAL/MOL
REMARK 924 INTRA-LIGAND FREE ENERGY PREDICTED BY IDOCK:    0.03 KCAL/MOL
REMARK 927      BINDING AFFINITY PREDICTED BY RF-SCORE:    0.00 PKD
ROOT
HETATM    1  N   UNL     1     -12.312  14.485  63.208  1.00  0.00    -0.821 NA 
HETATM    2  C   UNL     1     -11.778  13.598  64.074  1.00  0.00    -0.364 C  
HETATM    3  H1  UNL     1     -11.594  14.922  62.631  1.00  0.00     0.000 HD 
HETATM    4  H2  UNL     1     -13.308  14.692  63.140  1.00  0.00     0.000 HD 
HETATM    5  N   UNL     1     -12.728  13.020  64.839  1.00  0.00    -0.706 NA 
HETATM    6  N   UNL     1     -10.514  13.390  64.050  1.00  0.00    -0.612 NA 
HETATM    7  H1  UNL     1     -12.325  12.349  65.493  1.00  0.00     0.000 HD 
HETATM    8  H2  UNL     1     -13.724  13.227  64.770  1.00  0.00     0.000 HD 
HETATM    9  H   UNL     1      -9.906  13.912  63.419  1.00  0.00     0.000 HD 
ENDROOT
BRANCH   6  10
HETATM   10  C   UNL     1      -9.973  12.382  64.954  1.00  0.00    -0.184 C  
BRANCH  10  11
HETATM   11  C   UNL     1      -9.343  13.009  66.175  1.00  0.00    -0.092 A  
HETATM   12  C   UNL     1      -8.170  12.471  66.725  1.00  0.00     0.003 A  
HETATM   13  C   UNL     1      -7.607  13.041  67.868  1.00  0.00    -0.144 A  
HETATM   14  C   UNL     1      -8.193  14.157  68.465  1.00  0.00    -0.146 A  
HETATM   15  I   UNL     1      -5.887  12.215  68.695  1.00  0.00    -0.064 I  
HETATM   16  C   UNL     1      -9.343  14.714  67.907  1.00  0.00    -0.198 A  
HETATM   17  C   UNL     1      -9.913  14.147  66.765  1.00  0.00    -0.267 A  
ENDBRANCH  10  11
ENDBRANCH   6  10
TORSDOF 2
ENDMDL
MODEL      163
REMARK 921   NORMALIZED FREE ENERGY PREDICTED BY IDOCK:   -3.07 KCAL/MOL
REMARK 922        TOTAL FREE ENERGY PREDICTED BY IDOCK:   -3.57 KCAL/MOL
REMARK 923 INTER-LIGAND FREE ENERGY PREDICTED BY IDOCK:   -3.42 KCAL/MOL
REMARK 924 INTRA-LIGAND FREE ENERGY PREDICTED BY IDOCK:   -0.15 KCAL/MOL
REMARK 927      BINDING AFFINITY PREDICTED BY RF-SCORE:    0.00 PKD
ROOT
HETATM    1  N   UNL     1      -8.863   6.523  69.071  1.00  0.00    -0.131 NA 
HETATM    2  C   UNL     1     -10.011   7.128  69.441  1.00  0.00    -0.164 C  
HETATM    3  H1  UNL     1      -8.065   7.152  69.152  1.00  0.00     0.000 HD 
HETATM    4  H2  UNL     1      -8.802   5.557  68.750  1.00  0.00     0.000 HD 
HETATM    5  N   UNL     1     -11.068   6.295  69.334  1.00  0.00    -0.379 NA 
HETATM    6  N   UNL     1      -9.968   8.337  69.863  1.00  0.00    -0.187 NA 
HETATM    7  H1  UNL     1     -11.935   6.753  69.615  1.00  0.00     0.000 HD 
HETATM    8  H2  UNL     1     -11.006   5.329  69.014  1.00  0.00     0.000 HD 
HETATM    9  H   UNL     1      -9.090   8.858  69.882  1.00  0.00     0.000 HD 
ENDROOT
BRANCH   6  10
HETATM   10  C   UNL     1     -11.213   8.946  70.315  1.00  0.00    -0.197 C  
BRANCH  10  11
HETATM   11  C   UNL     1     -11.433  10.300  69.683  1.00  0.00    -0.297 A  
HETATM   12  C   UNL     1     -11.728  11.416  70.479  1.00  0.00    -0.296 A  
HETATM   13  C   UNL     1     -11.955  12.660  69.886  1.00  0.00    -0.295 A  
HETATM   14  C   UNL     1     -11.873  12.809  68.501  1.00  0.00    -0.345 A  
HETATM   15  I   UNL     1     -12.426  14.301  71.073  1.00  0.00    -0.475 I  
HETATM   16  C   UNL     1     -11.551  11.710  67.706  1.00  0.00    -0.359 A  
HETATM   17  C   UNL     1     -11.327  10.463  68.293  1.00  0.00    -0.292 A  
ENDBRANCH  10  11
ENDBRANCH   6  10
TORSDOF 2
ENDMDL
MODEL      164
REMARK 921   NORMALIZED FREE ENERGY PREDICTED BY IDOCK:   -3.05 KCAL/MOL
REMARK 922        TOTAL FREE ENERGY PREDICTED BY IDOCK:   -3.55 KCAL/MOL
REMARK 923 INTER-LIGAND FREE ENERGY PREDICTED BY IDOCK:   -3.45 KCAL/MOL
REMARK 924 INTRA-LIGAND FREE ENERGY PREDICTED BY IDOCK:   -0.10 KCAL/MOL
REMARK 927      BINDING AFFINITY PREDICTED BY RF-SCORE:    0.00 PKD
ROOT
HETATM    1  N   UNL     1      -8.741  17.076  65.851  1.00  0.00    -0.533 NA 
HETATM    2  C   UNL     1      -9.683  16.135  66.066  1.00  0.00    -0.344 C  
HETATM    3  H1  UNL     1      -8.079  16.785  65.131  1.00  0.00     0.000 HD 
HETATM    4  H2  UNL     1      -8.695  17.967  66.345  1.00  0.00     0.000 HD 
HETATM    5  N   UNL     1     -10.559  16.519  67.019  1.00  0.00    -0.292 NA 
HETATM    6  N   UNL     1      -9.666  15.065  65.362  1.00  0.00    -0.421 NA 
HETATM    7  H1  UNL     1     -11.272  15.808  67.181  1.00  0.00     0.000 HD 
HETATM    8  H2  UNL     1     -10.514  17.410  67.513  1.00  0.00     0.000 HD 
HETATM    9  H   UNL     1      -8.930  14.899  64.675  1.00  0.00     0.000 HD 
ENDROOT
BRANCH   6  10
HETATM   10  C   UNL     1     -10.732  14.093  65.572  1.00  0.00    -0.324 C  
BRANCH  10  11
HETATM   11  C   UNL     1     -10.204  12.807  66.163  1.00  0.00    -0.286 A  
HETATM   12  C   UNL     1      -9.055  12.814  66.967  1.00  0.00    -0.220 A  
HETATM   13  C   UNL     1      -8.558  11.618  67.489  1.00  0.00    -0.149 A  
HETATM   14  C   UNL     1      -9.206  10.411  67.234  1.00  0.00    -0.157 A  
HETATM   15  I   UNL     1      -6.833  11.636  68.652  1.00  0.00    -0.098 I  
HETATM   16  C   UNL     1     -10.366  10.400  66.460  1.00  0.00    -0.287 A  
HETATM   17  C   UNL     1     -10.866  11.592  65.931  1.00  0.00    -0.339 A  
ENDBRANCH  10  11
ENDBRANCH   6  10
TORSDOF 2
ENDMDL
MODEL      165
REMARK 921   NORMALIZED FREE ENERGY PREDICTED BY IDOCK:   -3.03 KCAL/MOL
REMARK 922        TOTAL FREE ENERGY PREDICTED BY IDOCK:   -3.53 KCAL/MOL
REMARK 923 INTER-LIGAND FREE ENERGY PREDICTED BY IDOCK:   -3.33 KCAL/MOL
REMARK 924 INTRA-LIGAND FREE ENERGY PREDICTED BY IDOCK:   -0.20 KCAL/MOL
REMARK 927      BINDING AFFINITY PREDICTED BY RF-SCORE:    0.00 PKD
ROOT
HETATM    1  N   UNL     1      -9.474   8.907  65.781  1.00  0.00    -0.379 NA 
HETATM    2  C   UNL     1      -9.811   7.638  66.092  1.00  0.00     0.114 C  
HETATM    3  H1  UNL     1     -10.139   9.576  66.168  1.00  0.00     0.000 HD 
HETATM    4  H2  UNL     1      -8.657   9.164  65.228  1.00  0.00     0.000 HD 
HETATM    5  N   UNL     1      -8.931   6.752  65.579  1.00  0.00    -0.367 NA 
HETATM    6  N   UNL     1     -10.841   7.430  66.825  1.00  0.00    -0.521 NA 
HETATM    7  H1  UNL     1      -9.186   5.792  65.815  1.00  0.00     0.000 HD 
HETATM    8  H2  UNL     1      -8.114   7.009  65.026  1.00  0.00     0.000 HD 
HETATM    9  H   UNL     1     -11.429   8.203  67.138  1.00  0.00     0.000 HD 
ENDROOT
BRANCH   6  10
HETATM   10  C   UNL     1     -11.146   6.054  67.197  1.00  0.00    -0.157 C  
BRANCH  10  11
HETATM   11  C   UNL     1     -10.660   5.733  68.590  1.00  0.00    -0.305 A  
HETATM   12  C   UNL     1     -11.091   6.494  69.687  1.00  0.00    -0.435 A  
HETATM   13  C   UNL     1     -10.617   6.208  70.968  1.00  0.00    -0.246 A  
HETATM   14  C   UNL     1      -9.727   5.154  71.175  1.00  0.00    -0.235 A  
HETATM   15  I   UNL     1     -11.237   7.364  72.582  1.00  0.00    -0.342 I  
HETATM   16  C   UNL     1      -9.317   4.375  70.094  1.00  0.00    -0.225 A  
HETATM   17  C   UNL     1      -9.784   4.659  68.809  1.00  0.00    -0.230 A  
ENDBRANCH  10  11
ENDBRANCH   6  10
TORSDOF 2
ENDMDL
MODEL      166
REMARK 921   NORMALIZED FREE ENERGY PREDICTED BY IDOCK:   -3.03 KCAL/MOL
REMARK 922        TOTAL FREE ENERGY PREDICTED BY IDOCK:   -3.52 KCAL/MOL
REMARK 923 INTER-LIGAND FREE ENERGY PREDICTED BY IDOCK:   -3.39 KCAL/MOL
REMARK 924 INTRA-LIGAND FREE ENERGY PREDICTED BY IDOCK:   -0.14 KCAL/MOL
REMARK 927      BINDING AFFINITY PREDICTED BY RF-SCORE:    0.00 PKD
ROOT
HETATM    1  N   UNL     1      -9.769  15.097  66.056  1.00  0.00    -0.308 NA 
HETATM    2  C   UNL     1     -10.631  14.130  66.435  1.00  0.00    -0.280 C  
HETATM    3  H1  UNL     1      -9.005  14.720  65.497  1.00  0.00     0.000 HD 
HETATM    4  H2  UNL     1      -9.870  16.082  66.300  1.00  0.00     0.000 HD 
HETATM    5  N   UNL     1     -11.642  14.629  67.176  1.00  0.00    -0.375 NA 
HETATM    6  N   UNL     1     -10.426  12.928  66.042  1.00  0.00    -0.272 NA 
HETATM    7  H1  UNL     1     -12.293  13.898  67.462  1.00  0.00     0.000 HD 
HETATM    8  H2  UNL     1     -11.742  15.614  67.419  1.00  0.00     0.000 HD 
HETATM    9  H   UNL     1      -9.605  12.687  65.486  1.00  0.00     0.000 HD 
ENDROOT
BRANCH   6  10
HETATM   10  C   UNL     1     -11.406  11.914  66.413  1.00  0.00    -0.339 C  
BRANCH  10  11
HETATM   11  C   UNL     1     -10.800  10.853  67.301  1.00  0.00    -0.342 A  
HETATM   12  C   UNL     1     -10.900   9.496  66.957  1.00  0.00    -0.125 A  
HETATM   13  C   UNL     1     -10.360   8.519  67.795  1.00  0.00    -0.237 A  
HETATM   14  C   UNL     1      -9.701   8.880  68.970  1.00  0.00    -0.171 A  
HETATM   15  I   UNL     1     -10.544   6.510  67.292  1.00  0.00    -0.490 I  
HETATM   16  C   UNL     1      -9.573  10.228  69.303  1.00  0.00    -0.239 A  
HETATM   17  C   UNL     1     -10.115  11.210  68.472  1.00  0.00    -0.208 A  
ENDBRANCH  10  11
ENDBRANCH   6  10
TORSDOF 2
ENDMDL
MODEL      167
REMARK 921   NORMALIZED FREE ENERGY PREDICTED BY IDOCK:   -3.01 KCAL/MOL
REMARK 922        TOTAL FREE ENERGY PREDICTED BY IDOCK:   -3.50 KCAL/MOL
REMARK 923 INTER-LIGAND FREE ENERGY PREDICTED BY IDOCK:   -3.37 KCAL/MOL
REMARK 924 INTRA-LIGAND FREE ENERGY PREDICTED BY IDOCK:   -0.13 KCAL/MOL
REMARK 927      BINDING AFFINITY PREDICTED BY RF-SCORE:    0.00 PKD
ROOT
HETATM    1  N   UNL     1     -11.309   5.045  65.733  1.00  0.00    -0.812 NA 
HETATM    2  C   UNL     1     -10.695   5.972  66.498  1.00  0.00    -0.161 C  
HETATM    3  H1  UNL     1     -12.102   4.625  66.218  1.00  0.00     0.000 HD 
HETATM    4  H2  UNL     1     -11.018   4.797  64.788  1.00  0.00     0.000 HD 
HETATM    5  N   UNL     1      -9.646   6.528  65.857  1.00  0.00    -0.388 NA 
HETATM    6  N   UNL     1     -11.168   6.231  67.660  1.00  0.00    -0.594 NA 
HETATM    7  H1  UNL     1      -9.181   7.228  66.435  1.00  0.00     0.000 HD 
HETATM    8  H2  UNL     1      -9.354   6.279  64.912  1.00  0.00     0.000 HD 
HETATM    9  H   UNL     1     -11.972   5.720  68.028  1.00  0.00     0.000 HD 
ENDROOT
BRANCH   6  10
HETATM   10  C   UNL     1     -10.522   7.280  68.441  1.00  0.00    -0.195 C  
BRANCH  10  11
HETATM   11  C   UNL     1      -9.706   6.707  69.575  1.00  0.00    -0.156 A  
HETATM   12  C   UNL     1     -10.149   6.829  70.901  1.00  0.00    -0.207 A  
HETATM   13  C   UNL     1      -9.377   6.320  71.947  1.00  0.00    -0.149 A  
HETATM   14  C   UNL     1      -8.171   5.670  71.685  1.00  0.00    -0.119 A  
HETATM   15  I   UNL     1     -10.026   6.536  73.911  1.00  0.00    -0.386 I  
HETATM   16  C   UNL     1      -7.739   5.520  70.368  1.00  0.00    -0.085 A  
HETATM   17  C   UNL     1      -8.504   6.031  69.317  1.00  0.00    -0.115 A  
ENDBRANCH  10  11
ENDBRANCH   6  10
TORSDOF 2
ENDMDL
MODEL      168
REMARK 921   NORMALIZED FREE ENERGY PREDICTED BY IDOCK:   -3.00 KCAL/MOL
REMARK 922        TOTAL FREE ENERGY PREDICTED BY IDOCK:   -3.49 KCAL/MOL
REMARK 923 INTER-LIGAND FREE ENERGY PREDICTED BY IDOCK:   -3.28 KCAL/MOL
REMARK 924 INTRA-LIGAND FREE ENERGY PREDICTED BY IDOCK:   -0.20 KCAL/MOL
REMARK 927      BINDING AFFINITY PREDICTED BY RF-SCORE:    0.00 PKD
ROOT
HETATM    1  N   UNL     1      -9.928   9.756  70.783  1.00  0.00    -0.339 NA 
HETATM    2  C   UNL     1     -10.690   8.771  70.263  1.00  0.00    -0.227 C  
HETATM    3  H1  UNL     1      -9.502   9.472  71.666  1.00  0.00     0.000 HD 
HETATM    4  H2  UNL     1      -9.795  10.668  70.349  1.00  0.00     0.000 HD 
HETATM    5  N   UNL     1     -11.254   9.146  69.095  1.00  0.00    -0.438 NA 
HETATM    6  N   UNL     1     -10.758   7.648  70.876  1.00  0.00    -0.232 NA 
HETATM    7  H1  UNL     1     -11.830   8.401  68.702  1.00  0.00     0.000 HD 
HETATM    8  H2  UNL     1     -11.121  10.059  68.661  1.00  0.00     0.000 HD 
HETATM    9  H   UNL     1     -10.282   7.504  71.767  1.00  0.00     0.000 HD 
ENDROOT
BRANCH   6  10
HETATM   10  C   UNL     1     -11.539   6.582  70.260  1.00  0.00    -0.409 C  
BRANCH  10  11
HETATM   11  C   UNL     1     -10.651   5.543  69.615  1.00  0.00    -0.375 A  
HETATM   12  C   UNL     1     -10.484   5.517  68.223  1.00  0.00    -0.225 A  
HETATM   13  C   UNL     1      -9.682   4.539  67.631  1.00  0.00    -0.157 A  
HETATM   14  C   UNL     1      -9.027   3.591  68.417  1.00  0.00    -0.181 A  
HETATM   15  I   UNL     1      -9.468   4.490  65.563  1.00  0.00    -0.185 I  
HETATM   16  C   UNL     1      -9.166   3.629  69.804  1.00  0.00    -0.217 A  
HETATM   17  C   UNL     1      -9.969   4.602  70.401  1.00  0.00    -0.300 A  
ENDBRANCH  10  11
ENDBRANCH   6  10
TORSDOF 2
ENDMDL
MODEL      169
REMARK 921   NORMALIZED FREE ENERGY PREDICTED BY IDOCK:   -3.00 KCAL/MOL
REMARK 922        TOTAL FREE ENERGY PREDICTED BY IDOCK:   -3.48 KCAL/MOL
REMARK 923 INTER-LIGAND FREE ENERGY PREDICTED BY IDOCK:   -3.35 KCAL/MOL
REMARK 924 INTRA-LIGAND FREE ENERGY PREDICTED BY IDOCK:   -0.13 KCAL/MOL
REMARK 927      BINDING AFFINITY PREDICTED BY RF-SCORE:    0.00 PKD
ROOT
HETATM    1  N   UNL     1     -12.397  14.436  67.358  1.00  0.00    -0.600 NA 
HETATM    2  C   UNL     1     -12.167  13.496  66.417  1.00  0.00    -0.400 C  
HETATM    3  H1  UNL     1     -12.176  14.092  68.292  1.00  0.00     0.000 HD 
HETATM    4  H2  UNL     1     -12.747  15.372  67.160  1.00  0.00     0.000 HD 
HETATM    5  N   UNL     1     -12.461  13.951  65.181  1.00  0.00    -0.528 NA 
HETATM    6  N   UNL     1     -11.692  12.361  66.775  1.00  0.00    -0.484 NA 
HETATM    7  H1  UNL     1     -12.287  13.240  64.469  1.00  0.00     0.000 HD 
HETATM    8  H2  UNL     1     -12.811  14.887  64.983  1.00  0.00     0.000 HD 
HETATM    9  H   UNL     1     -11.525  12.146  67.759  1.00  0.00     0.000 HD 
ENDROOT
BRANCH   6  10
HETATM   10  C   UNL     1     -11.395  11.387  65.732  1.00  0.00    -0.008 C  
BRANCH  10  11
HETATM   11  C   UNL     1     -10.102  10.656  66.004  1.00  0.00    -0.308 A  
HETATM   12  C   UNL     1     -10.111   9.286  66.307  1.00  0.00    -0.322 A  
HETATM   13  C   UNL     1      -8.914   8.621  66.582  1.00  0.00    -0.145 A  
HETATM   14  C   UNL     1      -7.700   9.305  66.541  1.00  0.00    -0.093 A  
HETATM   15  I   UNL     1      -8.942   6.598  67.063  1.00  0.00    -0.148 I  
HETATM   16  C   UNL     1      -7.681  10.660  66.212  1.00  0.00    -0.143 A  
HETATM   17  C   UNL     1      -8.875  11.332  65.940  1.00  0.00    -0.174 A  
ENDBRANCH  10  11
ENDBRANCH   6  10
TORSDOF 2
ENDMDL
MODEL      170
REMARK 921   NORMALIZED FREE ENERGY PREDICTED BY IDOCK:   -2.98 KCAL/MOL
REMARK 922        TOTAL FREE ENERGY PREDICTED BY IDOCK:   -3.47 KCAL/MOL
REMARK 923 INTER-LIGAND FREE ENERGY PREDICTED BY IDOCK:   -3.33 KCAL/MOL
REMARK 924 INTRA-LIGAND FREE ENERGY PREDICTED BY IDOCK:   -0.14 KCAL/MOL
REMARK 927      BINDING AFFINITY PREDICTED BY RF-SCORE:    0.00 PKD
ROOT
HETATM    1  N   UNL     1     -11.081   8.674  69.532  1.00  0.00    -0.438 NA 
HETATM    2  C   UNL     1     -11.535   9.943  69.462  1.00  0.00    -0.068 C  
HETATM    3  H1  UNL     1     -10.295   8.522  68.900  1.00  0.00     0.000 HD 
HETATM    4  H2  UNL     1     -11.475   7.957  70.141  1.00  0.00     0.000 HD 
HETATM    5  N   UNL     1     -12.575  10.145  70.298  1.00  0.00    -0.530 NA 
HETATM    6  N   UNL     1     -10.942  10.773  68.687  1.00  0.00    -0.220 NA 
HETATM    7  H1  UNL     1     -12.918  11.104  70.245  1.00  0.00     0.000 HD 
HETATM    8  H2  UNL     1     -12.969   9.427  70.906  1.00  0.00     0.000 HD 
HETATM    9  H   UNL     1     -10.164  10.478  68.095  1.00  0.00     0.000 HD 
ENDROOT
BRANCH   6  10
HETATM   10  C   UNL     1     -11.413  12.153  68.677  1.00  0.00    -0.296 C  
BRANCH  10  11
HETATM   11  C   UNL     1     -11.467  12.713  67.275  1.00  0.00    -0.402 A  
HETATM   12  C   UNL     1     -11.002  14.010  67.010  1.00  0.00    -0.302 A  
HETATM   13  C   UNL     1     -11.078  14.530  65.717  1.00  0.00    -0.324 A  
HETATM   14  C   UNL     1     -11.598  13.764  64.674  1.00  0.00    -0.396 A  
HETATM   15  I   UNL     1     -10.418  16.466  65.342  1.00  0.00     0.059 I  
HETATM   16  C   UNL     1     -12.035  12.463  64.925  1.00  0.00    -0.458 A  
HETATM   17  C   UNL     1     -11.966  11.938  66.217  1.00  0.00     0.045 A  
ENDBRANCH  10  11
ENDBRANCH   6  10
TORSDOF 2
ENDMDL
MODEL      171
REMARK 921   NORMALIZED FREE ENERGY PREDICTED BY IDOCK:   -2.98 KCAL/MOL
REMARK 922        TOTAL FREE ENERGY PREDICTED BY IDOCK:   -3.47 KCAL/MOL
REMARK 923 INTER-LIGAND FREE ENERGY PREDICTED BY IDOCK:   -3.31 KCAL/MOL
REMARK 924 INTRA-LIGAND FREE ENERGY PREDICTED BY IDOCK:   -0.15 KCAL/MOL
REMARK 927      BINDING AFFINITY PREDICTED BY RF-SCORE:    0.00 PKD
ROOT
HETATM    1  N   UNL     1      -8.074   8.784  72.512  1.00  0.00    -0.388 NA 
HETATM    2  C   UNL     1      -9.025   7.968  73.013  1.00  0.00    -0.248 C  
HETATM    3  H1  UNL     1      -8.211   8.951  71.516  1.00  0.00     0.000 HD 
HETATM    4  H2  UNL     1      -7.313   9.184  73.062  1.00  0.00     0.000 HD 
HETATM    5  N   UNL     1      -8.844   7.747  74.332  1.00  0.00    -0.445 NA 
HETATM    6  N   UNL     1      -9.956   7.551  72.238  1.00  0.00    -0.175 NA 
HETATM    7  H1  UNL     1      -9.563   7.130  74.710  1.00  0.00     0.000 HD 
HETATM    8  H2  UNL     1      -8.083   8.146  74.881  1.00  0.00     0.000 HD 
HETATM    9  H   UNL     1      -9.964   7.792  71.246  1.00  0.00     0.000 HD 
ENDROOT
BRANCH   6  10
HETATM   10  C   UNL     1     -11.005   6.722  72.819  1.00  0.00    -0.270 C  
BRANCH  10  11
HETATM   11  C   UNL     1     -10.684   5.251  72.697  1.00  0.00    -0.290 A  
HETATM   12  C   UNL     1     -10.035   4.758  71.555  1.00  0.00    -0.263 A  
HETATM   13  C   UNL     1      -9.763   3.394  71.438  1.00  0.00    -0.164 A  
HETATM   14  C   UNL     1     -10.116   2.511  72.459  1.00  0.00    -0.232 A  
HETATM   15  I   UNL     1      -8.832   2.669  69.726  1.00  0.00    -0.187 I  
HETATM   16  C   UNL     1     -10.735   2.999  73.609  1.00  0.00    -0.295 A  
HETATM   17  C   UNL     1     -11.013   4.362  73.731  1.00  0.00    -0.357 A  
ENDBRANCH  10  11
ENDBRANCH   6  10
TORSDOF 2
ENDMDL
MODEL      172
REMARK 921   NORMALIZED FREE ENERGY PREDICTED BY IDOCK:   -2.95 KCAL/MOL
REMARK 922        TOTAL FREE ENERGY PREDICTED BY IDOCK:   -3.44 KCAL/MOL
REMARK 923 INTER-LIGAND FREE ENERGY PREDICTED BY IDOCK:   -3.31 KCAL/MOL
REMARK 924 INTRA-LIGAND FREE ENERGY PREDICTED BY IDOCK:   -0.13 KCAL/MOL
REMARK 927      BINDING AFFINITY PREDICTED BY RF-SCORE:    0.00 PKD
ROOT
HETATM    1  N   UNL     1     -11.199   4.622  65.295  1.00  0.00    -0.991 NA 
HETATM    2  C   UNL     1     -10.346   5.208  66.161  1.00  0.00    -0.236 C  
HETATM    3  H1  UNL     1     -11.634   5.307  64.677  1.00  0.00     0.000 HD 
HETATM    4  H2  UNL     1     -11.385   3.620  65.261  1.00  0.00     0.000 HD 
HETATM    5  N   UNL     1      -9.770   4.302  66.979  1.00  0.00    -0.209 NA 
HETATM    6  N   UNL     1     -10.161   6.474  66.091  1.00  0.00    -0.408 NA 
HETATM    7  H1  UNL     1      -9.125   4.745  67.633  1.00  0.00     0.000 HD 
HETATM    8  H2  UNL     1      -9.956   3.300  66.945  1.00  0.00     0.000 HD 
HETATM    9  H   UNL     1     -10.678   7.046  65.422  1.00  0.00     0.000 HD 
ENDROOT
BRANCH   6  10
HETATM   10  C   UNL     1      -9.188   7.072  66.997  1.00  0.00    -0.147 C  
BRANCH  10  11
HETATM   11  C   UNL     1      -9.090   8.566  66.802  1.00  0.00    -0.186 A  
HETATM   12  C   UNL     1      -7.940   9.261  67.206  1.00  0.00    -0.106 A  
HETATM   13  C   UNL     1      -7.866  10.646  67.045  1.00  0.00    -0.117 A  
HETATM   14  C   UNL     1      -8.923  11.349  66.469  1.00  0.00    -0.192 A  
HETATM   15  I   UNL     1      -6.170  11.670  67.678  1.00  0.00    -0.108 I  
HETATM   16  C   UNL     1     -10.057  10.661  66.039  1.00  0.00    -0.308 A  
HETATM   17  C   UNL     1     -10.139   9.276  66.200  1.00  0.00    -0.304 A  
ENDBRANCH  10  11
ENDBRANCH   6  10
TORSDOF 2
ENDMDL
MODEL      173
REMARK 921   NORMALIZED FREE ENERGY PREDICTED BY IDOCK:   -2.95 KCAL/MOL
REMARK 922        TOTAL FREE ENERGY PREDICTED BY IDOCK:   -3.43 KCAL/MOL
REMARK 923 INTER-LIGAND FREE ENERGY PREDICTED BY IDOCK:   -3.29 KCAL/MOL
REMARK 924 INTRA-LIGAND FREE ENERGY PREDICTED BY IDOCK:   -0.15 KCAL/MOL
REMARK 927      BINDING AFFINITY PREDICTED BY RF-SCORE:    0.00 PKD
ROOT
HETATM    1  N   UNL     1     -11.562  11.535  62.991  1.00  0.00    -0.856 NA 
HETATM    2  C   UNL     1     -11.201  12.174  64.124  1.00  0.00    -0.368 C  
HETATM    3  H1  UNL     1     -11.586  10.524  63.123  1.00  0.00     0.000 HD 
HETATM    4  H2  UNL     1     -11.782  12.004  62.113  1.00  0.00     0.000 HD 
HETATM    5  N   UNL     1     -11.169  13.512  63.949  1.00  0.00    -0.574 NA 
HETATM    6  N   UNL     1     -10.981  11.486  65.182  1.00  0.00    -0.267 NA 
HETATM    7  H1  UNL     1     -10.897  13.995  64.806  1.00  0.00     0.000 HD 
HETATM    8  H2  UNL     1     -11.389  13.981  63.071  1.00  0.00     0.000 HD 
HETATM    9  H   UNL     1     -11.033  10.467  65.168  1.00  0.00     0.000 HD 
ENDROOT
BRANCH   6  10
HETATM   10  C   UNL     1     -10.654  12.206  66.407  1.00  0.00    -0.241 C  
BRANCH  10  11
HETATM   11  C   UNL     1      -9.539  11.531  67.169  1.00  0.00    -0.189 A  
HETATM   12  C   UNL     1      -9.308  10.155  67.020  1.00  0.00    -0.178 A  
HETATM   13  C   UNL     1      -8.291   9.533  67.747  1.00  0.00    -0.118 A  
HETATM   14  C   UNL     1      -7.485  10.272  68.612  1.00  0.00    -0.086 A  
HETATM   15  I   UNL     1      -7.980   7.486  67.544  1.00  0.00    -0.118 I  
HETATM   16  C   UNL     1      -7.690  11.645  68.743  1.00  0.00    -0.111 A  
HETATM   17  C   UNL     1      -8.708  12.273  68.022  1.00  0.00    -0.181 A  
ENDBRANCH  10  11
ENDBRANCH   6  10
TORSDOF 2
ENDMDL
MODEL      174
REMARK 921   NORMALIZED FREE ENERGY PREDICTED BY IDOCK:   -2.95 KCAL/MOL
REMARK 922        TOTAL FREE ENERGY PREDICTED BY IDOCK:   -3.43 KCAL/MOL
REMARK 923 INTER-LIGAND FREE ENERGY PREDICTED BY IDOCK:   -3.32 KCAL/MOL
REMARK 924 INTRA-LIGAND FREE ENERGY PREDICTED BY IDOCK:   -0.11 KCAL/MOL
REMARK 927      BINDING AFFINITY PREDICTED BY RF-SCORE:    0.00 PKD
ROOT
HETATM    1  N   UNL     1     -12.382   6.668  71.423  1.00  0.00    -0.339 NA 
HETATM    2  C   UNL     1     -11.455   6.553  70.449  1.00  0.00    -0.404 C  
HETATM    3  H1  UNL     1     -13.302   6.888  71.040  1.00  0.00     0.000 HD 
HETATM    4  H2  UNL     1     -12.188   6.551  72.417  1.00  0.00     0.000 HD 
HETATM    5  N   UNL     1     -10.238   6.264  70.956  1.00  0.00    -0.188 NA 
HETATM    6  N   UNL     1     -11.817   6.686  69.227  1.00  0.00    -0.530 NA 
HETATM    7  H1  UNL     1      -9.537   6.176  70.220  1.00  0.00     0.000 HD 
HETATM    8  H2  UNL     1     -10.044   6.146  71.950  1.00  0.00     0.000 HD 
HETATM    9  H   UNL     1     -12.781   6.918  68.986  1.00  0.00     0.000 HD 
ENDROOT
BRANCH   6  10
HETATM   10  C   UNL     1     -10.807   6.495  68.193  1.00  0.00    -0.295 C  
BRANCH  10  11
HETATM   11  C   UNL     1     -10.481   7.791  67.488  1.00  0.00    -0.338 A  
HETATM   12  C   UNL     1      -9.673   7.791  66.342  1.00  0.00    -0.219 A  
HETATM   13  C   UNL     1      -9.354   8.994  65.710  1.00  0.00    -0.236 A  
HETATM   14  C   UNL     1      -9.848  10.204  66.199  1.00  0.00    -0.297 A  
HETATM   15  I   UNL     1      -8.127   8.987  64.030  1.00  0.00    -0.160 I  
HETATM   16  C   UNL     1     -10.676  10.207  67.321  1.00  0.00    -0.316 A  
HETATM   17  C   UNL     1     -10.995   9.008  67.960  1.00  0.00     0.002 A  
ENDBRANCH  10  11
ENDBRANCH   6  10
TORSDOF 2
ENDMDL
MODEL      175
REMARK 921   NORMALIZED FREE ENERGY PREDICTED BY IDOCK:   -2.94 KCAL/MOL
REMARK 922        TOTAL FREE ENERGY PREDICTED BY IDOCK:   -3.43 KCAL/MOL
REMARK 923 INTER-LIGAND FREE ENERGY PREDICTED BY IDOCK:   -3.26 KCAL/MOL
REMARK 924 INTRA-LIGAND FREE ENERGY PREDICTED BY IDOCK:   -0.17 KCAL/MOL
REMARK 927      BINDING AFFINITY PREDICTED BY RF-SCORE:    0.00 PKD
ROOT
HETATM    1  N   UNL     1      -8.671   8.527  63.843  1.00  0.00    -0.413 NA 
HETATM    2  C   UNL     1      -8.768   8.724  65.175  1.00  0.00    -0.167 C  
HETATM    3  H1  UNL     1      -8.323   9.358  63.366  1.00  0.00     0.000 HD 
HETATM    4  H2  UNL     1      -8.915   7.656  63.373  1.00  0.00     0.000 HD 
HETATM    5  N   UNL     1      -9.229   7.623  65.806  1.00  0.00    -0.393 NA 
HETATM    6  N   UNL     1      -8.399   9.848  65.665  1.00  0.00    -0.132 NA 
HETATM    7  H1  UNL     1      -9.301   7.772  66.813  1.00  0.00     0.000 HD 
HETATM    8  H2  UNL     1      -9.473   6.752  65.335  1.00  0.00     0.000 HD 
HETATM    9  H   UNL     1      -8.076  10.606  65.062  1.00  0.00     0.000 HD 
ENDROOT
BRANCH   6  10
HETATM   10  C   UNL     1      -8.456  10.012  67.113  1.00  0.00    -0.125 C  
BRANCH  10  11
HETATM   11  C   UNL     1      -9.685  10.779  67.538  1.00  0.00    -0.188 A  
HETATM   12  C   UNL     1     -10.295  10.515  68.774  1.00  0.00    -0.208 A  
HETATM   13  C   UNL     1     -11.446  11.210  69.150  1.00  0.00    -0.298 A  
HETATM   14  C   UNL     1     -11.990  12.184  68.313  1.00  0.00    -0.248 A  
HETATM   15  I   UNL     1     -12.360  10.787  70.969  1.00  0.00    -0.462 I  
HETATM   16  C   UNL     1     -11.373  12.472  67.096  1.00  0.00    -0.381 A  
HETATM   17  C   UNL     1     -10.224  11.777  66.712  1.00  0.00    -0.240 A  
ENDBRANCH  10  11
ENDBRANCH   6  10
TORSDOF 2
ENDMDL
MODEL      176
REMARK 921   NORMALIZED FREE ENERGY PREDICTED BY IDOCK:   -2.93 KCAL/MOL
REMARK 922        TOTAL FREE ENERGY PREDICTED BY IDOCK:   -3.41 KCAL/MOL
REMARK 923 INTER-LIGAND FREE ENERGY PREDICTED BY IDOCK:   -3.29 KCAL/MOL
REMARK 924 INTRA-LIGAND FREE ENERGY PREDICTED BY IDOCK:   -0.12 KCAL/MOL
REMARK 927      BINDING AFFINITY PREDICTED BY RF-SCORE:    0.00 PKD
ROOT
HETATM    1  N   UNL     1     -10.798   8.266  68.354  1.00  0.00    -0.437 NA 
HETATM    2  C   UNL     1     -10.306   9.183  67.495  1.00  0.00    -0.261 C  
HETATM    3  H1  UNL     1     -11.322   8.706  69.110  1.00  0.00     0.000 HD 
HETATM    4  H2  UNL     1     -10.662   7.260  68.260  1.00  0.00     0.000 HD 
HETATM    5  N   UNL     1      -9.611   8.601  66.494  1.00  0.00    -0.216 NA 
HETATM    6  N   UNL     1     -10.568  10.422  67.690  1.00  0.00    -0.236 NA 
HETATM    7  H1  UNL     1      -9.240   9.294  65.844  1.00  0.00     0.000 HD 
HETATM    8  H2  UNL     1      -9.475   7.595  66.400  1.00  0.00     0.000 HD 
HETATM    9  H   UNL     1     -11.104  10.725  68.504  1.00  0.00     0.000 HD 
ENDROOT
BRANCH   6  10
HETATM   10  C   UNL     1     -10.077  11.385  66.712  1.00  0.00    -0.216 C  
BRANCH  10  11
HETATM   11  C   UNL     1     -10.224  12.804  67.205  1.00  0.00    -0.235 A  
HETATM   12  C   UNL     1      -9.353  13.807  66.755  1.00  0.00    -0.276 A  
HETATM   13  C   UNL     1      -9.479  15.112  67.234  1.00  0.00    -0.210 A  
HETATM   14  C   UNL     1     -10.480  15.437  68.149  1.00  0.00    -0.247 A  
HETATM   15  I   UNL     1      -8.160  16.584  66.585  1.00  0.00    -0.342 I  
HETATM   16  C   UNL     1     -11.368  14.451  68.578  1.00  0.00    -0.307 A  
HETATM   17  C   UNL     1     -11.245  13.143  68.106  1.00  0.00    -0.304 A  
ENDBRANCH  10  11
ENDBRANCH   6  10
TORSDOF 2
ENDMDL
MODEL      177
REMARK 921   NORMALIZED FREE ENERGY PREDICTED BY IDOCK:   -2.92 KCAL/MOL
REMARK 922        TOTAL FREE ENERGY PREDICTED BY IDOCK:   -3.40 KCAL/MOL
REMARK 923 INTER-LIGAND FREE ENERGY PREDICTED BY IDOCK:   -3.25 KCAL/MOL
REMARK 924 INTRA-LIGAND FREE ENERGY PREDICTED BY IDOCK:   -0.15 KCAL/MOL
REMARK 927      BINDING AFFINITY PREDICTED BY RF-SCORE:    0.00 PKD
ROOT
HETATM    1  N   UNL     1      -5.548  16.863  69.238  1.00  0.00    -0.149 NA 
HETATM    2  C   UNL     1      -6.186  16.670  68.064  1.00  0.00    -0.130 C  
HETATM    3  H1  UNL     1      -6.206  16.928  70.015  1.00  0.00     0.000 HD 
HETATM    4  H2  UNL     1      -4.536  16.936  69.335  1.00  0.00     0.000 HD 
HETATM    5  N   UNL     1      -5.316  16.585  67.036  1.00  0.00    -0.306 NA 
HETATM    6  N   UNL     1      -7.462  16.557  68.062  1.00  0.00    -0.152 NA 
HETATM    7  H1  UNL     1      -5.798  16.438  66.149  1.00  0.00     0.000 HD 
HETATM    8  H2  UNL     1      -4.303  16.657  67.134  1.00  0.00     0.000 HD 
HETATM    9  H   UNL     1      -8.001  16.654  68.923  1.00  0.00     0.000 HD 
ENDROOT
BRANCH   6  10
HETATM   10  C   UNL     1      -8.120  16.287  66.789  1.00  0.00    -0.264 C  
BRANCH  10  11
HETATM   11  C   UNL     1      -9.189  15.229  66.928  1.00  0.00    -0.255 A  
HETATM   12  C   UNL     1      -9.812  14.696  65.790  1.00  0.00    -0.359 A  
HETATM   13  C   UNL     1     -10.818  13.737  65.927  1.00  0.00    -0.283 A  
HETATM   14  C   UNL     1     -11.200  13.287  67.191  1.00  0.00    -0.327 A  
HETATM   15  I   UNL     1     -11.759  12.977  64.235  1.00  0.00    -0.557 I  
HETATM   16  C   UNL     1     -10.564  13.792  68.324  1.00  0.00    -0.262 A  
HETATM   17  C   UNL     1      -9.560  14.754  68.195  1.00  0.00    -0.209 A  
ENDBRANCH  10  11
ENDBRANCH   6  10
TORSDOF 2
ENDMDL
MODEL      178
REMARK 921   NORMALIZED FREE ENERGY PREDICTED BY IDOCK:   -2.92 KCAL/MOL
REMARK 922        TOTAL FREE ENERGY PREDICTED BY IDOCK:   -3.40 KCAL/MOL
REMARK 923 INTER-LIGAND FREE ENERGY PREDICTED BY IDOCK:   -3.28 KCAL/MOL
REMARK 924 INTRA-LIGAND FREE ENERGY PREDICTED BY IDOCK:   -0.13 KCAL/MOL
REMARK 927      BINDING AFFINITY PREDICTED BY RF-SCORE:    0.00 PKD
ROOT
HETATM    1  N   UNL     1     -10.450   5.398  65.857  1.00  0.00    -0.466 NA 
HETATM    2  C   UNL     1      -9.636   6.451  66.084  1.00  0.00     0.006 C  
HETATM    3  H1  UNL     1     -11.425   5.687  65.786  1.00  0.00     0.000 HD 
HETATM    4  H2  UNL     1     -10.129   4.434  65.769  1.00  0.00     0.000 HD 
HETATM    5  N   UNL     1      -8.345   6.068  66.179  1.00  0.00    -0.121 NA 
HETATM    6  N   UNL     1     -10.142   7.626  66.142  1.00  0.00    -0.413 NA 
HETATM    7  H1  UNL     1      -7.730   6.864  66.350  1.00  0.00     0.000 HD 
HETATM    8  H2  UNL     1      -8.025   5.104  66.091  1.00  0.00     0.000 HD 
HETATM    9  H   UNL     1     -11.150   7.770  66.062  1.00  0.00     0.000 HD 
ENDROOT
BRANCH   6  10
HETATM   10  C   UNL     1      -9.233   8.751  66.325  1.00  0.00    -0.207 C  
BRANCH  10  11
HETATM   11  C   UNL     1      -9.935   9.940  66.937  1.00  0.00    -0.268 A  
HETATM   12  C   UNL     1      -9.761  11.223  66.397  1.00  0.00    -0.238 A  
HETATM   13  C   UNL     1     -10.393  12.321  66.983  1.00  0.00    -0.219 A  
HETATM   14  C   UNL     1     -11.215  12.154  68.097  1.00  0.00    -0.320 A  
HETATM   15  I   UNL     1     -10.100  14.224  66.195  1.00  0.00    -0.352 I  
HETATM   16  C   UNL     1     -11.417  10.878  68.621  1.00  0.00    -0.380 A  
HETATM   17  C   UNL     1     -10.784   9.775  68.042  1.00  0.00    -0.298 A  
ENDBRANCH  10  11
ENDBRANCH   6  10
TORSDOF 2
ENDMDL
MODEL      179
REMARK 921   NORMALIZED FREE ENERGY PREDICTED BY IDOCK:   -2.92 KCAL/MOL
REMARK 922        TOTAL FREE ENERGY PREDICTED BY IDOCK:   -3.40 KCAL/MOL
REMARK 923 INTER-LIGAND FREE ENERGY PREDICTED BY IDOCK:   -3.20 KCAL/MOL
REMARK 924 INTRA-LIGAND FREE ENERGY PREDICTED BY IDOCK:   -0.20 KCAL/MOL
REMARK 927      BINDING AFFINITY PREDICTED BY RF-SCORE:    0.00 PKD
ROOT
HETATM    1  N   UNL     1      -8.403  14.647  69.331  1.00  0.00    -0.381 NA 
HETATM    2  C   UNL     1      -8.877  14.183  68.155  1.00  0.00    -0.183 C  
HETATM    3  H1  UNL     1      -9.089  14.541  70.078  1.00  0.00     0.000 HD 
HETATM    4  H2  UNL     1      -7.476  15.052  69.457  1.00  0.00     0.000 HD 
HETATM    5  N   UNL     1      -7.969  14.323  67.166  1.00  0.00    -0.349 NA 
HETATM    6  N   UNL     1     -10.046  13.660  68.119  1.00  0.00    -0.239 NA 
HETATM    7  H1  UNL     1      -8.327  13.972  66.277  1.00  0.00     0.000 HD 
HETATM    8  H2  UNL     1      -7.042  14.728  67.292  1.00  0.00     0.000 HD 
HETATM    9  H   UNL     1     -10.635  13.629  68.952  1.00  0.00     0.000 HD 
ENDROOT
BRANCH   6  10
HETATM   10  C   UNL     1     -10.508  13.112  66.850  1.00  0.00    -0.256 C  
BRANCH  10  11
HETATM   11  C   UNL     1     -10.272  11.622  66.768  1.00  0.00    -0.248 A  
HETATM   12  C   UNL     1      -9.335  11.100  65.864  1.00  0.00    -0.235 A  
HETATM   13  C   UNL     1      -9.140   9.720  65.776  1.00  0.00    -0.177 A  
HETATM   14  C   UNL     1      -9.859   8.850  66.595  1.00  0.00    -0.332 A  
HETATM   15  I   UNL     1      -7.772   8.955  64.410  1.00  0.00    -0.143 I  
HETATM   16  C   UNL     1     -10.772   9.364  67.515  1.00  0.00    -0.290 A  
HETATM   17  C   UNL     1     -10.974  10.743  67.606  1.00  0.00    -0.365 A  
ENDBRANCH  10  11
ENDBRANCH   6  10
TORSDOF 2
ENDMDL
MODEL      180
REMARK 921   NORMALIZED FREE ENERGY PREDICTED BY IDOCK:   -2.91 KCAL/MOL
REMARK 922        TOTAL FREE ENERGY PREDICTED BY IDOCK:   -3.39 KCAL/MOL
REMARK 923 INTER-LIGAND FREE ENERGY PREDICTED BY IDOCK:   -3.19 KCAL/MOL
REMARK 924 INTRA-LIGAND FREE ENERGY PREDICTED BY IDOCK:   -0.20 KCAL/MOL
REMARK 927      BINDING AFFINITY PREDICTED BY RF-SCORE:    0.00 PKD
ROOT
HETATM    1  N   UNL     1      -9.475   8.921  65.796  1.00  0.00    -0.379 NA 
HETATM    2  C   UNL     1      -9.808   7.668  66.170  1.00  0.00     0.114 C  
HETATM    3  H1  UNL     1     -10.153   9.605  66.132  1.00  0.00     0.000 HD 
HETATM    4  H2  UNL     1      -8.649   9.155  65.245  1.00  0.00     0.000 HD 
HETATM    5  N   UNL     1      -8.911   6.763  65.724  1.00  0.00    -0.300 NA 
HETATM    6  N   UNL     1     -10.851   7.492  66.893  1.00  0.00    -0.542 NA 
HETATM    7  H1  UNL     1      -9.162   5.816  66.008  1.00  0.00     0.000 HD 
HETATM    8  H2  UNL     1      -8.085   6.998  65.174  1.00  0.00     0.000 HD 
HETATM    9  H   UNL     1     -11.451   8.276  67.151  1.00  0.00     0.000 HD 
ENDROOT
BRANCH   6  10
HETATM   10  C   UNL     1     -11.152   6.136  67.335  1.00  0.00    -0.225 C  
BRANCH  10  11
HETATM   11  C   UNL     1     -10.765   5.921  68.778  1.00  0.00    -0.354 A  
HETATM   12  C   UNL     1      -9.889   4.884  69.132  1.00  0.00    -0.263 A  
HETATM   13  C   UNL     1      -9.555   4.675  70.472  1.00  0.00    -0.198 A  
HETATM   14  C   UNL     1     -10.072   5.504  71.468  1.00  0.00    -0.260 A  
HETATM   15  I   UNL     1      -8.283   3.113  70.989  1.00  0.00    -0.101 I  
HETATM   16  C   UNL     1     -10.919   6.555  71.120  1.00  0.00    -0.314 A  
HETATM   17  C   UNL     1     -11.261   6.766  69.782  1.00  0.00    -0.368 A  
ENDBRANCH  10  11
ENDBRANCH   6  10
TORSDOF 2
ENDMDL
MODEL      181
REMARK 921   NORMALIZED FREE ENERGY PREDICTED BY IDOCK:   -2.90 KCAL/MOL
REMARK 922        TOTAL FREE ENERGY PREDICTED BY IDOCK:   -3.38 KCAL/MOL
REMARK 923 INTER-LIGAND FREE ENERGY PREDICTED BY IDOCK:   -3.18 KCAL/MOL
REMARK 924 INTRA-LIGAND FREE ENERGY PREDICTED BY IDOCK:   -0.20 KCAL/MOL
REMARK 927      BINDING AFFINITY PREDICTED BY RF-SCORE:    0.00 PKD
ROOT
HETATM    1  N   UNL     1     -12.271  10.601  68.745  1.00  0.00    -0.808 NA 
HETATM    2  C   UNL     1     -11.444  11.169  67.842  1.00  0.00    -0.284 C  
HETATM    3  H1  UNL     1     -11.765   9.984  69.379  1.00  0.00     0.000 HD 
HETATM    4  H2  UNL     1     -13.276  10.768  68.787  1.00  0.00     0.000 HD 
HETATM    5  N   UNL     1     -12.114  11.985  67.001  1.00  0.00    -0.545 NA 
HETATM    6  N   UNL     1     -10.190  10.916  67.903  1.00  0.00    -0.174 NA 
HETATM    7  H1  UNL     1     -11.489  12.415  66.319  1.00  0.00     0.000 HD 
HETATM    8  H2  UNL     1     -13.119  12.152  67.043  1.00  0.00     0.000 HD 
HETATM    9  H   UNL     1      -9.817  10.263  68.593  1.00  0.00     0.000 HD 
ENDROOT
BRANCH   6  10
HETATM   10  C   UNL     1      -9.312  11.591  66.954  1.00  0.00    -0.181 C  
BRANCH  10  11
HETATM   11  C   UNL     1      -8.899  10.675  65.827  1.00  0.00    -0.198 A  
HETATM   12  C   UNL     1      -7.892   9.718  66.022  1.00  0.00    -0.107 A  
HETATM   13  C   UNL     1      -7.498   8.891  64.969  1.00  0.00    -0.097 A  
HETATM   14  C   UNL     1      -8.112   8.994  63.720  1.00  0.00    -0.164 A  
HETATM   15  I   UNL     1      -5.980   7.499  65.259  1.00  0.00    -0.038 I  
HETATM   16  C   UNL     1      -9.134   9.922  63.528  1.00  0.00    -0.289 A  
HETATM   17  C   UNL     1      -9.530  10.756  64.576  1.00  0.00    -0.297 A  
ENDBRANCH  10  11
ENDBRANCH   6  10
TORSDOF 2
ENDMDL
MODEL      182
REMARK 921   NORMALIZED FREE ENERGY PREDICTED BY IDOCK:   -2.89 KCAL/MOL
REMARK 922        TOTAL FREE ENERGY PREDICTED BY IDOCK:   -3.36 KCAL/MOL
REMARK 923 INTER-LIGAND FREE ENERGY PREDICTED BY IDOCK:   -3.21 KCAL/MOL
REMARK 924 INTRA-LIGAND FREE ENERGY PREDICTED BY IDOCK:   -0.16 KCAL/MOL
REMARK 927      BINDING AFFINITY PREDICTED BY RF-SCORE:    0.00 PKD
ROOT
HETATM    1  N   UNL     1     -11.109   7.171  72.091  1.00  0.00    -0.240 NA 
HETATM    2  C   UNL     1     -11.664   8.053  71.233  1.00  0.00    -0.282 C  
HETATM    3  H1  UNL     1     -10.282   7.559  72.543  1.00  0.00     0.000 HD 
HETATM    4  H2  UNL     1     -11.472   6.234  72.265  1.00  0.00     0.000 HD 
HETATM    5  N   UNL     1     -12.759   7.539  70.634  1.00  0.00    -0.524 NA 
HETATM    6  N   UNL     1     -11.146   9.218  71.118  1.00  0.00    -0.310 NA 
HETATM    7  H1  UNL     1     -13.179   8.206  69.986  1.00  0.00     0.000 HD 
HETATM    8  H2  UNL     1     -13.122   6.602  70.808  1.00  0.00     0.000 HD 
HETATM    9  H   UNL     1     -10.300   9.472  71.631  1.00  0.00     0.000 HD 
ENDROOT
BRANCH   6  10
HETATM   10  C   UNL     1     -11.802  10.172  70.231  1.00  0.00    -0.261 C  
BRANCH  10  11
HETATM   11  C   UNL     1     -10.935  10.515  69.043  1.00  0.00    -0.289 A  
HETATM   12  C   UNL     1     -10.364  11.791  68.925  1.00  0.00    -0.151 A  
HETATM   13  C   UNL     1      -9.585  12.109  67.811  1.00  0.00    -0.195 A  
HETATM   14  C   UNL     1      -9.351  11.160  66.816  1.00  0.00    -0.193 A  
HETATM   15  I   UNL     1      -8.771  14.014  67.629  1.00  0.00    -0.241 I  
HETATM   16  C   UNL     1      -9.891   9.880  66.942  1.00  0.00    -0.252 A  
HETATM   17  C   UNL     1     -10.675   9.557  68.051  1.00  0.00    -0.266 A  
ENDBRANCH  10  11
ENDBRANCH   6  10
TORSDOF 2
ENDMDL
MODEL      183
REMARK 921   NORMALIZED FREE ENERGY PREDICTED BY IDOCK:   -2.85 KCAL/MOL
REMARK 922        TOTAL FREE ENERGY PREDICTED BY IDOCK:   -3.32 KCAL/MOL
REMARK 923 INTER-LIGAND FREE ENERGY PREDICTED BY IDOCK:   -3.18 KCAL/MOL
REMARK 924 INTRA-LIGAND FREE ENERGY PREDICTED BY IDOCK:   -0.14 KCAL/MOL
REMARK 927      BINDING AFFINITY PREDICTED BY RF-SCORE:    0.00 PKD
ROOT
HETATM    1  N   UNL     1     -12.380  14.206  67.041  1.00  0.00    -0.571 NA 
HETATM    2  C   UNL     1     -11.457  13.629  67.839  1.00  0.00    -0.314 C  
HETATM    3  H1  UNL     1     -12.483  13.701  66.162  1.00  0.00     0.000 HD 
HETATM    4  H2  UNL     1     -12.907  15.044  67.287  1.00  0.00     0.000 HD 
HETATM    5  N   UNL     1     -11.320  14.299  69.003  1.00  0.00    -0.256 NA 
HETATM    6  N   UNL     1     -10.879  12.556  67.445  1.00  0.00    -0.234 NA 
HETATM    7  H1  UNL     1     -10.623  13.862  69.607  1.00  0.00     0.000 HD 
HETATM    8  H2  UNL     1     -11.848  15.136  69.248  1.00  0.00     0.000 HD 
HETATM    9  H   UNL     1     -11.074  12.160  66.525  1.00  0.00     0.000 HD 
ENDROOT
BRANCH   6  10
HETATM   10  C   UNL     1      -9.932  11.919  68.353  1.00  0.00    -0.203 C  
BRANCH  10  11
HETATM   11  C   UNL     1     -10.007  10.413  68.269  1.00  0.00    -0.168 A  
HETATM   12  C   UNL     1      -9.621   9.621  69.361  1.00  0.00    -0.200 A  
HETATM   13  C   UNL     1      -9.669   8.229  69.268  1.00  0.00    -0.177 A  
HETATM   14  C   UNL     1     -10.117   7.613  68.100  1.00  0.00    -0.220 A  
HETATM   15  I   UNL     1      -9.062   7.064  70.880  1.00  0.00    -0.150 I  
HETATM   16  C   UNL     1     -10.530   8.394  67.021  1.00  0.00    -0.375 A  
HETATM   17  C   UNL     1     -10.480   9.787  67.106  1.00  0.00    -0.316 A  
ENDBRANCH  10  11
ENDBRANCH   6  10
TORSDOF 2
ENDMDL
MODEL      184
REMARK 921   NORMALIZED FREE ENERGY PREDICTED BY IDOCK:   -2.85 KCAL/MOL
REMARK 922        TOTAL FREE ENERGY PREDICTED BY IDOCK:   -3.32 KCAL/MOL
REMARK 923 INTER-LIGAND FREE ENERGY PREDICTED BY IDOCK:   -3.14 KCAL/MOL
REMARK 924 INTRA-LIGAND FREE ENERGY PREDICTED BY IDOCK:   -0.18 KCAL/MOL
REMARK 927      BINDING AFFINITY PREDICTED BY RF-SCORE:    0.00 PKD
ROOT
HETATM    1  N   UNL     1     -12.225  10.838  68.290  1.00  0.00    -0.708 NA 
HETATM    2  C   UNL     1     -11.412  10.335  69.243  1.00  0.00    -0.160 C  
HETATM    3  H1  UNL     1     -12.976  10.189  68.059  1.00  0.00     0.000 HD 
HETATM    4  H2  UNL     1     -12.103  11.753  67.857  1.00  0.00     0.000 HD 
HETATM    5  N   UNL     1     -10.417  11.195  69.549  1.00  0.00    -0.439 NA 
HETATM    6  N   UNL     1     -11.679   9.188  69.745  1.00  0.00    -0.365 NA 
HETATM    7  H1  UNL     1      -9.803  10.814  70.270  1.00  0.00     0.000 HD 
HETATM    8  H2  UNL     1     -10.296  12.109  69.116  1.00  0.00     0.000 HD 
HETATM    9  H   UNL     1     -12.468   8.635  69.407  1.00  0.00     0.000 HD 
ENDROOT
BRANCH   6  10
HETATM   10  C   UNL     1     -10.820   8.696  70.816  1.00  0.00    -0.230 C  
BRANCH  10  11
HETATM   11  C   UNL     1     -10.108   7.424  70.419  1.00  0.00    -0.193 A  
HETATM   12  C   UNL     1      -8.882   7.479  69.739  1.00  0.00    -0.141 A  
HETATM   13  C   UNL     1      -8.242   6.300  69.353  1.00  0.00    -0.114 A  
HETATM   14  C   UNL     1      -8.803   5.059  69.653  1.00  0.00    -0.121 A  
HETATM   15  I   UNL     1      -6.441   6.393  68.316  1.00  0.00    -0.055 I  
HETATM   16  C   UNL     1     -10.007   4.997  70.354  1.00  0.00    -0.317 A  
HETATM   17  C   UNL     1     -10.654   6.172  70.739  1.00  0.00    -0.299 A  
ENDBRANCH  10  11
ENDBRANCH   6  10
TORSDOF 2
ENDMDL
MODEL      185
REMARK 921   NORMALIZED FREE ENERGY PREDICTED BY IDOCK:   -2.85 KCAL/MOL
REMARK 922        TOTAL FREE ENERGY PREDICTED BY IDOCK:   -3.32 KCAL/MOL
REMARK 923 INTER-LIGAND FREE ENERGY PREDICTED BY IDOCK:   -3.21 KCAL/MOL
REMARK 924 INTRA-LIGAND FREE ENERGY PREDICTED BY IDOCK:   -0.11 KCAL/MOL
REMARK 927      BINDING AFFINITY PREDICTED BY RF-SCORE:    0.00 PKD
ROOT
HETATM    1  N   UNL     1     -12.299  14.466  67.274  1.00  0.00    -0.594 NA 
HETATM    2  C   UNL     1     -11.805  13.714  66.269  1.00  0.00    -0.392 C  
HETATM    3  H1  UNL     1     -12.217  13.991  68.173  1.00  0.00     0.000 HD 
HETATM    4  H2  UNL     1     -12.704  15.394  67.151  1.00  0.00     0.000 HD 
HETATM    5  N   UNL     1     -11.914  14.343  65.080  1.00  0.00    -0.396 NA 
HETATM    6  N   UNL     1     -11.286  12.575  66.542  1.00  0.00    -0.314 NA 
HETATM    7  H1  UNL     1     -11.540  13.774  64.319  1.00  0.00     0.000 HD 
HETATM    8  H2  UNL     1     -12.319  15.271  64.957  1.00  0.00     0.000 HD 
HETATM    9  H   UNL     1     -11.280  12.214  67.497  1.00  0.00     0.000 HD 
ENDROOT
BRANCH   6  10
HETATM   10  C   UNL     1     -10.705  11.810  65.445  1.00  0.00    -0.283 C  
BRANCH  10  11
HETATM   11  C   UNL     1      -9.740  10.762  65.947  1.00  0.00    -0.272 A  
HETATM   12  C   UNL     1      -8.356  10.966  65.849  1.00  0.00    -0.149 A  
HETATM   13  C   UNL     1      -7.469   9.982  66.292  1.00  0.00    -0.106 A  
HETATM   14  C   UNL     1      -7.948   8.798  66.850  1.00  0.00    -0.098 A  
HETATM   15  I   UNL     1      -5.419  10.281  66.111  1.00  0.00    -0.094 I  
HETATM   16  C   UNL     1      -9.323   8.601  66.978  1.00  0.00    -0.202 A  
HETATM   17  C   UNL     1     -10.215   9.579  66.533  1.00  0.00    -0.307 A  
ENDBRANCH  10  11
ENDBRANCH   6  10
TORSDOF 2
ENDMDL
MODEL      186
REMARK 921   NORMALIZED FREE ENERGY PREDICTED BY IDOCK:   -2.84 KCAL/MOL
REMARK 922        TOTAL FREE ENERGY PREDICTED BY IDOCK:   -3.32 KCAL/MOL
REMARK 923 INTER-LIGAND FREE ENERGY PREDICTED BY IDOCK:   -3.15 KCAL/MOL
REMARK 924 INTRA-LIGAND FREE ENERGY PREDICTED BY IDOCK:   -0.16 KCAL/MOL
REMARK 927      BINDING AFFINITY PREDICTED BY RF-SCORE:    0.00 PKD
ROOT
HETATM    1  N   UNL     1      -9.284   4.822  73.881  1.00  0.00    -0.114 NA 
HETATM    2  C   UNL     1      -9.391   5.905  73.082  1.00  0.00    -0.139 C  
HETATM    3  H1  UNL     1      -9.996   4.125  73.664  1.00  0.00     0.000 HD 
HETATM    4  H2  UNL     1      -8.579   4.715  74.610  1.00  0.00     0.000 HD 
HETATM    5  N   UNL     1      -8.449   6.828  73.369  1.00  0.00    -0.117 NA 
HETATM    6  N   UNL     1     -10.294   5.919  72.173  1.00  0.00    -0.195 NA 
HETATM    7  H1  UNL     1      -8.530   7.646  72.765  1.00  0.00     0.000 HD 
HETATM    8  H2  UNL     1      -7.744   6.720  74.098  1.00  0.00     0.000 HD 
HETATM    9  H   UNL     1     -10.954   5.147  72.074  1.00  0.00     0.000 HD 
ENDROOT
BRANCH   6  10
HETATM   10  C   UNL     1     -10.348   7.073  71.285  1.00  0.00    -0.202 C  
BRANCH  10  11
HETATM   11  C   UNL     1     -11.652   7.822  71.423  1.00  0.00    -0.305 A  
HETATM   12  C   UNL     1     -11.666   9.225  71.449  1.00  0.00    -0.431 A  
HETATM   13  C   UNL     1     -12.873   9.910  71.602  1.00  0.00    -0.436 A  
HETATM   14  C   UNL     1     -14.075   9.212  71.714  1.00  0.00    -0.313 A  
HETATM   15  I   UNL     1     -12.879  11.989  71.673  1.00  0.00     0.067 I  
HETATM   16  C   UNL     1     -14.071   7.819  71.660  1.00  0.00    -0.533 A  
HETATM   17  C   UNL     1     -12.867   7.127  71.511  1.00  0.00    -0.434 A  
ENDBRANCH  10  11
ENDBRANCH   6  10
TORSDOF 2
ENDMDL
MODEL      187
REMARK 921   NORMALIZED FREE ENERGY PREDICTED BY IDOCK:   -2.84 KCAL/MOL
REMARK 922        TOTAL FREE ENERGY PREDICTED BY IDOCK:   -3.31 KCAL/MOL
REMARK 923 INTER-LIGAND FREE ENERGY PREDICTED BY IDOCK:   -3.15 KCAL/MOL
REMARK 924 INTRA-LIGAND FREE ENERGY PREDICTED BY IDOCK:   -0.16 KCAL/MOL
REMARK 927      BINDING AFFINITY PREDICTED BY RF-SCORE:    0.00 PKD
ROOT
HETATM    1  N   UNL     1      -9.361   2.433  66.728  1.00  0.00    -0.370 NA 
HETATM    2  C   UNL     1      -9.480   3.717  66.331  1.00  0.00    -0.183 C  
HETATM    3  H1  UNL     1     -10.106   2.169  67.372  1.00  0.00     0.000 HD 
HETATM    4  H2  UNL     1      -8.619   1.804  66.421  1.00  0.00     0.000 HD 
HETATM    5  N   UNL     1      -8.494   4.066  65.478  1.00  0.00    -0.109 NA 
HETATM    6  N   UNL     1     -10.474   4.408  66.752  1.00  0.00    -0.197 NA 
HETATM    7  H1  UNL     1      -8.584   5.037  65.178  1.00  0.00     0.000 HD 
HETATM    8  H2  UNL     1      -7.752   3.437  65.172  1.00  0.00     0.000 HD 
HETATM    9  H   UNL     1     -11.147   4.015  67.411  1.00  0.00     0.000 HD 
ENDROOT
BRANCH   6  10
HETATM   10  C   UNL     1     -10.612   5.773  66.260  1.00  0.00    -0.058 C  
BRANCH  10  11
HETATM   11  C   UNL     1     -10.611   6.775  67.389  1.00  0.00    -0.372 A  
HETATM   12  C   UNL     1     -10.880   6.365  68.703  1.00  0.00    -0.379 A  
HETATM   13  C   UNL     1     -10.902   7.301  69.739  1.00  0.00    -0.235 A  
HETATM   14  C   UNL     1     -10.641   8.647  69.482  1.00  0.00    -0.218 A  
HETATM   15  I   UNL     1     -11.334   6.687  71.678  1.00  0.00    -0.374 I  
HETATM   16  C   UNL     1     -10.344   9.057  68.183  1.00  0.00    -0.262 A  
HETATM   17  C   UNL     1     -10.324   8.126  67.142  1.00  0.00    -0.391 A  
ENDBRANCH  10  11
ENDBRANCH   6  10
TORSDOF 2
ENDMDL
MODEL      188
REMARK 921   NORMALIZED FREE ENERGY PREDICTED BY IDOCK:   -2.83 KCAL/MOL
REMARK 922        TOTAL FREE ENERGY PREDICTED BY IDOCK:   -3.30 KCAL/MOL
REMARK 923 INTER-LIGAND FREE ENERGY PREDICTED BY IDOCK:   -3.11 KCAL/MOL
REMARK 924 INTRA-LIGAND FREE ENERGY PREDICTED BY IDOCK:   -0.19 KCAL/MOL
REMARK 927      BINDING AFFINITY PREDICTED BY RF-SCORE:    0.00 PKD
ROOT
HETATM    1  N   UNL     1     -11.282   6.451  71.096  1.00  0.00    -0.289 NA 
HETATM    2  C   UNL     1     -10.822   6.394  69.828  1.00  0.00    -0.314 C  
HETATM    3  H1  UNL     1     -12.064   7.100  71.181  1.00  0.00     0.000 HD 
HETATM    4  H2  UNL     1     -10.897   5.912  71.871  1.00  0.00     0.000 HD 
HETATM    5  N   UNL     1      -9.787   5.535  69.715  1.00  0.00    -0.178 NA 
HETATM    6  N   UNL     1     -11.405   7.088  68.923  1.00  0.00    -0.497 NA 
HETATM    7  H1  UNL     1      -9.439   5.492  68.757  1.00  0.00     0.000 HD 
HETATM    8  H2  UNL     1      -9.401   4.997  70.491  1.00  0.00     0.000 HD 
HETATM    9  H   UNL     1     -12.180   7.711  69.155  1.00  0.00     0.000 HD 
ENDROOT
BRANCH   6  10
HETATM   10  C   UNL     1     -10.926   6.961  67.552  1.00  0.00    -0.270 C  
BRANCH  10  11
HETATM   11  C   UNL     1     -10.202   8.205  67.097  1.00  0.00    -0.366 A  
HETATM   12  C   UNL     1     -10.886   9.425  66.986  1.00  0.00    -0.096 A  
HETATM   13  C   UNL     1     -10.216  10.566  66.540  1.00  0.00    -0.231 A  
HETATM   14  C   UNL     1      -8.860  10.510  66.219  1.00  0.00    -0.172 A  
HETATM   15  I   UNL     1     -11.248  12.361  66.347  1.00  0.00    -0.429 I  
HETATM   16  C   UNL     1      -8.167   9.308  66.355  1.00  0.00    -0.111 A  
HETATM   17  C   UNL     1      -8.832   8.162  66.796  1.00  0.00    -0.156 A  
ENDBRANCH  10  11
ENDBRANCH   6  10
TORSDOF 2
ENDMDL
MODEL      189
REMARK 921   NORMALIZED FREE ENERGY PREDICTED BY IDOCK:   -2.82 KCAL/MOL
REMARK 922        TOTAL FREE ENERGY PREDICTED BY IDOCK:   -3.29 KCAL/MOL
REMARK 923 INTER-LIGAND FREE ENERGY PREDICTED BY IDOCK:   -3.18 KCAL/MOL
REMARK 924 INTRA-LIGAND FREE ENERGY PREDICTED BY IDOCK:   -0.12 KCAL/MOL
REMARK 927      BINDING AFFINITY PREDICTED BY RF-SCORE:    0.00 PKD
ROOT
HETATM    1  N   UNL     1     -11.638  11.481  67.141  1.00  0.00    -0.557 NA 
HETATM    2  C   UNL     1     -10.753  10.626  67.695  1.00  0.00    -0.267 C  
HETATM    3  H1  UNL     1     -12.011  12.133  67.831  1.00  0.00     0.000 HD 
HETATM    4  H2  UNL     1     -11.901  11.476  66.156  1.00  0.00     0.000 HD 
HETATM    5  N   UNL     1     -10.259   9.763  66.782  1.00  0.00    -0.232 NA 
HETATM    6  N   UNL     1     -10.469  10.745  68.939  1.00  0.00    -0.194 NA 
HETATM    7  H1  UNL     1      -9.590   9.117  67.201  1.00  0.00     0.000 HD 
HETATM    8  H2  UNL     1     -10.522   9.758  65.797  1.00  0.00     0.000 HD 
HETATM    9  H   UNL     1     -10.931  11.445  69.520  1.00  0.00     0.000 HD 
ENDROOT
BRANCH   6  10
HETATM   10  C   UNL     1      -9.464   9.849  69.497  1.00  0.00    -0.223 C  
BRANCH  10  11
HETATM   11  C   UNL     1     -10.077   8.556  69.979  1.00  0.00    -0.195 A  
HETATM   12  C   UNL     1      -9.404   7.339  69.795  1.00  0.00    -0.150 A  
HETATM   13  C   UNL     1      -9.988   6.144  70.220  1.00  0.00    -0.183 A  
HETATM   14  C   UNL     1     -11.234   6.149  70.846  1.00  0.00    -0.365 A  
HETATM   15  I   UNL     1      -8.997   4.342  69.912  1.00  0.00    -0.208 I  
HETATM   16  C   UNL     1     -11.895   7.358  71.059  1.00  0.00    -0.336 A  
HETATM   17  C   UNL     1     -11.319   8.556  70.632  1.00  0.00    -0.265 A  
ENDBRANCH  10  11
ENDBRANCH   6  10
TORSDOF 2
ENDMDL
MODEL      190
REMARK 921   NORMALIZED FREE ENERGY PREDICTED BY IDOCK:   -2.81 KCAL/MOL
REMARK 922        TOTAL FREE ENERGY PREDICTED BY IDOCK:   -3.27 KCAL/MOL
REMARK 923 INTER-LIGAND FREE ENERGY PREDICTED BY IDOCK:   -3.13 KCAL/MOL
REMARK 924 INTRA-LIGAND FREE ENERGY PREDICTED BY IDOCK:   -0.14 KCAL/MOL
REMARK 927      BINDING AFFINITY PREDICTED BY RF-SCORE:    0.00 PKD
ROOT
HETATM    1  N   UNL     1     -13.951   9.346  71.112  1.00  0.00    -0.408 NA 
HETATM    2  C   UNL     1     -12.723   9.883  70.959  1.00  0.00    -0.334 C  
HETATM    3  H1  UNL     1     -14.045   8.472  70.595  1.00  0.00     0.000 HD 
HETATM    4  H2  UNL     1     -14.693   9.762  71.675  1.00  0.00     0.000 HD 
HETATM    5  N   UNL     1     -12.599  11.040  71.643  1.00  0.00    -0.340 NA 
HETATM    6  N   UNL     1     -11.854   9.257  70.257  1.00  0.00    -0.469 NA 
HETATM    7  H1  UNL     1     -11.670  11.446  71.527  1.00  0.00     0.000 HD 
HETATM    8  H2  UNL     1     -13.341  11.456  72.205  1.00  0.00     0.000 HD 
HETATM    9  H   UNL     1     -12.090   8.385  69.781  1.00  0.00     0.000 HD 
ENDROOT
BRANCH   6  10
HETATM   10  C   UNL     1     -10.516   9.829  70.159  1.00  0.00    -0.286 C  
BRANCH  10  11
HETATM   11  C   UNL     1      -9.959   9.705  68.760  1.00  0.00    -0.184 A  
HETATM   12  C   UNL     1      -8.611   9.374  68.560  1.00  0.00    -0.123 A  
HETATM   13  C   UNL     1      -8.096   9.286  67.265  1.00  0.00    -0.113 A  
HETATM   14  C   UNL     1      -8.917   9.509  66.160  1.00  0.00    -0.191 A  
HETATM   15  I   UNL     1      -6.087   8.828  66.980  1.00  0.00    -0.060 I  
HETATM   16  C   UNL     1     -10.265   9.810  66.352  1.00  0.00    -0.288 A  
HETATM   17  C   UNL     1     -10.785   9.903  67.644  1.00  0.00    -0.339 A  
ENDBRANCH  10  11
ENDBRANCH   6  10
TORSDOF 2
ENDMDL
MODEL      191
REMARK 921   NORMALIZED FREE ENERGY PREDICTED BY IDOCK:   -2.78 KCAL/MOL
REMARK 922        TOTAL FREE ENERGY PREDICTED BY IDOCK:   -3.24 KCAL/MOL
REMARK 923 INTER-LIGAND FREE ENERGY PREDICTED BY IDOCK:   -3.11 KCAL/MOL
REMARK 924 INTRA-LIGAND FREE ENERGY PREDICTED BY IDOCK:   -0.13 KCAL/MOL
REMARK 927      BINDING AFFINITY PREDICTED BY RF-SCORE:    0.00 PKD
ROOT
HETATM    1  N   UNL     1      -6.834   8.951  65.141  1.00  0.00    -0.075 NA 
HETATM    2  C   UNL     1      -8.038   8.479  65.526  1.00  0.00    -0.126 C  
HETATM    3  H1  UNL     1      -6.777   9.964  65.247  1.00  0.00     0.000 HD 
HETATM    4  H2  UNL     1      -6.076   8.368  64.787  1.00  0.00     0.000 HD 
HETATM    5  N   UNL     1      -8.113   7.139  65.385  1.00  0.00    -0.132 NA 
HETATM    6  N   UNL     1      -8.907   9.298  65.990  1.00  0.00    -0.151 NA 
HETATM    7  H1  UNL     1      -9.023   6.782  65.676  1.00  0.00     0.000 HD 
HETATM    8  H2  UNL     1      -7.355   6.556  65.031  1.00  0.00     0.000 HD 
HETATM    9  H   UNL     1      -8.717  10.300  66.031  1.00  0.00     0.000 HD 
ENDROOT
BRANCH   6  10
HETATM   10  C   UNL     1     -10.176   8.753  66.457  1.00  0.00    -0.244 C  
BRANCH  10  11
HETATM   11  C   UNL     1     -10.625   9.408  67.741  1.00  0.00    -0.317 A  
HETATM   12  C   UNL     1     -10.447   8.757  68.971  1.00  0.00    -0.220 A  
HETATM   13  C   UNL     1     -10.887   9.358  70.152  1.00  0.00    -0.249 A  
HETATM   14  C   UNL     1     -11.491  10.614  70.125  1.00  0.00    -0.411 A  
HETATM   15  I   UNL     1     -10.647   8.369  71.966  1.00  0.00    -0.414 I  
HETATM   16  C   UNL     1     -11.645  11.280  68.909  1.00  0.00    -0.386 A  
HETATM   17  C   UNL     1     -11.211  10.683  67.723  1.00  0.00    -0.383 A  
ENDBRANCH  10  11
ENDBRANCH   6  10
TORSDOF 2
ENDMDL
MODEL      192
REMARK 921   NORMALIZED FREE ENERGY PREDICTED BY IDOCK:   -2.76 KCAL/MOL
REMARK 922        TOTAL FREE ENERGY PREDICTED BY IDOCK:   -3.22 KCAL/MOL
REMARK 923 INTER-LIGAND FREE ENERGY PREDICTED BY IDOCK:   -3.10 KCAL/MOL
REMARK 924 INTRA-LIGAND FREE ENERGY PREDICTED BY IDOCK:   -0.12 KCAL/MOL
REMARK 927      BINDING AFFINITY PREDICTED BY RF-SCORE:    0.00 PKD
ROOT
HETATM    1  N   UNL     1      -9.902   6.464  65.989  1.00  0.00    -0.390 NA 
HETATM    2  C   UNL     1      -9.320   5.876  67.055  1.00  0.00    -0.120 C  
HETATM    3  H1  UNL     1     -10.866   6.153  65.871  1.00  0.00     0.000 HD 
HETATM    4  H2  UNL     1      -9.437   7.134  65.378  1.00  0.00     0.000 HD 
HETATM    5  N   UNL     1      -8.043   6.287  67.211  1.00  0.00    -0.109 NA 
HETATM    6  N   UNL     1     -10.010   5.074  67.777  1.00  0.00    -0.160 NA 
HETATM    7  H1  UNL     1      -7.603   5.843  68.017  1.00  0.00     0.000 HD 
HETATM    8  H2  UNL     1      -7.578   6.957  66.600  1.00  0.00     0.000 HD 
HETATM    9  H   UNL     1     -10.974   4.843  67.533  1.00  0.00     0.000 HD 
ENDROOT
BRANCH   6  10
HETATM   10  C   UNL     1      -9.374   4.501  68.958  1.00  0.00    -0.148 C  
BRANCH  10  11
HETATM   11  C   UNL     1     -10.064   4.938  70.228  1.00  0.00    -0.322 A  
HETATM   12  C   UNL     1      -9.804   4.281  71.440  1.00  0.00    -0.260 A  
HETATM   13  C   UNL     1     -10.463   4.674  72.606  1.00  0.00    -0.199 A  
HETATM   14  C   UNL     1     -11.371   5.732  72.583  1.00  0.00    -0.349 A  
HETATM   15  I   UNL     1     -10.096   3.670  74.390  1.00  0.00    -0.261 I  
HETATM   16  C   UNL     1     -11.612   6.409  71.388  1.00  0.00    -0.368 A  
HETATM   17  C   UNL     1     -10.959   6.018  70.218  1.00  0.00    -0.412 A  
ENDBRANCH  10  11
ENDBRANCH   6  10
TORSDOF 2
ENDMDL
MODEL      193
REMARK 921   NORMALIZED FREE ENERGY PREDICTED BY IDOCK:   -2.73 KCAL/MOL
REMARK 922        TOTAL FREE ENERGY PREDICTED BY IDOCK:   -3.19 KCAL/MOL
REMARK 923 INTER-LIGAND FREE ENERGY PREDICTED BY IDOCK:   -3.04 KCAL/MOL
REMARK 924 INTRA-LIGAND FREE ENERGY PREDICTED BY IDOCK:   -0.14 KCAL/MOL
REMARK 927      BINDING AFFINITY PREDICTED BY RF-SCORE:    0.00 PKD
ROOT
HETATM    1  N   UNL     1      -5.615  12.270  68.765  1.00  0.00    -0.053 NA 
HETATM    2  C   UNL     1      -6.652  12.386  67.909  1.00  0.00    -0.097 C  
HETATM    3  H1  UNL     1      -5.924  12.313  69.736  1.00  0.00     0.000 HD 
HETATM    4  H2  UNL     1      -4.644  12.154  68.477  1.00  0.00     0.000 HD 
HETATM    5  N   UNL     1      -6.243  12.330  66.624  1.00  0.00    -0.477 NA 
HETATM    6  N   UNL     1      -7.838  12.492  68.382  1.00  0.00    -0.143 NA 
HETATM    7  H1  UNL     1      -7.027  12.417  65.977  1.00  0.00     0.000 HD 
HETATM    8  H2  UNL     1      -5.272  12.214  66.336  1.00  0.00     0.000 HD 
HETATM    9  H   UNL     1      -8.003  12.531  69.388  1.00  0.00     0.000 HD 
ENDROOT
BRANCH   6  10
HETATM   10  C   UNL     1      -8.945  12.553  67.435  1.00  0.00    -0.188 C  
BRANCH  10  11
HETATM   11  C   UNL     1      -9.917  13.655  67.785  1.00  0.00    -0.235 A  
HETATM   12  C   UNL     1      -9.696  14.966  67.336  1.00  0.00    -0.217 A  
HETATM   13  C   UNL     1     -10.585  15.985  67.684  1.00  0.00    -0.309 A  
HETATM   14  C   UNL     1     -11.707  15.709  68.465  1.00  0.00    -0.339 A  
HETATM   15  I   UNL     1     -10.230  17.930  67.041  1.00  0.00    -0.349 I  
HETATM   16  C   UNL     1     -11.948  14.403  68.890  1.00  0.00    -0.337 A  
HETATM   17  C   UNL     1     -11.061  13.380  68.549  1.00  0.00    -0.299 A  
ENDBRANCH  10  11
ENDBRANCH   6  10
TORSDOF 2
ENDMDL
MODEL      194
REMARK 921   NORMALIZED FREE ENERGY PREDICTED BY IDOCK:   -2.71 KCAL/MOL
REMARK 922        TOTAL FREE ENERGY PREDICTED BY IDOCK:   -3.17 KCAL/MOL
REMARK 923 INTER-LIGAND FREE ENERGY PREDICTED BY IDOCK:   -2.97 KCAL/MOL
REMARK 924 INTRA-LIGAND FREE ENERGY PREDICTED BY IDOCK:   -0.20 KCAL/MOL
REMARK 927      BINDING AFFINITY PREDICTED BY RF-SCORE:    0.00 PKD
ROOT
HETATM    1  N   UNL     1      -9.927   9.769  70.778  1.00  0.00    -0.339 NA 
HETATM    2  C   UNL     1     -10.667   8.810  70.182  1.00  0.00    -0.224 C  
HETATM    3  H1  UNL     1      -9.526   9.440  71.656  1.00  0.00     0.000 HD 
HETATM    4  H2  UNL     1      -9.786  10.704  70.398  1.00  0.00     0.000 HD 
HETATM    5  N   UNL     1     -11.198   9.244  69.020  1.00  0.00    -0.442 NA 
HETATM    6  N   UNL     1     -10.747   7.655  70.732  1.00  0.00    -0.222 NA 
HETATM    7  H1  UNL     1     -11.757   8.520  68.569  1.00  0.00     0.000 HD 
HETATM    8  H2  UNL     1     -11.057  10.180  68.640  1.00  0.00     0.000 HD 
HETATM    9  H   UNL     1     -10.297   7.466  71.628  1.00  0.00     0.000 HD 
ENDROOT
BRANCH   6  10
HETATM   10  C   UNL     1     -11.501   6.620  70.036  1.00  0.00    -0.375 C  
BRANCH  10  11
HETATM   11  C   UNL     1     -10.589   5.632  69.349  1.00  0.00    -0.374 A  
HETATM   12  C   UNL     1      -9.707   4.840  70.100  1.00  0.00    -0.288 A  
HETATM   13  C   UNL     1      -8.848   3.946  69.457  1.00  0.00    -0.090 A  
HETATM   14  C   UNL     1      -8.869   3.819  68.068  1.00  0.00    -0.141 A  
HETATM   15  I   UNL     1      -7.521   2.801  70.576  1.00  0.00    -0.040 I  
HETATM   16  C   UNL     1      -9.764   4.582  67.319  1.00  0.00    -0.221 A  
HETATM   17  C   UNL     1     -10.623   5.481  67.955  1.00  0.00    -0.213 A  
ENDBRANCH  10  11
ENDBRANCH   6  10
TORSDOF 2
ENDMDL
MODEL      195
REMARK 921   NORMALIZED FREE ENERGY PREDICTED BY IDOCK:   -2.71 KCAL/MOL
REMARK 922        TOTAL FREE ENERGY PREDICTED BY IDOCK:   -3.17 KCAL/MOL
REMARK 923 INTER-LIGAND FREE ENERGY PREDICTED BY IDOCK:   -3.02 KCAL/MOL
REMARK 924 INTRA-LIGAND FREE ENERGY PREDICTED BY IDOCK:   -0.15 KCAL/MOL
REMARK 927      BINDING AFFINITY PREDICTED BY RF-SCORE:    0.00 PKD
ROOT
HETATM    1  N   UNL     1      -8.168   3.914  71.861  1.00  0.00    -0.081 NA 
HETATM    2  C   UNL     1      -8.971   4.710  72.598  1.00  0.00    -0.123 C  
HETATM    3  H1  UNL     1      -8.446   3.910  70.879  1.00  0.00     0.000 HD 
HETATM    4  H2  UNL     1      -7.383   3.384  72.237  1.00  0.00     0.000 HD 
HETATM    5  N   UNL     1      -8.605   4.715  73.897  1.00  0.00    -0.103 NA 
HETATM    6  N   UNL     1      -9.908   5.359  72.015  1.00  0.00    -0.164 NA 
HETATM    7  H1  UNL     1      -9.211   5.317  74.455  1.00  0.00     0.000 HD 
HETATM    8  H2  UNL     1      -7.819   4.185  74.274  1.00  0.00     0.000 HD 
HETATM    9  H   UNL     1     -10.081   5.251  71.014  1.00  0.00     0.000 HD 
ENDROOT
BRANCH   6  10
HETATM   10  C   UNL     1     -10.721   6.259  72.825  1.00  0.00    -0.242 C  
BRANCH  10  11
HETATM   11  C   UNL     1     -10.959   7.576  72.126  1.00  0.00    -0.293 A  
HETATM   12  C   UNL     1     -10.040   8.055  71.181  1.00  0.00    -0.221 A  
HETATM   13  C   UNL     1     -10.253   9.286  70.557  1.00  0.00    -0.251 A  
HETATM   14  C   UNL     1     -11.388  10.042  70.852  1.00  0.00    -0.439 A  
HETATM   15  I   UNL     1      -8.867  10.002  69.182  1.00  0.00    -0.197 I  
HETATM   16  C   UNL     1     -12.320   9.558  71.768  1.00  0.00    -0.474 A  
HETATM   17  C   UNL     1     -12.110   8.330  72.399  1.00  0.00    -0.430 A  
ENDBRANCH  10  11
ENDBRANCH   6  10
TORSDOF 2
ENDMDL
MODEL      196
REMARK 921   NORMALIZED FREE ENERGY PREDICTED BY IDOCK:   -2.70 KCAL/MOL
REMARK 922        TOTAL FREE ENERGY PREDICTED BY IDOCK:   -3.15 KCAL/MOL
REMARK 923 INTER-LIGAND FREE ENERGY PREDICTED BY IDOCK:   -3.01 KCAL/MOL
REMARK 924 INTRA-LIGAND FREE ENERGY PREDICTED BY IDOCK:   -0.15 KCAL/MOL
REMARK 927      BINDING AFFINITY PREDICTED BY RF-SCORE:    0.00 PKD
ROOT
HETATM    1  N   UNL     1     -12.019  11.444  67.858  1.00  0.00    -0.644 NA 
HETATM    2  C   UNL     1     -11.265  10.629  68.625  1.00  0.00    -0.278 C  
HETATM    3  H1  UNL     1     -12.501  10.927  67.124  1.00  0.00     0.000 HD 
HETATM    4  H2  UNL     1     -12.096  12.452  67.996  1.00  0.00     0.000 HD 
HETATM    5  N   UNL     1     -10.626  11.313  69.597  1.00  0.00    -0.454 NA 
HETATM    6  N   UNL     1     -11.269   9.370  68.384  1.00  0.00    -0.478 NA 
HETATM    7  H1  UNL     1     -10.057  10.697  70.177  1.00  0.00     0.000 HD 
HETATM    8  H2  UNL     1     -10.704  12.321  69.735  1.00  0.00     0.000 HD 
HETATM    9  H   UNL     1     -11.797   8.985  67.600  1.00  0.00     0.000 HD 
ENDROOT
BRANCH   6  10
HETATM   10  C   UNL     1     -10.495   8.505  69.266  1.00  0.00    -0.215 C  
BRANCH  10  11
HETATM   11  C   UNL     1      -9.577   7.594  68.487  1.00  0.00    -0.149 A  
HETATM   12  C   UNL     1      -9.582   6.211  68.723  1.00  0.00    -0.137 A  
HETATM   13  C   UNL     1      -8.712   5.377  68.017  1.00  0.00    -0.106 A  
HETATM   14  C   UNL     1      -7.845   5.906  67.061  1.00  0.00    -0.102 A  
HETATM   15  I   UNL     1      -8.704   3.333  68.397  1.00  0.00    -0.199 I  
HETATM   16  C   UNL     1      -7.855   7.276  66.802  1.00  0.00    -0.113 A  
HETATM   17  C   UNL     1      -8.719   8.116  67.507  1.00  0.00    -0.129 A  
ENDBRANCH  10  11
ENDBRANCH   6  10
TORSDOF 2
ENDMDL
MODEL      197
REMARK 921   NORMALIZED FREE ENERGY PREDICTED BY IDOCK:   -2.69 KCAL/MOL
REMARK 922        TOTAL FREE ENERGY PREDICTED BY IDOCK:   -3.14 KCAL/MOL
REMARK 923 INTER-LIGAND FREE ENERGY PREDICTED BY IDOCK:   -2.97 KCAL/MOL
REMARK 924 INTRA-LIGAND FREE ENERGY PREDICTED BY IDOCK:   -0.18 KCAL/MOL
REMARK 927      BINDING AFFINITY PREDICTED BY RF-SCORE:    0.00 PKD
ROOT
HETATM    1  N   UNL     1      -6.799   6.892  69.787  1.00  0.00    -0.049 NA 
HETATM    2  C   UNL     1      -8.115   6.898  69.487  1.00  0.00    -0.130 C  
HETATM    3  H1  UNL     1      -6.281   7.557  69.213  1.00  0.00     0.000 HD 
HETATM    4  H2  UNL     1      -6.376   6.298  70.499  1.00  0.00     0.000 HD 
HETATM    5  N   UNL     1      -8.800   6.018  70.246  1.00  0.00    -0.142 NA 
HETATM    6  N   UNL     1      -8.545   7.713  68.597  1.00  0.00    -0.129 NA 
HETATM    7  H1  UNL     1      -9.795   6.023  70.019  1.00  0.00     0.000 HD 
HETATM    8  H2  UNL     1      -8.377   5.423  70.958  1.00  0.00     0.000 HD 
HETATM    9  H   UNL     1      -7.905   8.323  68.087  1.00  0.00     0.000 HD 
ENDROOT
BRANCH   6  10
HETATM   10  C   UNL     1      -9.979   7.742  68.336  1.00  0.00    -0.178 C  
BRANCH  10  11
HETATM   11  C   UNL     1     -10.592   9.062  68.739  1.00  0.00    -0.196 A  
HETATM   12  C   UNL     1     -10.731  10.097  67.802  1.00  0.00    -0.328 A  
HETATM   13  C   UNL     1     -11.276  11.323  68.188  1.00  0.00    -0.286 A  
HETATM   14  C   UNL     1     -11.703  11.526  69.500  1.00  0.00    -0.413 A  
HETATM   15  I   UNL     1     -11.446  12.861  66.799  1.00  0.00    -0.457 I  
HETATM   16  C   UNL     1     -11.595  10.492  70.430  1.00  0.00    -0.430 A  
HETATM   17  C   UNL     1     -11.047   9.265  70.051  1.00  0.00    -0.228 A  
ENDBRANCH  10  11
ENDBRANCH   6  10
TORSDOF 2
ENDMDL
MODEL      198
REMARK 921   NORMALIZED FREE ENERGY PREDICTED BY IDOCK:   -2.68 KCAL/MOL
REMARK 922        TOTAL FREE ENERGY PREDICTED BY IDOCK:   -3.14 KCAL/MOL
REMARK 923 INTER-LIGAND FREE ENERGY PREDICTED BY IDOCK:   -2.99 KCAL/MOL
REMARK 924 INTRA-LIGAND FREE ENERGY PREDICTED BY IDOCK:   -0.15 KCAL/MOL
REMARK 927      BINDING AFFINITY PREDICTED BY RF-SCORE:    0.00 PKD
ROOT
HETATM    1  N   UNL     1      -7.856   2.834  68.426  1.00  0.00    -0.054 NA 
HETATM    2  C   UNL     1      -8.775   3.795  68.194  1.00  0.00    -0.103 C  
HETATM    3  H1  UNL     1      -7.208   3.106  69.165  1.00  0.00     0.000 HD 
HETATM    4  H2  UNL     1      -7.815   1.947  67.925  1.00  0.00     0.000 HD 
HETATM    5  N   UNL     1      -9.632   3.435  67.216  1.00  0.00    -0.333 NA 
HETATM    6  N   UNL     1      -8.756   4.858  68.908  1.00  0.00    -0.088 NA 
HETATM    7  H1  UNL     1     -10.327   4.161  67.040  1.00  0.00     0.000 HD 
HETATM    8  H2  UNL     1      -9.591   2.548  66.715  1.00  0.00     0.000 HD 
HETATM    9  H   UNL     1      -8.035   5.005  69.615  1.00  0.00     0.000 HD 
ENDROOT
BRANCH   6  10
HETATM   10  C   UNL     1      -9.797   5.853  68.678  1.00  0.00    -0.136 C  
BRANCH  10  11
HETATM   11  C   UNL     1     -10.438   6.297  69.971  1.00  0.00    -0.274 A  
HETATM   12  C   UNL     1     -11.019   7.570  70.075  1.00  0.00    -0.252 A  
HETATM   13  C   UNL     1     -11.587   7.985  71.281  1.00  0.00    -0.276 A  
HETATM   14  C   UNL     1     -11.600   7.135  72.386  1.00  0.00    -0.292 A  
HETATM   15  I   UNL     1     -12.416   9.886  71.433  1.00  0.00    -0.552 I  
HETATM   16  C   UNL     1     -11.050   5.858  72.282  1.00  0.00    -0.330 A  
HETATM   17  C   UNL     1     -10.476   5.439  71.080  1.00  0.00    -0.302 A  
ENDBRANCH  10  11
ENDBRANCH   6  10
TORSDOF 2
ENDMDL
MODEL      199
REMARK 921   NORMALIZED FREE ENERGY PREDICTED BY IDOCK:   -2.66 KCAL/MOL
REMARK 922        TOTAL FREE ENERGY PREDICTED BY IDOCK:   -3.11 KCAL/MOL
REMARK 923 INTER-LIGAND FREE ENERGY PREDICTED BY IDOCK:   -2.96 KCAL/MOL
REMARK 924 INTRA-LIGAND FREE ENERGY PREDICTED BY IDOCK:   -0.16 KCAL/MOL
REMARK 927      BINDING AFFINITY PREDICTED BY RF-SCORE:    0.00 PKD
ROOT
HETATM    1  N   UNL     1      -9.563   4.877  64.606  1.00  0.00    -0.358 NA 
HETATM    2  C   UNL     1      -8.796   5.987  64.634  1.00  0.00     0.274 C  
HETATM    3  H1  UNL     1     -10.264   4.888  65.347  1.00  0.00     0.000 HD 
HETATM    4  H2  UNL     1      -9.455   4.122  63.930  1.00  0.00     0.000 HD 
HETATM    5  N   UNL     1      -7.868   5.973  63.655  1.00  0.00    -0.108 NA 
HETATM    6  N   UNL     1      -9.043   6.891  65.508  1.00  0.00    -0.368 NA 
HETATM    7  H1  UNL     1      -7.288   6.812  63.676  1.00  0.00     0.000 HD 
HETATM    8  H2  UNL     1      -7.759   5.217  62.978  1.00  0.00     0.000 HD 
HETATM    9  H   UNL     1      -9.779   6.764  66.204  1.00  0.00     0.000 HD 
ENDROOT
BRANCH   6  10
HETATM   10  C   UNL     1      -8.240   8.107  65.476  1.00  0.00    -0.144 C  
BRANCH  10  11
HETATM   11  C   UNL     1      -9.097   9.336  65.292  1.00  0.00    -0.271 A  
HETATM   12  C   UNL     1      -9.692   9.960  66.398  1.00  0.00    -0.270 A  
HETATM   13  C   UNL     1     -10.504  11.082  66.218  1.00  0.00    -0.254 A  
HETATM   14  C   UNL     1     -10.718  11.603  64.942  1.00  0.00    -0.352 A  
HETATM   15  I   UNL     1     -11.408  11.979  67.862  1.00  0.00    -0.410 I  
HETATM   16  C   UNL     1     -10.106  11.005  63.841  1.00  0.00    -0.414 A  
HETATM   17  C   UNL     1      -9.296   9.881  64.014  1.00  0.00    -0.280 A  
ENDBRANCH  10  11
ENDBRANCH   6  10
TORSDOF 2
ENDMDL
MODEL      200
REMARK 921   NORMALIZED FREE ENERGY PREDICTED BY IDOCK:   -2.66 KCAL/MOL
REMARK 922        TOTAL FREE ENERGY PREDICTED BY IDOCK:   -3.11 KCAL/MOL
REMARK 923 INTER-LIGAND FREE ENERGY PREDICTED BY IDOCK:   -3.05 KCAL/MOL
REMARK 924 INTRA-LIGAND FREE ENERGY PREDICTED BY IDOCK:   -0.06 KCAL/MOL
REMARK 927      BINDING AFFINITY PREDICTED BY RF-SCORE:    0.00 PKD
ROOT
HETATM    1  N   UNL     1      -9.719   7.700  66.276  1.00  0.00    -0.431 NA 
HETATM    2  C   UNL     1     -10.213   6.577  66.839  1.00  0.00    -0.215 C  
HETATM    3  H1  UNL     1      -8.705   7.752  66.373  1.00  0.00     0.000 HD 
HETATM    4  H2  UNL     1     -10.288   8.408  65.813  1.00  0.00     0.000 HD 
HETATM    5  N   UNL     1     -11.555   6.509  66.711  1.00  0.00    -0.621 NA 
HETATM    6  N   UNL     1      -9.402   5.737  67.364  1.00  0.00    -0.111 NA 
HETATM    7  H1  UNL     1     -11.929   5.660  67.136  1.00  0.00     0.000 HD 
HETATM    8  H2  UNL     1     -12.124   7.217  66.248  1.00  0.00     0.000 HD 
HETATM    9  H   UNL     1      -8.399   5.923  67.400  1.00  0.00     0.000 HD 
ENDROOT
BRANCH   6  10
HETATM   10  C   UNL     1      -9.957   4.503  67.909  1.00  0.00    -0.053 C  
BRANCH  10  11
HETATM   11  C   UNL     1      -9.920   4.496  69.419  1.00  0.00    -0.212 A  
HETATM   12  C   UNL     1     -10.062   5.691  70.139  1.00  0.00    -0.293 A  
HETATM   13  C   UNL     1     -10.002   5.680  71.534  1.00  0.00    -0.180 A  
HETATM   14  C   UNL     1      -9.817   4.483  72.225  1.00  0.00    -0.227 A  
HETATM   15  I   UNL     1     -10.180   7.462  72.591  1.00  0.00    -0.373 I  
HETATM   16  C   UNL     1      -9.704   3.287  71.517  1.00  0.00    -0.233 A  
HETATM   17  C   UNL     1      -9.760   3.292  70.121  1.00  0.00    -0.096 A  
ENDBRANCH  10  11
ENDBRANCH   6  10
TORSDOF 2
ENDMDL
MODEL      201
REMARK 921   NORMALIZED FREE ENERGY PREDICTED BY IDOCK:   -2.66 KCAL/MOL
REMARK 922        TOTAL FREE ENERGY PREDICTED BY IDOCK:   -3.11 KCAL/MOL
REMARK 923 INTER-LIGAND FREE ENERGY PREDICTED BY IDOCK:   -2.96 KCAL/MOL
REMARK 924 INTRA-LIGAND FREE ENERGY PREDICTED BY IDOCK:   -0.15 KCAL/MOL
REMARK 927      BINDING AFFINITY PREDICTED BY RF-SCORE:    0.00 PKD
ROOT
HETATM    1  N   UNL     1     -10.932  13.469  66.812  1.00  0.00    -0.289 NA 
HETATM    2  C   UNL     1     -10.855  12.233  66.276  1.00  0.00    -0.278 C  
HETATM    3  H1  UNL     1     -10.414  13.528  67.689  1.00  0.00     0.000 HD 
HETATM    4  H2  UNL     1     -11.443  14.245  66.394  1.00  0.00     0.000 HD 
HETATM    5  N   UNL     1     -11.540  12.154  65.116  1.00  0.00    -0.336 NA 
HETATM    6  N   UNL     1     -10.155  11.340  66.869  1.00  0.00    -0.207 NA 
HETATM    7  H1  UNL     1     -11.482  11.219  64.709  1.00  0.00     0.000 HD 
HETATM    8  H2  UNL     1     -12.051  12.930  64.697  1.00  0.00     0.000 HD 
HETATM    9  H   UNL     1      -9.692  11.537  67.758  1.00  0.00     0.000 HD 
ENDROOT
BRANCH   6  10
HETATM   10  C   UNL     1     -10.039  10.032  66.236  1.00  0.00    -0.243 C  
BRANCH  10  11
HETATM   11  C   UNL     1     -10.186   8.912  67.238  1.00  0.00    -0.326 A  
HETATM   12  C   UNL     1      -9.884   7.591  66.877  1.00  0.00    -0.295 A  
HETATM   13  C   UNL     1     -10.046   6.557  67.801  1.00  0.00    -0.148 A  
HETATM   14  C   UNL     1     -10.492   6.827  69.094  1.00  0.00    -0.240 A  
HETATM   15  I   UNL     1      -9.627   4.598  67.244  1.00  0.00    -0.210 I  
HETATM   16  C   UNL     1     -10.767   8.142  69.469  1.00  0.00    -0.180 A  
HETATM   17  C   UNL     1     -10.610   9.180  68.548  1.00  0.00    -0.209 A  
ENDBRANCH  10  11
ENDBRANCH   6  10
TORSDOF 2
ENDMDL
MODEL      202
REMARK 921   NORMALIZED FREE ENERGY PREDICTED BY IDOCK:   -2.65 KCAL/MOL
REMARK 922        TOTAL FREE ENERGY PREDICTED BY IDOCK:   -3.10 KCAL/MOL
REMARK 923 INTER-LIGAND FREE ENERGY PREDICTED BY IDOCK:   -2.95 KCAL/MOL
REMARK 924 INTRA-LIGAND FREE ENERGY PREDICTED BY IDOCK:   -0.15 KCAL/MOL
REMARK 927      BINDING AFFINITY PREDICTED BY RF-SCORE:    0.00 PKD
ROOT
HETATM    1  N   UNL     1     -10.036   9.957  70.891  1.00  0.00    -0.311 NA 
HETATM    2  C   UNL     1     -10.759   9.109  71.651  1.00  0.00    -0.371 C  
HETATM    3  H1  UNL     1      -9.038   9.869  71.078  1.00  0.00     0.000 HD 
HETATM    4  H2  UNL     1     -10.438  10.606  70.214  1.00  0.00     0.000 HD 
HETATM    5  N   UNL     1     -12.081   9.226  71.404  1.00  0.00    -0.326 NA 
HETATM    6  N   UNL     1     -10.147   8.311  72.445  1.00  0.00    -0.290 NA 
HETATM    7  H1  UNL     1     -12.627   8.584  71.979  1.00  0.00     0.000 HD 
HETATM    8  H2  UNL     1     -12.483   9.874  70.728  1.00  0.00     0.000 HD 
HETATM    9  H   UNL     1      -9.131   8.338  72.540  1.00  0.00     0.000 HD 
ENDROOT
BRANCH   6  10
HETATM   10  C   UNL     1     -10.949   7.362  73.209  1.00  0.00    -0.318 C  
BRANCH  10  11
HETATM   11  C   UNL     1     -10.400   5.959  73.106  1.00  0.00    -0.230 A  
HETATM   12  C   UNL     1      -9.054   5.746  72.771  1.00  0.00    -0.133 A  
HETATM   13  C   UNL     1      -8.559   4.445  72.653  1.00  0.00    -0.109 A  
HETATM   14  C   UNL     1      -9.389   3.348  72.883  1.00  0.00    -0.130 A  
HETATM   15  I   UNL     1      -6.571   4.140  72.124  1.00  0.00    -0.024 I  
HETATM   16  C   UNL     1     -10.720   3.554  73.244  1.00  0.00    -0.291 A  
HETATM   17  C   UNL     1     -11.223   4.851  73.360  1.00  0.00    -0.415 A  
ENDBRANCH  10  11
ENDBRANCH   6  10
TORSDOF 2
ENDMDL
MODEL      203
REMARK 921   NORMALIZED FREE ENERGY PREDICTED BY IDOCK:   -2.65 KCAL/MOL
REMARK 922        TOTAL FREE ENERGY PREDICTED BY IDOCK:   -3.10 KCAL/MOL
REMARK 923 INTER-LIGAND FREE ENERGY PREDICTED BY IDOCK:   -2.93 KCAL/MOL
REMARK 924 INTRA-LIGAND FREE ENERGY PREDICTED BY IDOCK:   -0.17 KCAL/MOL
REMARK 927      BINDING AFFINITY PREDICTED BY RF-SCORE:    0.00 PKD
ROOT
HETATM    1  N   UNL     1     -11.283   5.988  70.580  1.00  0.00    -0.303 NA 
HETATM    2  C   UNL     1     -10.885   5.967  69.291  1.00  0.00    -0.358 C  
HETATM    3  H1  UNL     1     -11.996   6.700  70.740  1.00  0.00     0.000 HD 
HETATM    4  H2  UNL     1     -10.917   5.370  71.304  1.00  0.00     0.000 HD 
HETATM    5  N   UNL     1      -9.941   5.026  69.079  1.00  0.00    -0.185 NA 
HETATM    6  N   UNL     1     -11.439   6.766  68.456  1.00  0.00    -0.542 NA 
HETATM    7  H1  UNL     1      -9.641   5.010  68.104  1.00  0.00     0.000 HD 
HETATM    8  H2  UNL     1      -9.575   4.408  69.802  1.00  0.00     0.000 HD 
HETATM    9  H   UNL     1     -12.141   7.442  68.760  1.00  0.00     0.000 HD 
ENDROOT
BRANCH   6  10
HETATM   10  C   UNL     1     -11.034   6.680  67.058  1.00  0.00    -0.393 C  
BRANCH  10  11
HETATM   11  C   UNL     1      -9.920   7.648  66.740  1.00  0.00    -0.317 A  
HETATM   12  C   UNL     1      -8.816   7.236  65.979  1.00  0.00    -0.161 A  
HETATM   13  C   UNL     1      -7.778   8.129  65.709  1.00  0.00    -0.092 A  
HETATM   14  C   UNL     1      -7.834   9.442  66.178  1.00  0.00    -0.100 A  
HETATM   15  I   UNL     1      -6.131   7.497  64.608  1.00  0.00    -0.037 I  
HETATM   16  C   UNL     1      -8.942   9.866  66.910  1.00  0.00    -0.154 A  
HETATM   17  C   UNL     1      -9.982   8.977  67.187  1.00  0.00    -0.286 A  
ENDBRANCH  10  11
ENDBRANCH   6  10
TORSDOF 2
ENDMDL
MODEL      204
REMARK 921   NORMALIZED FREE ENERGY PREDICTED BY IDOCK:   -2.65 KCAL/MOL
REMARK 922        TOTAL FREE ENERGY PREDICTED BY IDOCK:   -3.09 KCAL/MOL
REMARK 923 INTER-LIGAND FREE ENERGY PREDICTED BY IDOCK:   -2.92 KCAL/MOL
REMARK 924 INTRA-LIGAND FREE ENERGY PREDICTED BY IDOCK:   -0.17 KCAL/MOL
REMARK 927      BINDING AFFINITY PREDICTED BY RF-SCORE:    0.00 PKD
ROOT
HETATM    1  N   UNL     1      -8.428   9.724  69.451  1.00  0.00    -0.144 NA 
HETATM    2  C   UNL     1      -8.197   9.628  68.125  1.00  0.00    -0.106 C  
HETATM    3  H1  UNL     1      -8.422  10.695  69.762  1.00  0.00     0.000 HD 
HETATM    4  H2  UNL     1      -8.589   8.926  70.065  1.00  0.00     0.000 HD 
HETATM    5  N   UNL     1      -8.204   8.343  67.712  1.00  0.00    -0.125 NA 
HETATM    6  N   UNL     1      -8.044  10.701  67.441  1.00  0.00    -0.111 NA 
HETATM    7  H1  UNL     1      -8.030   8.270  66.710  1.00  0.00     0.000 HD 
HETATM    8  H2  UNL     1      -8.364   7.544  68.326  1.00  0.00     0.000 HD 
HETATM    9  H   UNL     1      -8.052  11.617  67.890  1.00  0.00     0.000 HD 
ENDROOT
BRANCH   6  10
HETATM   10  C   UNL     1      -7.857  10.570  66.001  1.00  0.00    -0.147 C  
BRANCH  10  11
HETATM   11  C   UNL     1      -9.063  11.060  65.236  1.00  0.00    -0.207 A  
HETATM   12  C   UNL     1      -9.917  12.023  65.797  1.00  0.00    -0.266 A  
HETATM   13  C   UNL     1     -11.044  12.453  65.095  1.00  0.00    -0.309 A  
HETATM   14  C   UNL     1     -11.325  11.946  63.826  1.00  0.00    -0.532 A  
HETATM   15  I   UNL     1     -12.321  13.855  65.949  1.00  0.00    -0.405 I  
HETATM   16  C   UNL     1     -10.465  11.011  63.251  1.00  0.00    -0.257 A  
HETATM   17  C   UNL     1      -9.338  10.573  63.950  1.00  0.00    -0.314 A  
ENDBRANCH  10  11
ENDBRANCH   6  10
TORSDOF 2
ENDMDL
MODEL      205
REMARK 921   NORMALIZED FREE ENERGY PREDICTED BY IDOCK:   -2.65 KCAL/MOL
REMARK 922        TOTAL FREE ENERGY PREDICTED BY IDOCK:   -3.09 KCAL/MOL
REMARK 923 INTER-LIGAND FREE ENERGY PREDICTED BY IDOCK:   -2.89 KCAL/MOL
REMARK 924 INTRA-LIGAND FREE ENERGY PREDICTED BY IDOCK:   -0.20 KCAL/MOL
REMARK 927      BINDING AFFINITY PREDICTED BY RF-SCORE:    0.00 PKD
ROOT
HETATM    1  N   UNL     1      -6.885   8.884  72.532  1.00  0.00    -0.314 NA 
HETATM    2  C   UNL     1      -7.957   8.234  72.034  1.00  0.00    -0.134 C  
HETATM    3  H1  UNL     1      -7.006   9.896  72.487  1.00  0.00     0.000 HD 
HETATM    4  H2  UNL     1      -6.057   8.422  72.907  1.00  0.00     0.000 HD 
HETATM    5  N   UNL     1      -7.797   6.895  72.094  1.00  0.00    -0.094 NA 
HETATM    6  N   UNL     1      -8.960   8.916  71.621  1.00  0.00    -0.324 NA 
HETATM    7  H1  UNL     1      -8.608   6.404  71.718  1.00  0.00     0.000 HD 
HETATM    8  H2  UNL     1      -6.969   6.433  72.468  1.00  0.00     0.000 HD 
HETATM    9  H   UNL     1      -8.942   9.936  71.625  1.00  0.00     0.000 HD 
ENDROOT
BRANCH   6  10
HETATM   10  C   UNL     1     -10.130   8.187  71.146  1.00  0.00    -0.184 C  
BRANCH  10  11
HETATM   11  C   UNL     1     -10.206   8.178  69.638  1.00  0.00    -0.205 A  
HETATM   12  C   UNL     1     -10.072   6.976  68.927  1.00  0.00    -0.174 A  
HETATM   13  C   UNL     1     -10.118   6.979  67.532  1.00  0.00    -0.185 A  
HETATM   14  C   UNL     1     -10.314   8.169  66.832  1.00  0.00    -0.401 A  
HETATM   15  I   UNL     1      -9.885   5.196  66.487  1.00  0.00    -0.297 I  
HETATM   16  C   UNL     1     -10.477   9.363  67.533  1.00  0.00    -0.343 A  
HETATM   17  C   UNL     1     -10.428   9.368  68.929  1.00  0.00    -0.236 A  
ENDBRANCH  10  11
ENDBRANCH   6  10
TORSDOF 2
ENDMDL
MODEL      206
REMARK 921   NORMALIZED FREE ENERGY PREDICTED BY IDOCK:   -2.64 KCAL/MOL
REMARK 922        TOTAL FREE ENERGY PREDICTED BY IDOCK:   -3.09 KCAL/MOL
REMARK 923 INTER-LIGAND FREE ENERGY PREDICTED BY IDOCK:   -2.95 KCAL/MOL
REMARK 924 INTRA-LIGAND FREE ENERGY PREDICTED BY IDOCK:   -0.14 KCAL/MOL
REMARK 927      BINDING AFFINITY PREDICTED BY RF-SCORE:    0.00 PKD
ROOT
HETATM    1  N   UNL     1      -7.885  11.504  69.019  1.00  0.00    -0.318 NA 
HETATM    2  C   UNL     1      -7.746  10.326  69.663  1.00  0.00    -0.160 C  
HETATM    3  H1  UNL     1      -8.757  11.968  69.273  1.00  0.00     0.000 HD 
HETATM    4  H2  UNL     1      -7.204  11.882  68.362  1.00  0.00     0.000 HD 
HETATM    5  N   UNL     1      -6.592   9.711  69.328  1.00  0.00    -0.047 NA 
HETATM    6  N   UNL     1      -8.648   9.963  70.497  1.00  0.00    -0.367 NA 
HETATM    7  H1  UNL     1      -6.486   8.821  69.815  1.00  0.00     0.000 HD 
HETATM    8  H2  UNL     1      -5.911  10.090  68.670  1.00  0.00     0.000 HD 
HETATM    9  H   UNL     1      -9.485  10.528  70.647  1.00  0.00     0.000 HD 
ENDROOT
BRANCH   6  10
HETATM   10  C   UNL     1      -8.442   8.716  71.224  1.00  0.00    -0.179 C  
BRANCH  10  11
HETATM   11  C   UNL     1      -9.749   8.015  71.509  1.00  0.00    -0.213 A  
HETATM   12  C   UNL     1      -9.769   6.821  72.246  1.00  0.00    -0.156 A  
HETATM   13  C   UNL     1     -10.978   6.165  72.484  1.00  0.00    -0.259 A  
HETATM   14  C   UNL     1     -12.177   6.696  72.009  1.00  0.00    -0.337 A  
HETATM   15  I   UNL     1     -10.992   4.379  73.549  1.00  0.00    -0.298 I  
HETATM   16  C   UNL     1     -12.168   7.897  71.301  1.00  0.00    -0.314 A  
HETATM   17  C   UNL     1     -10.962   8.556  71.055  1.00  0.00    -0.296 A  
ENDBRANCH  10  11
ENDBRANCH   6  10
TORSDOF 2
ENDMDL
MODEL      207
REMARK 921   NORMALIZED FREE ENERGY PREDICTED BY IDOCK:   -2.63 KCAL/MOL
REMARK 922        TOTAL FREE ENERGY PREDICTED BY IDOCK:   -3.08 KCAL/MOL
REMARK 923 INTER-LIGAND FREE ENERGY PREDICTED BY IDOCK:   -2.93 KCAL/MOL
REMARK 924 INTRA-LIGAND FREE ENERGY PREDICTED BY IDOCK:   -0.15 KCAL/MOL
REMARK 927      BINDING AFFINITY PREDICTED BY RF-SCORE:    0.00 PKD
ROOT
HETATM    1  N   UNL     1      -7.001   9.010  67.519  1.00  0.00    -0.077 NA 
HETATM    2  C   UNL     1      -8.168   8.346  67.653  1.00  0.00    -0.126 C  
HETATM    3  H1  UNL     1      -7.039   9.927  67.964  1.00  0.00     0.000 HD 
HETATM    4  H2  UNL     1      -6.184   8.642  67.033  1.00  0.00     0.000 HD 
HETATM    5  N   UNL     1      -8.118   7.133  67.063  1.00  0.00    -0.115 NA 
HETATM    6  N   UNL     1      -9.120   8.890  68.315  1.00  0.00    -0.140 NA 
HETATM    7  H1  UNL     1      -9.000   6.630  67.165  1.00  0.00     0.000 HD 
HETATM    8  H2  UNL     1      -7.301   6.764  66.577  1.00  0.00     0.000 HD 
HETATM    9  H   UNL     1      -9.023   9.829  68.703  1.00  0.00     0.000 HD 
ENDROOT
BRANCH   6  10
HETATM   10  C   UNL     1     -10.348   8.124  68.497  1.00  0.00    -0.198 C  
BRANCH  10  11
HETATM   11  C   UNL     1     -10.766   8.078  69.947  1.00  0.00    -0.242 A  
HETATM   12  C   UNL     1     -10.718   6.872  70.662  1.00  0.00    -0.267 A  
HETATM   13  C   UNL     1     -11.130   6.832  71.996  1.00  0.00    -0.250 A  
HETATM   14  C   UNL     1     -11.575   7.989  72.635  1.00  0.00    -0.448 A  
HETATM   15  I   UNL     1     -11.087   5.031  73.036  1.00  0.00    -0.305 I  
HETATM   16  C   UNL     1     -11.598   9.197  71.939  1.00  0.00    -0.430 A  
HETATM   17  C   UNL     1     -11.191   9.243  70.603  1.00  0.00    -0.333 A  
ENDBRANCH  10  11
ENDBRANCH   6  10
TORSDOF 2
ENDMDL
MODEL      208
REMARK 921   NORMALIZED FREE ENERGY PREDICTED BY IDOCK:   -2.62 KCAL/MOL
REMARK 922        TOTAL FREE ENERGY PREDICTED BY IDOCK:   -3.07 KCAL/MOL
REMARK 923 INTER-LIGAND FREE ENERGY PREDICTED BY IDOCK:   -2.87 KCAL/MOL
REMARK 924 INTRA-LIGAND FREE ENERGY PREDICTED BY IDOCK:   -0.20 KCAL/MOL
REMARK 927      BINDING AFFINITY PREDICTED BY RF-SCORE:    0.00 PKD
ROOT
HETATM    1  N   UNL     1      -7.412   5.141  69.957  1.00  0.00    -0.062 NA 
HETATM    2  C   UNL     1      -7.376   6.441  70.317  1.00  0.00    -0.089 C  
HETATM    3  H1  UNL     1      -8.026   4.601  70.565  1.00  0.00     0.000 HD 
HETATM    4  H2  UNL     1      -6.890   4.748  69.174  1.00  0.00     0.000 HD 
HETATM    5  N   UNL     1      -6.562   7.156  69.512  1.00  0.00    -0.043 NA 
HETATM    6  N   UNL     1      -8.101   6.834  71.297  1.00  0.00    -0.110 NA 
HETATM    7  H1  UNL     1      -6.535   8.139  69.784  1.00  0.00     0.000 HD 
HETATM    8  H2  UNL     1      -6.041   6.763  68.729  1.00  0.00     0.000 HD 
HETATM    9  H   UNL     1      -8.668   6.174  71.832  1.00  0.00     0.000 HD 
ENDROOT
BRANCH   6  10
HETATM   10  C   UNL     1      -8.090   8.254  71.626  1.00  0.00    -0.134 C  
BRANCH  10  11
HETATM   11  C   UNL     1      -9.339   8.948  71.138  1.00  0.00    -0.326 A  
HETATM   12  C   UNL     1     -10.576   8.700  71.752  1.00  0.00    -0.395 A  
HETATM   13  C   UNL     1     -11.731   9.326  71.280  1.00  0.00    -0.346 A  
HETATM   14  C   UNL     1     -11.666  10.215  70.208  1.00  0.00    -0.361 A  
HETATM   15  I   UNL     1     -13.564   8.924  72.176  1.00  0.00    -0.518 I  
HETATM   16  C   UNL     1     -10.436  10.489  69.612  1.00  0.00    -0.257 A  
HETATM   17  C   UNL     1      -9.277   9.863  70.076  1.00  0.00    -0.224 A  
ENDBRANCH  10  11
ENDBRANCH   6  10
TORSDOF 2
ENDMDL
MODEL      209
REMARK 921   NORMALIZED FREE ENERGY PREDICTED BY IDOCK:   -2.62 KCAL/MOL
REMARK 922        TOTAL FREE ENERGY PREDICTED BY IDOCK:   -3.07 KCAL/MOL
REMARK 923 INTER-LIGAND FREE ENERGY PREDICTED BY IDOCK:   -2.95 KCAL/MOL
REMARK 924 INTRA-LIGAND FREE ENERGY PREDICTED BY IDOCK:   -0.11 KCAL/MOL
REMARK 927      BINDING AFFINITY PREDICTED BY RF-SCORE:    0.00 PKD
ROOT
HETATM    1  N   UNL     1     -10.943  11.125  63.654  1.00  0.00    -0.570 NA 
HETATM    2  C   UNL     1     -10.234  11.658  64.671  1.00  0.00    -0.281 C  
HETATM    3  H1  UNL     1     -11.258  10.180  63.873  1.00  0.00     0.000 HD 
HETATM    4  H2  UNL     1     -11.139  11.606  62.777  1.00  0.00     0.000 HD 
HETATM    5  N   UNL     1      -9.817  12.909  64.381  1.00  0.00    -0.601 NA 
HETATM    6  N   UNL     1     -10.079  10.977  65.744  1.00  0.00    -0.242 NA 
HETATM    7  H1  UNL     1      -9.282  13.312  65.150  1.00  0.00     0.000 HD 
HETATM    8  H2  UNL     1     -10.013  13.390  63.504  1.00  0.00     0.000 HD 
HETATM    9  H   UNL     1     -10.444  10.027  65.824  1.00  0.00     0.000 HD 
ENDROOT
BRANCH   6  10
HETATM   10  C   UNL     1      -9.362  11.601  66.850  1.00  0.00    -0.188 C  
BRANCH  10  11
HETATM   11  C   UNL     1      -8.726  10.572  67.753  1.00  0.00    -0.122 A  
HETATM   12  C   UNL     1      -9.357  10.185  68.945  1.00  0.00    -0.179 A  
HETATM   13  C   UNL     1      -8.751   9.252  69.788  1.00  0.00    -0.162 A  
HETATM   14  C   UNL     1      -7.524   8.683  69.448  1.00  0.00    -0.080 A  
HETATM   15  I   UNL     1      -9.680   8.711  71.568  1.00  0.00    -0.372 I  
HETATM   16  C   UNL     1      -6.905   9.041  68.251  1.00  0.00    -0.065 A  
HETATM   17  C   UNL     1      -7.504   9.977  67.406  1.00  0.00    -0.091 A  
ENDBRANCH  10  11
ENDBRANCH   6  10
TORSDOF 2
ENDMDL
MODEL      210
REMARK 921   NORMALIZED FREE ENERGY PREDICTED BY IDOCK:   -2.60 KCAL/MOL
REMARK 922        TOTAL FREE ENERGY PREDICTED BY IDOCK:   -3.05 KCAL/MOL
REMARK 923 INTER-LIGAND FREE ENERGY PREDICTED BY IDOCK:   -2.86 KCAL/MOL
REMARK 924 INTRA-LIGAND FREE ENERGY PREDICTED BY IDOCK:   -0.19 KCAL/MOL
REMARK 927      BINDING AFFINITY PREDICTED BY RF-SCORE:    0.00 PKD
ROOT
HETATM    1  N   UNL     1     -12.205  12.062  68.991  1.00  0.00    -0.153 NA 
HETATM    2  C   UNL     1     -11.221  11.177  68.728  1.00  0.00    -0.253 C  
HETATM    3  H1  UNL     1     -12.189  12.360  69.966  1.00  0.00     0.000 HD 
HETATM    4  H2  UNL     1     -12.880  12.392  68.302  1.00  0.00     0.000 HD 
HETATM    5  N   UNL     1     -11.242  10.782  67.437  1.00  0.00    -0.388 NA 
HETATM    6  N   UNL     1     -10.404  10.859  69.662  1.00  0.00    -0.444 NA 
HETATM    7  H1  UNL     1     -10.498  10.113  67.238  1.00  0.00     0.000 HD 
HETATM    8  H2  UNL     1     -11.917  11.112  66.748  1.00  0.00     0.000 HD 
HETATM    9  H   UNL     1     -10.514  11.231  70.607  1.00  0.00     0.000 HD 
ENDROOT
BRANCH   6  10
HETATM   10  C   UNL     1      -9.314   9.949  69.334  1.00  0.00    -0.214 C  
BRANCH  10  11
HETATM   11  C   UNL     1      -9.485   8.608  70.007  1.00  0.00    -0.170 A  
HETATM   12  C   UNL     1      -9.359   8.491  71.400  1.00  0.00    -0.274 A  
HETATM   13  C   UNL     1      -9.494   7.244  72.013  1.00  0.00    -0.132 A  
HETATM   14  C   UNL     1      -9.772   6.108  71.254  1.00  0.00    -0.196 A  
HETATM   15  I   UNL     1      -9.271   7.076  74.074  1.00  0.00    -0.262 I  
HETATM   16  C   UNL     1      -9.928   6.222  69.873  1.00  0.00    -0.206 A  
HETATM   17  C   UNL     1      -9.790   7.465  69.252  1.00  0.00    -0.168 A  
ENDBRANCH  10  11
ENDBRANCH   6  10
TORSDOF 2
ENDMDL
MODEL      211
REMARK 921   NORMALIZED FREE ENERGY PREDICTED BY IDOCK:   -2.60 KCAL/MOL
REMARK 922        TOTAL FREE ENERGY PREDICTED BY IDOCK:   -3.04 KCAL/MOL
REMARK 923 INTER-LIGAND FREE ENERGY PREDICTED BY IDOCK:   -2.92 KCAL/MOL
REMARK 924 INTRA-LIGAND FREE ENERGY PREDICTED BY IDOCK:   -0.12 KCAL/MOL
REMARK 927      BINDING AFFINITY PREDICTED BY RF-SCORE:    0.00 PKD
ROOT
HETATM    1  N   UNL     1     -13.859   7.369  71.281  1.00  0.00    -0.589 NA 
HETATM    2  C   UNL     1     -12.559   7.707  71.152  1.00  0.00    -0.228 C  
HETATM    3  H1  UNL     1     -14.204   6.889  70.449  1.00  0.00     0.000 HD 
HETATM    4  H2  UNL     1     -14.425   7.568  72.105  1.00  0.00     0.000 HD 
HETATM    5  N   UNL     1     -12.101   8.342  72.252  1.00  0.00    -0.374 NA 
HETATM    6  N   UNL     1     -11.933   7.375  70.085  1.00  0.00    -0.512 NA 
HETATM    7  H1  UNL     1     -11.118   8.597  72.155  1.00  0.00     0.000 HD 
HETATM    8  H2  UNL     1     -12.668   8.541  73.076  1.00  0.00     0.000 HD 
HETATM    9  H   UNL     1     -12.412   6.899  69.319  1.00  0.00     0.000 HD 
ENDROOT
BRANCH   6  10
HETATM   10  C   UNL     1     -10.513   7.698  70.000  1.00  0.00    -0.229 C  
BRANCH  10  11
HETATM   11  C   UNL     1      -9.856   7.013  68.825  1.00  0.00    -0.152 A  
HETATM   12  C   UNL     1      -8.850   7.664  68.095  1.00  0.00    -0.125 A  
HETATM   13  C   UNL     1      -8.265   7.035  66.995  1.00  0.00    -0.117 A  
HETATM   14  C   UNL     1      -8.659   5.751  66.620  1.00  0.00    -0.118 A  
HETATM   15  I   UNL     1      -6.798   8.023  65.900  1.00  0.00    -0.057 I  
HETATM   16  C   UNL     1      -9.638   5.087  67.358  1.00  0.00    -0.164 A  
HETATM   17  C   UNL     1     -10.231   5.712  68.458  1.00  0.00    -0.253 A  
ENDBRANCH  10  11
ENDBRANCH   6  10
TORSDOF 2
ENDMDL
MODEL      212
REMARK 921   NORMALIZED FREE ENERGY PREDICTED BY IDOCK:   -2.60 KCAL/MOL
REMARK 922        TOTAL FREE ENERGY PREDICTED BY IDOCK:   -3.04 KCAL/MOL
REMARK 923 INTER-LIGAND FREE ENERGY PREDICTED BY IDOCK:   -2.84 KCAL/MOL
REMARK 924 INTRA-LIGAND FREE ENERGY PREDICTED BY IDOCK:   -0.20 KCAL/MOL
REMARK 927      BINDING AFFINITY PREDICTED BY RF-SCORE:    0.00 PKD
ROOT
HETATM    1  N   UNL     1      -8.383   8.485  72.937  1.00  0.00    -0.393 NA 
HETATM    2  C   UNL     1      -9.113   7.359  72.791  1.00  0.00    -0.143 C  
HETATM    3  H1  UNL     1      -8.599   9.167  72.211  1.00  0.00     0.000 HD 
HETATM    4  H2  UNL     1      -7.701   8.634  73.680  1.00  0.00     0.000 HD 
HETATM    5  N   UNL     1      -8.827   6.455  73.751  1.00  0.00    -0.123 NA 
HETATM    6  N   UNL     1      -9.969   7.293  71.840  1.00  0.00    -0.167 NA 
HETATM    7  H1  UNL     1      -9.379   5.604  73.641  1.00  0.00     0.000 HD 
HETATM    8  H2  UNL     1      -8.145   6.605  74.494  1.00  0.00     0.000 HD 
HETATM    9  H   UNL     1     -10.075   8.057  71.172  1.00  0.00     0.000 HD 
ENDROOT
BRANCH   6  10
HETATM   10  C   UNL     1     -10.787   6.090  71.743  1.00  0.00    -0.260 C  
BRANCH  10  11
HETATM   11  C   UNL     1     -10.275   5.152  70.675  1.00  0.00    -0.326 A  
HETATM   12  C   UNL     1     -10.325   5.522  69.323  1.00  0.00    -0.335 A  
HETATM   13  C   UNL     1      -9.873   4.640  68.339  1.00  0.00    -0.102 A  
HETATM   14  C   UNL     1      -9.354   3.394  68.690  1.00  0.00    -0.232 A  
HETATM   15  I   UNL     1      -9.982   5.184  66.335  1.00  0.00    -0.287 I  
HETATM   16  C   UNL     1      -9.275   3.032  70.034  1.00  0.00    -0.216 A  
HETATM   17  C   UNL     1      -9.729   3.908  71.023  1.00  0.00    -0.252 A  
ENDBRANCH  10  11
ENDBRANCH   6  10
TORSDOF 2
ENDMDL
MODEL      213
REMARK 921   NORMALIZED FREE ENERGY PREDICTED BY IDOCK:   -2.58 KCAL/MOL
REMARK 922        TOTAL FREE ENERGY PREDICTED BY IDOCK:   -3.02 KCAL/MOL
REMARK 923 INTER-LIGAND FREE ENERGY PREDICTED BY IDOCK:   -2.94 KCAL/MOL
REMARK 924 INTRA-LIGAND FREE ENERGY PREDICTED BY IDOCK:   -0.08 KCAL/MOL
REMARK 927      BINDING AFFINITY PREDICTED BY RF-SCORE:    0.00 PKD
ROOT
HETATM    1  N   UNL     1     -12.286  11.994  69.963  1.00  0.00    -0.245 NA 
HETATM    2  C   UNL     1     -12.039  10.754  70.437  1.00  0.00    -0.354 C  
HETATM    3  H1  UNL     1     -11.424  12.526  69.841  1.00  0.00     0.000 HD 
HETATM    4  H2  UNL     1     -13.217  12.354  69.754  1.00  0.00     0.000 HD 
HETATM    5  N   UNL     1     -13.179  10.051  70.600  1.00  0.00    -0.607 NA 
HETATM    6  N   UNL     1     -10.825  10.393  70.631  1.00  0.00    -0.406 NA 
HETATM    7  H1  UNL     1     -12.993   9.113  70.958  1.00  0.00     0.000 HD 
HETATM    8  H2  UNL     1     -14.110  10.410  70.391  1.00  0.00     0.000 HD 
HETATM    9  H   UNL     1     -10.052  11.040  70.474  1.00  0.00     0.000 HD 
ENDROOT
BRANCH   6  10
HETATM   10  C   UNL     1     -10.585   9.029  71.084  1.00  0.00    -0.290 C  
BRANCH  10  11
HETATM   11  C   UNL     1      -9.975   8.179  69.995  1.00  0.00    -0.192 A  
HETATM   12  C   UNL     1      -8.877   7.351  70.270  1.00  0.00    -0.147 A  
HETATM   13  C   UNL     1      -8.303   6.587  69.252  1.00  0.00    -0.123 A  
HETATM   14  C   UNL     1      -8.823   6.626  67.959  1.00  0.00    -0.115 A  
HETATM   15  I   UNL     1      -6.654   5.388  69.664  1.00  0.00    -0.051 I  
HETATM   16  C   UNL     1      -9.932   7.425  67.684  1.00  0.00    -0.213 A  
HETATM   17  C   UNL     1     -10.509   8.194  68.697  1.00  0.00    -0.195 A  
ENDBRANCH  10  11
ENDBRANCH   6  10
TORSDOF 2
ENDMDL
MODEL      214
REMARK 921   NORMALIZED FREE ENERGY PREDICTED BY IDOCK:   -2.56 KCAL/MOL
REMARK 922        TOTAL FREE ENERGY PREDICTED BY IDOCK:   -3.00 KCAL/MOL
REMARK 923 INTER-LIGAND FREE ENERGY PREDICTED BY IDOCK:   -2.87 KCAL/MOL
REMARK 924 INTRA-LIGAND FREE ENERGY PREDICTED BY IDOCK:   -0.13 KCAL/MOL
REMARK 927      BINDING AFFINITY PREDICTED BY RF-SCORE:    0.00 PKD
ROOT
HETATM    1  N   UNL     1     -11.472  10.009  70.374  1.00  0.00    -0.292 NA 
HETATM    2  C   UNL     1     -11.754   9.178  71.399  1.00  0.00    -0.343 C  
HETATM    3  H1  UNL     1     -10.467  10.148  70.271  1.00  0.00     0.000 HD 
HETATM    4  H2  UNL     1     -12.175  10.444  69.777  1.00  0.00     0.000 HD 
HETATM    5  N   UNL     1     -13.085   8.995  71.536  1.00  0.00    -0.364 NA 
HETATM    6  N   UNL     1     -10.789   8.658  72.062  1.00  0.00    -0.339 NA 
HETATM    7  H1  UNL     1     -13.298   8.366  72.311  1.00  0.00     0.000 HD 
HETATM    8  H2  UNL     1     -13.788   9.430  70.939  1.00  0.00     0.000 HD 
HETATM    9  H   UNL     1      -9.819   8.896  71.853  1.00  0.00     0.000 HD 
ENDROOT
BRANCH   6  10
HETATM   10  C   UNL     1     -11.121   7.716  73.124  1.00  0.00    -0.317 C  
BRANCH  10  11
HETATM   11  C   UNL     1     -10.085   6.624  73.243  1.00  0.00    -0.232 A  
HETATM   12  C   UNL     1     -10.215   5.438  72.506  1.00  0.00    -0.238 A  
HETATM   13  C   UNL     1      -9.267   4.422  72.640  1.00  0.00    -0.125 A  
HETATM   14  C   UNL     1      -8.175   4.581  73.493  1.00  0.00    -0.102 A  
HETATM   15  I   UNL     1      -9.488   2.654  71.568  1.00  0.00    -0.205 I  
HETATM   16  C   UNL     1      -8.024   5.769  74.207  1.00  0.00    -0.104 A  
HETATM   17  C   UNL     1      -8.971   6.788  74.080  1.00  0.00    -0.208 A  
ENDBRANCH  10  11
ENDBRANCH   6  10
TORSDOF 2
ENDMDL
MODEL      215
REMARK 921   NORMALIZED FREE ENERGY PREDICTED BY IDOCK:   -2.51 KCAL/MOL
REMARK 922        TOTAL FREE ENERGY PREDICTED BY IDOCK:   -2.95 KCAL/MOL
REMARK 923 INTER-LIGAND FREE ENERGY PREDICTED BY IDOCK:   -2.75 KCAL/MOL
REMARK 924 INTRA-LIGAND FREE ENERGY PREDICTED BY IDOCK:   -0.20 KCAL/MOL
REMARK 927      BINDING AFFINITY PREDICTED BY RF-SCORE:    0.00 PKD
ROOT
HETATM    1  N   UNL     1     -11.276   6.389  71.098  1.00  0.00    -0.289 NA 
HETATM    2  C   UNL     1     -10.914   5.914  69.888  1.00  0.00    -0.374 C  
HETATM    3  H1  UNL     1     -11.849   7.229  71.015  1.00  0.00     0.000 HD 
HETATM    4  H2  UNL     1     -11.010   5.963  71.985  1.00  0.00     0.000 HD 
HETATM    5  N   UNL     1     -10.156   4.803  69.999  1.00  0.00    -0.250 NA 
HETATM    6  N   UNL     1     -11.336   6.510  68.835  1.00  0.00    -0.590 NA 
HETATM    7  H1  UNL     1      -9.883   4.444  69.084  1.00  0.00     0.000 HD 
HETATM    8  H2  UNL     1      -9.890   4.376  70.886  1.00  0.00     0.000 HD 
HETATM    9  H   UNL     1     -11.901   7.358  68.900  1.00  0.00     0.000 HD 
ENDROOT
BRANCH   6  10
HETATM   10  C   UNL     1     -10.981   5.940  67.541  1.00  0.00    -0.148 C  
BRANCH  10  11
HETATM   11  C   UNL     1      -9.760   6.607  66.954  1.00  0.00    -0.209 A  
HETATM   12  C   UNL     1      -9.808   7.952  66.557  1.00  0.00    -0.272 A  
HETATM   13  C   UNL     1      -8.684   8.556  65.992  1.00  0.00    -0.161 A  
HETATM   14  C   UNL     1      -7.499   7.837  65.831  1.00  0.00    -0.081 A  
HETATM   15  I   UNL     1      -8.776  10.540  65.376  1.00  0.00    -0.185 I  
HETATM   16  C   UNL     1      -7.436   6.509  66.251  1.00  0.00    -0.081 A  
HETATM   17  C   UNL     1      -8.558   5.898  66.813  1.00  0.00    -0.113 A  
ENDBRANCH  10  11
ENDBRANCH   6  10
TORSDOF 2
ENDMDL
MODEL      216
REMARK 921   NORMALIZED FREE ENERGY PREDICTED BY IDOCK:   -2.50 KCAL/MOL
REMARK 922        TOTAL FREE ENERGY PREDICTED BY IDOCK:   -2.93 KCAL/MOL
REMARK 923 INTER-LIGAND FREE ENERGY PREDICTED BY IDOCK:   -2.76 KCAL/MOL
REMARK 924 INTRA-LIGAND FREE ENERGY PREDICTED BY IDOCK:   -0.18 KCAL/MOL
REMARK 927      BINDING AFFINITY PREDICTED BY RF-SCORE:    0.00 PKD
ROOT
HETATM    1  N   UNL     1      -5.883  11.261  68.617  1.00  0.00    -0.043 NA 
HETATM    2  C   UNL     1      -6.248  12.472  68.145  1.00  0.00    -0.072 C  
HETATM    3  H1  UNL     1      -6.157  11.142  69.592  1.00  0.00     0.000 HD 
HETATM    4  H2  UNL     1      -5.395  10.554  68.068  1.00  0.00     0.000 HD 
HETATM    5  N   UNL     1      -5.885  12.630  66.855  1.00  0.00    -0.470 NA 
HETATM    6  N   UNL     1      -6.890  13.270  68.914  1.00  0.00    -0.102 NA 
HETATM    7  H1  UNL     1      -6.161  13.545  66.498  1.00  0.00     0.000 HD 
HETATM    8  H2  UNL     1      -5.397  11.923  66.306  1.00  0.00     0.000 HD 
HETATM    9  H   UNL     1      -7.091  13.022  69.883  1.00  0.00     0.000 HD 
ENDROOT
BRANCH   6  10
HETATM   10  C   UNL     1      -7.326  14.546  68.359  1.00  0.00    -0.114 C  
BRANCH  10  11
HETATM   11  C   UNL     1      -8.831  14.677  68.377  1.00  0.00    -0.181 A  
HETATM   12  C   UNL     1      -9.615  13.985  67.443  1.00  0.00    -0.227 A  
HETATM   13  C   UNL     1     -11.004  14.130  67.449  1.00  0.00    -0.299 A  
HETATM   14  C   UNL     1     -11.626  14.947  68.393  1.00  0.00    -0.348 A  
HETATM   15  I   UNL     1     -12.155  13.126  66.038  1.00  0.00    -0.359 I  
HETATM   16  C   UNL     1     -10.854  15.615  69.343  1.00  0.00    -0.264 A  
HETATM   17  C   UNL     1      -9.464  15.478  69.339  1.00  0.00    -0.278 A  
ENDBRANCH  10  11
ENDBRANCH   6  10
TORSDOF 2
ENDMDL
MODEL      217
REMARK 921   NORMALIZED FREE ENERGY PREDICTED BY IDOCK:   -2.47 KCAL/MOL
REMARK 922        TOTAL FREE ENERGY PREDICTED BY IDOCK:   -2.90 KCAL/MOL
REMARK 923 INTER-LIGAND FREE ENERGY PREDICTED BY IDOCK:   -2.76 KCAL/MOL
REMARK 924 INTRA-LIGAND FREE ENERGY PREDICTED BY IDOCK:   -0.14 KCAL/MOL
REMARK 927      BINDING AFFINITY PREDICTED BY RF-SCORE:    0.00 PKD
ROOT
HETATM    1  N   UNL     1      -6.716   3.709  72.122  1.00  0.00    -0.018 NA 
HETATM    2  C   UNL     1      -7.630   4.327  72.899  1.00  0.00    -0.080 C  
HETATM    3  H1  UNL     1      -6.976   3.748  71.136  1.00  0.00     0.000 HD 
HETATM    4  H2  UNL     1      -5.873   3.258  72.475  1.00  0.00     0.000 HD 
HETATM    5  N   UNL     1      -7.287   4.274  74.204  1.00  0.00    -0.071 NA 
HETATM    6  N   UNL     1      -8.637   4.892  72.345  1.00  0.00    -0.122 NA 
HETATM    7  H1  UNL     1      -7.978   4.742  74.791  1.00  0.00     0.000 HD 
HETATM    8  H2  UNL     1      -6.444   3.824  74.557  1.00  0.00     0.000 HD 
HETATM    9  H   UNL     1      -8.779   4.844  71.335  1.00  0.00     0.000 HD 
ENDROOT
BRANCH   6  10
HETATM   10  C   UNL     1      -9.576   5.605  73.203  1.00  0.00    -0.150 C  
BRANCH  10  11
HETATM   11  C   UNL     1     -10.019   6.908  72.581  1.00  0.00    -0.191 A  
HETATM   12  C   UNL     1     -11.364   7.302  72.641  1.00  0.00    -0.333 A  
HETATM   13  C   UNL     1     -11.772   8.496  72.042  1.00  0.00    -0.362 A  
HETATM   14  C   UNL     1     -10.847   9.315  71.394  1.00  0.00    -0.434 A  
HETATM   15  I   UNL     1     -13.774   9.054  72.108  1.00  0.00    -0.482 I  
HETATM   16  C   UNL     1      -9.504   8.943  71.356  1.00  0.00    -0.344 A  
HETATM   17  C   UNL     1      -9.090   7.749  71.950  1.00  0.00    -0.173 A  
ENDBRANCH  10  11
ENDBRANCH   6  10
TORSDOF 2
ENDMDL
MODEL      218
REMARK 921   NORMALIZED FREE ENERGY PREDICTED BY IDOCK:   -2.47 KCAL/MOL
REMARK 922        TOTAL FREE ENERGY PREDICTED BY IDOCK:   -2.90 KCAL/MOL
REMARK 923 INTER-LIGAND FREE ENERGY PREDICTED BY IDOCK:   -2.70 KCAL/MOL
REMARK 924 INTRA-LIGAND FREE ENERGY PREDICTED BY IDOCK:   -0.19 KCAL/MOL
REMARK 927      BINDING AFFINITY PREDICTED BY RF-SCORE:    0.00 PKD
ROOT
HETATM    1  N   UNL     1      -7.731   8.836  72.775  1.00  0.00    -0.372 NA 
HETATM    2  C   UNL     1      -8.572   7.797  72.593  1.00  0.00    -0.140 C  
HETATM    3  H1  UNL     1      -8.097   9.691  72.357  1.00  0.00     0.000 HD 
HETATM    4  H2  UNL     1      -6.840   8.774  73.267  1.00  0.00     0.000 HD 
HETATM    5  N   UNL     1      -8.087   6.665  73.145  1.00  0.00    -0.105 NA 
HETATM    6  N   UNL     1      -9.684   7.996  71.989  1.00  0.00    -0.185 NA 
HETATM    7  H1  UNL     1      -8.723   5.879  73.008  1.00  0.00     0.000 HD 
HETATM    8  H2  UNL     1      -7.196   6.603  73.638  1.00  0.00     0.000 HD 
HETATM    9  H   UNL     1      -9.921   8.913  71.609  1.00  0.00     0.000 HD 
ENDROOT
BRANCH   6  10
HETATM   10  C   UNL     1     -10.601   6.869  71.862  1.00  0.00    -0.211 C  
BRANCH  10  11
HETATM   11  C   UNL     1     -10.444   6.171  70.532  1.00  0.00    -0.291 A  
HETATM   12  C   UNL     1      -9.953   4.858  70.473  1.00  0.00    -0.311 A  
HETATM   13  C   UNL     1      -9.786   4.227  69.238  1.00  0.00    -0.110 A  
HETATM   14  C   UNL     1     -10.122   4.886  68.056  1.00  0.00    -0.141 A  
HETATM   15  I   UNL     1      -9.025   2.294  69.160  1.00  0.00    -0.197 I  
HETATM   16  C   UNL     1     -10.638   6.181  68.109  1.00  0.00    -0.328 A  
HETATM   17  C   UNL     1     -10.803   6.819  69.340  1.00  0.00    -0.312 A  
ENDBRANCH  10  11
ENDBRANCH   6  10
TORSDOF 2
ENDMDL
MODEL      219
REMARK 921   NORMALIZED FREE ENERGY PREDICTED BY IDOCK:   -2.45 KCAL/MOL
REMARK 922        TOTAL FREE ENERGY PREDICTED BY IDOCK:   -2.88 KCAL/MOL
REMARK 923 INTER-LIGAND FREE ENERGY PREDICTED BY IDOCK:   -2.74 KCAL/MOL
REMARK 924 INTRA-LIGAND FREE ENERGY PREDICTED BY IDOCK:   -0.14 KCAL/MOL
REMARK 927      BINDING AFFINITY PREDICTED BY RF-SCORE:    0.00 PKD
ROOT
HETATM    1  N   UNL     1     -12.202   7.060  70.452  1.00  0.00    -0.616 NA 
HETATM    2  C   UNL     1     -11.312   8.025  70.137  1.00  0.00    -0.078 C  
HETATM    3  H1  UNL     1     -12.786   6.815  69.653  1.00  0.00     0.000 HD 
HETATM    4  H2  UNL     1     -12.280   6.631  71.374  1.00  0.00     0.000 HD 
HETATM    5  N   UNL     1     -10.539   8.351  71.194  1.00  0.00    -0.208 NA 
HETATM    6  N   UNL     1     -11.277   8.469  68.936  1.00  0.00    -0.282 NA 
HETATM    7  H1  UNL     1      -9.866   9.080  70.956  1.00  0.00     0.000 HD 
HETATM    8  H2  UNL     1     -10.617   7.921  72.116  1.00  0.00     0.000 HD 
HETATM    9  H   UNL     1     -11.936   8.136  68.231  1.00  0.00     0.000 HD 
ENDROOT
BRANCH   6  10
HETATM   10  C   UNL     1     -10.265   9.466  68.608  1.00  0.00    -0.201 C  
BRANCH  10  11
HETATM   11  C   UNL     1      -9.565   9.143  67.309  1.00  0.00    -0.200 A  
HETATM   12  C   UNL     1      -9.669  10.010  66.211  1.00  0.00    -0.272 A  
HETATM   13  C   UNL     1      -9.040   9.693  65.006  1.00  0.00    -0.233 A  
HETATM   14  C   UNL     1      -8.290   8.524  64.885  1.00  0.00    -0.171 A  
HETATM   15  I   UNL     1      -9.229  10.969  63.375  1.00  0.00    -0.222 I  
HETATM   16  C   UNL     1      -8.159   7.672  65.981  1.00  0.00    -0.118 A  
HETATM   17  C   UNL     1      -8.789   7.981  67.189  1.00  0.00    -0.138 A  
ENDBRANCH  10  11
ENDBRANCH   6  10
TORSDOF 2
ENDMDL
MODEL      220
REMARK 921   NORMALIZED FREE ENERGY PREDICTED BY IDOCK:   -2.44 KCAL/MOL
REMARK 922        TOTAL FREE ENERGY PREDICTED BY IDOCK:   -2.86 KCAL/MOL
REMARK 923 INTER-LIGAND FREE ENERGY PREDICTED BY IDOCK:   -2.66 KCAL/MOL
REMARK 924 INTRA-LIGAND FREE ENERGY PREDICTED BY IDOCK:   -0.21 KCAL/MOL
REMARK 927      BINDING AFFINITY PREDICTED BY RF-SCORE:    0.00 PKD
ROOT
HETATM    1  N   UNL     1      -9.397   8.027  73.758  1.00  0.00    -0.302 NA 
HETATM    2  C   UNL     1      -9.951   8.040  72.528  1.00  0.00    -0.270 C  
HETATM    3  H1  UNL     1      -8.421   7.731  73.726  1.00  0.00     0.000 HD 
HETATM    4  H2  UNL     1      -9.891   8.280  74.613  1.00  0.00     0.000 HD 
HETATM    5  N   UNL     1     -11.243   8.431  72.571  1.00  0.00    -0.368 NA 
HETATM    6  N   UNL     1      -9.226   7.736  71.517  1.00  0.00    -0.135 NA 
HETATM    7  H1  UNL     1     -11.662   8.441  71.641  1.00  0.00     0.000 HD 
HETATM    8  H2  UNL     1     -11.737   8.684  73.426  1.00  0.00     0.000 HD 
HETATM    9  H   UNL     1      -8.255   7.446  71.633  1.00  0.00     0.000 HD 
ENDROOT
BRANCH   6  10
HETATM   10  C   UNL     1      -9.834   7.818  70.194  1.00  0.00    -0.184 C  
BRANCH  10  11
HETATM   11  C   UNL     1      -9.454   9.097  69.485  1.00  0.00    -0.170 A  
HETATM   12  C   UNL     1     -10.425  10.070  69.207  1.00  0.00    -0.245 A  
HETATM   13  C   UNL     1     -10.071  11.239  68.529  1.00  0.00    -0.204 A  
HETATM   14  C   UNL     1      -8.751  11.458  68.138  1.00  0.00    -0.154 A  
HETATM   15  I   UNL     1     -11.525  12.660  68.092  1.00  0.00    -0.415 I  
HETATM   16  C   UNL     1      -7.775  10.508  68.437  1.00  0.00    -0.104 A  
HETATM   17  C   UNL     1      -8.123   9.335  69.111  1.00  0.00    -0.106 A  
ENDBRANCH  10  11
ENDBRANCH   6  10
TORSDOF 2
ENDMDL
MODEL      221
REMARK 921   NORMALIZED FREE ENERGY PREDICTED BY IDOCK:   -2.40 KCAL/MOL
REMARK 922        TOTAL FREE ENERGY PREDICTED BY IDOCK:   -2.82 KCAL/MOL
REMARK 923 INTER-LIGAND FREE ENERGY PREDICTED BY IDOCK:   -2.70 KCAL/MOL
REMARK 924 INTRA-LIGAND FREE ENERGY PREDICTED BY IDOCK:   -0.12 KCAL/MOL
REMARK 927      BINDING AFFINITY PREDICTED BY RF-SCORE:    0.00 PKD
ROOT
HETATM    1  N   UNL     1      -8.500  11.785  67.747  1.00  0.00    -0.140 NA 
HETATM    2  C   UNL     1      -8.318  10.906  68.754  1.00  0.00    -0.151 C  
HETATM    3  H1  UNL     1      -9.489  11.986  67.600  1.00  0.00     0.000 HD 
HETATM    4  H2  UNL     1      -7.743  12.197  67.201  1.00  0.00     0.000 HD 
HETATM    5  N   UNL     1      -7.010  10.639  68.949  1.00  0.00    -0.067 NA 
HETATM    6  N   UNL     1      -9.340  10.478  69.397  1.00  0.00    -0.363 NA 
HETATM    7  H1  UNL     1      -6.872   9.974  69.711  1.00  0.00     0.000 HD 
HETATM    8  H2  UNL     1      -6.253  11.050  68.403  1.00  0.00     0.000 HD 
HETATM    9  H   UNL     1     -10.285  10.759  69.132  1.00  0.00     0.000 HD 
ENDROOT
BRANCH   6  10
HETATM   10  C   UNL     1      -9.111   9.577  70.520  1.00  0.00    -0.219 C  
BRANCH  10  11
HETATM   11  C   UNL     1      -9.715   8.215  70.274  1.00  0.00    -0.175 A  
HETATM   12  C   UNL     1      -9.666   7.636  68.997  1.00  0.00    -0.160 A  
HETATM   13  C   UNL     1     -10.249   6.388  68.771  1.00  0.00    -0.177 A  
HETATM   14  C   UNL     1     -10.869   5.697  69.812  1.00  0.00    -0.370 A  
HETATM   15  I   UNL     1     -10.200   5.554  66.866  1.00  0.00    -0.352 I  
HETATM   16  C   UNL     1     -10.896   6.253  71.090  1.00  0.00    -0.320 A  
HETATM   17  C   UNL     1     -10.318   7.503  71.322  1.00  0.00    -0.203 A  
ENDBRANCH  10  11
ENDBRANCH   6  10
TORSDOF 2
ENDMDL
MODEL      222
REMARK 921   NORMALIZED FREE ENERGY PREDICTED BY IDOCK:   -2.39 KCAL/MOL
REMARK 922        TOTAL FREE ENERGY PREDICTED BY IDOCK:   -2.81 KCAL/MOL
REMARK 923 INTER-LIGAND FREE ENERGY PREDICTED BY IDOCK:   -2.68 KCAL/MOL
REMARK 924 INTRA-LIGAND FREE ENERGY PREDICTED BY IDOCK:   -0.13 KCAL/MOL
REMARK 927      BINDING AFFINITY PREDICTED BY RF-SCORE:    0.00 PKD
ROOT
HETATM    1  N   UNL     1     -10.045  10.966  64.223  1.00  0.00    -0.325 NA 
HETATM    2  C   UNL     1     -10.149  10.555  65.505  1.00  0.00    -0.283 C  
HETATM    3  H1  UNL     1      -9.917  10.180  63.587  1.00  0.00     0.000 HD 
HETATM    4  H2  UNL     1     -10.089  11.941  63.929  1.00  0.00     0.000 HD 
HETATM    5  N   UNL     1     -10.318  11.596  66.347  1.00  0.00    -0.223 NA 
HETATM    6  N   UNL     1     -10.115   9.300  65.759  1.00  0.00    -0.376 NA 
HETATM    7  H1  UNL     1     -10.397  11.285  67.315  1.00  0.00     0.000 HD 
HETATM    8  H2  UNL     1     -10.363  12.571  66.052  1.00  0.00     0.000 HD 
HETATM    9  H   UNL     1      -9.969   8.615  65.016  1.00  0.00     0.000 HD 
ENDROOT
BRANCH   6  10
HETATM   10  C   UNL     1     -10.291   8.880  67.144  1.00  0.00    -0.281 C  
BRANCH  10  11
HETATM   11  C   UNL     1      -9.915   7.431  67.339  1.00  0.00    -0.239 A  
HETATM   12  C   UNL     1      -8.753   6.913  66.748  1.00  0.00    -0.122 A  
HETATM   13  C   UNL     1      -8.425   5.566  66.911  1.00  0.00    -0.110 A  
HETATM   14  C   UNL     1      -9.236   4.727  67.676  1.00  0.00    -0.144 A  
HETATM   15  I   UNL     1      -6.718   4.800  66.003  1.00  0.00    -0.052 I  
HETATM   16  C   UNL     1     -10.376   5.242  68.290  1.00  0.00    -0.181 A  
HETATM   17  C   UNL     1     -10.713   6.587  68.127  1.00  0.00    -0.347 A  
ENDBRANCH  10  11
ENDBRANCH   6  10
TORSDOF 2
ENDMDL
MODEL      223
REMARK 921   NORMALIZED FREE ENERGY PREDICTED BY IDOCK:   -2.38 KCAL/MOL
REMARK 922        TOTAL FREE ENERGY PREDICTED BY IDOCK:   -2.80 KCAL/MOL
REMARK 923 INTER-LIGAND FREE ENERGY PREDICTED BY IDOCK:   -2.72 KCAL/MOL
REMARK 924 INTRA-LIGAND FREE ENERGY PREDICTED BY IDOCK:   -0.09 KCAL/MOL
REMARK 927      BINDING AFFINITY PREDICTED BY RF-SCORE:    0.00 PKD
ROOT
HETATM    1  N   UNL     1      -9.409   5.694  66.619  1.00  0.00    -0.139 NA 
HETATM    2  C   UNL     1      -8.889   5.356  67.818  1.00  0.00    -0.105 C  
HETATM    3  H1  UNL     1     -10.225   5.126  66.392  1.00  0.00     0.000 HD 
HETATM    4  H2  UNL     1      -9.033   6.425  66.016  1.00  0.00     0.000 HD 
HETATM    5  N   UNL     1      -7.808   6.107  68.118  1.00  0.00    -0.102 NA 
HETATM    6  N   UNL     1      -9.464   4.445  68.510  1.00  0.00    -0.149 NA 
HETATM    7  H1  UNL     1      -7.415   5.852  69.024  1.00  0.00     0.000 HD 
HETATM    8  H2  UNL     1      -7.432   6.839  67.515  1.00  0.00     0.000 HD 
HETATM    9  H   UNL     1     -10.278   3.945  68.151  1.00  0.00     0.000 HD 
ENDROOT
BRANCH   6  10
HETATM   10  C   UNL     1      -8.917   4.143  69.828  1.00  0.00    -0.096 C  
BRANCH  10  11
HETATM   11  C   UNL     1      -9.842   4.597  70.932  1.00  0.00    -0.272 A  
HETATM   12  C   UNL     1     -10.521   5.821  70.832  1.00  0.00    -0.317 A  
HETATM   13  C   UNL     1     -11.355   6.246  71.867  1.00  0.00    -0.299 A  
HETATM   14  C   UNL     1     -11.536   5.454  73.001  1.00  0.00    -0.324 A  
HETATM   15  I   UNL     1     -12.330   8.077  71.723  1.00  0.00    -0.402 I  
HETATM   16  C   UNL     1     -10.887   4.223  73.094  1.00  0.00    -0.303 A  
HETATM   17  C   UNL     1     -10.048   3.794  72.064  1.00  0.00    -0.209 A  
ENDBRANCH  10  11
ENDBRANCH   6  10
TORSDOF 2
ENDMDL
MODEL      224
REMARK 921   NORMALIZED FREE ENERGY PREDICTED BY IDOCK:   -2.38 KCAL/MOL
REMARK 922        TOTAL FREE ENERGY PREDICTED BY IDOCK:   -2.80 KCAL/MOL
REMARK 923 INTER-LIGAND FREE ENERGY PREDICTED BY IDOCK:   -2.64 KCAL/MOL
REMARK 924 INTRA-LIGAND FREE ENERGY PREDICTED BY IDOCK:   -0.16 KCAL/MOL
REMARK 927      BINDING AFFINITY PREDICTED BY RF-SCORE:    0.00 PKD
ROOT
HETATM    1  N   UNL     1     -10.240  10.369  64.885  1.00  0.00    -0.319 NA 
HETATM    2  C   UNL     1      -9.110  10.758  65.512  1.00  0.00    -0.199 C  
HETATM    3  H1  UNL     1     -11.011  10.251  65.543  1.00  0.00     0.000 HD 
HETATM    4  H2  UNL     1     -10.315  10.212  63.880  1.00  0.00     0.000 HD 
HETATM    5  N   UNL     1      -8.090  10.913  64.642  1.00  0.00    -0.361 NA 
HETATM    6  N   UNL     1      -9.139  10.961  66.776  1.00  0.00    -0.150 NA 
HETATM    7  H1  UNL     1      -7.236  11.208  65.115  1.00  0.00     0.000 HD 
HETATM    8  H2  UNL     1      -8.164  10.756  63.637  1.00  0.00     0.000 HD 
HETATM    9  H   UNL     1      -9.988  10.792  67.318  1.00  0.00     0.000 HD 
ENDROOT
BRANCH   6  10
HETATM   10  C   UNL     1      -7.921  11.440  67.417  1.00  0.00    -0.139 C  
BRANCH  10  11
HETATM   11  C   UNL     1      -8.130  12.781  68.079  1.00  0.00    -0.162 A  
HETATM   12  C   UNL     1      -9.417  13.332  68.177  1.00  0.00    -0.222 A  
HETATM   13  C   UNL     1      -9.601  14.583  68.768  1.00  0.00    -0.193 A  
HETATM   14  C   UNL     1      -8.513  15.291  69.281  1.00  0.00    -0.238 A  
HETATM   15  I   UNL     1     -11.508  15.405  68.878  1.00  0.00    -0.385 I  
HETATM   16  C   UNL     1      -7.236  14.736  69.213  1.00  0.00    -0.167 A  
HETATM   17  C   UNL     1      -7.045  13.487  68.619  1.00  0.00    -0.106 A  
ENDBRANCH  10  11
ENDBRANCH   6  10
TORSDOF 2
ENDMDL
MODEL      225
REMARK 921   NORMALIZED FREE ENERGY PREDICTED BY IDOCK:   -2.38 KCAL/MOL
REMARK 922        TOTAL FREE ENERGY PREDICTED BY IDOCK:   -2.80 KCAL/MOL
REMARK 923 INTER-LIGAND FREE ENERGY PREDICTED BY IDOCK:   -2.80 KCAL/MOL
REMARK 924 INTRA-LIGAND FREE ENERGY PREDICTED BY IDOCK:   -0.00 KCAL/MOL
REMARK 927      BINDING AFFINITY PREDICTED BY RF-SCORE:    0.00 PKD
ROOT
HETATM    1  N   UNL     1      -5.786   9.185  73.559  1.00  0.00    -0.283 NA 
HETATM    2  C   UNL     1      -6.489   8.820  72.466  1.00  0.00    -0.005 C  
HETATM    3  H1  UNL     1      -5.998   8.585  74.356  1.00  0.00     0.000 HD 
HETATM    4  H2  UNL     1      -5.127   9.962  73.584  1.00  0.00     0.000 HD 
HETATM    5  N   UNL     1      -6.210   9.613  71.410  1.00  0.00    -0.259 NA 
HETATM    6  N   UNL     1      -7.265   7.803  72.537  1.00  0.00    -0.078 NA 
HETATM    7  H1  UNL     1      -6.741   9.337  70.584  1.00  0.00     0.000 HD 
HETATM    8  H2  UNL     1      -5.551  10.391  71.435  1.00  0.00     0.000 HD 
HETATM    9  H   UNL     1      -7.389   7.295  73.413  1.00  0.00     0.000 HD 
ENDROOT
BRANCH   6  10
HETATM   10  C   UNL     1      -7.964   7.394  71.325  1.00  0.00    -0.096 C  
BRANCH  10  11
HETATM   11  C   UNL     1      -9.154   8.280  71.042  1.00  0.00    -0.189 A  
HETATM   12  C   UNL     1      -9.252   8.970  69.824  1.00  0.00    -0.172 A  
HETATM   13  C   UNL     1     -10.342   9.808  69.580  1.00  0.00    -0.230 A  
HETATM   14  C   UNL     1     -11.350   9.954  70.532  1.00  0.00    -0.399 A  
HETATM   15  I   UNL     1     -10.460  10.852  67.785  1.00  0.00    -0.311 I  
HETATM   16  C   UNL     1     -11.273   9.249  71.732  1.00  0.00    -0.413 A  
HETATM   17  C   UNL     1     -10.184   8.413  71.985  1.00  0.00    -0.364 A  
ENDBRANCH  10  11
ENDBRANCH   6  10
TORSDOF 2
ENDMDL
MODEL      226
REMARK 921   NORMALIZED FREE ENERGY PREDICTED BY IDOCK:   -2.36 KCAL/MOL
REMARK 922        TOTAL FREE ENERGY PREDICTED BY IDOCK:   -2.78 KCAL/MOL
REMARK 923 INTER-LIGAND FREE ENERGY PREDICTED BY IDOCK:   -2.58 KCAL/MOL
REMARK 924 INTRA-LIGAND FREE ENERGY PREDICTED BY IDOCK:   -0.19 KCAL/MOL
REMARK 927      BINDING AFFINITY PREDICTED BY RF-SCORE:    0.00 PKD
ROOT
HETATM    1  N   UNL     1      -7.737   9.879  65.580  1.00  0.00    -0.116 NA 
HETATM    2  C   UNL     1      -7.750   9.673  66.914  1.00  0.00    -0.098 C  
HETATM    3  H1  UNL     1      -7.668   9.000  65.067  1.00  0.00     0.000 HD 
HETATM    4  H2  UNL     1      -7.791  10.797  65.140  1.00  0.00     0.000 HD 
HETATM    5  N   UNL     1      -7.842  10.836  67.593  1.00  0.00    -0.108 NA 
HETATM    6  N   UNL     1      -7.714   8.472  67.358  1.00  0.00    -0.097 NA 
HETATM    7  H1  UNL     1      -7.852  10.681  68.602  1.00  0.00     0.000 HD 
HETATM    8  H2  UNL     1      -7.895  11.754  67.153  1.00  0.00     0.000 HD 
HETATM    9  H   UNL     1      -7.634   7.677  66.722  1.00  0.00     0.000 HD 
ENDROOT
BRANCH   6  10
HETATM   10  C   UNL     1      -7.791   8.277  68.801  1.00  0.00    -0.115 C  
BRANCH  10  11
HETATM   11  C   UNL     1      -9.135   7.727  69.217  1.00  0.00    -0.145 A  
HETATM   12  C   UNL     1      -9.956   8.449  70.097  1.00  0.00    -0.190 A  
HETATM   13  C   UNL     1     -11.186   7.924  70.497  1.00  0.00    -0.253 A  
HETATM   14  C   UNL     1     -11.619   6.689  70.015  1.00  0.00    -0.423 A  
HETATM   15  I   UNL     1     -12.379   8.987  71.828  1.00  0.00    -0.487 I  
HETATM   16  C   UNL     1     -10.822   5.980  69.118  1.00  0.00    -0.422 A  
HETATM   17  C   UNL     1      -9.588   6.497  68.717  1.00  0.00    -0.126 A  
ENDBRANCH  10  11
ENDBRANCH   6  10
TORSDOF 2
ENDMDL
MODEL      227
REMARK 921   NORMALIZED FREE ENERGY PREDICTED BY IDOCK:   -2.36 KCAL/MOL
REMARK 922        TOTAL FREE ENERGY PREDICTED BY IDOCK:   -2.78 KCAL/MOL
REMARK 923 INTER-LIGAND FREE ENERGY PREDICTED BY IDOCK:   -2.63 KCAL/MOL
REMARK 924 INTRA-LIGAND FREE ENERGY PREDICTED BY IDOCK:   -0.14 KCAL/MOL
REMARK 927      BINDING AFFINITY PREDICTED BY RF-SCORE:    0.00 PKD
ROOT
HETATM    1  N   UNL     1      -9.035   7.644  74.244  1.00  0.00    -0.422 NA 
HETATM    2  C   UNL     1      -9.840   7.168  73.272  1.00  0.00    -0.234 C  
HETATM    3  H1  UNL     1      -8.072   7.332  74.118  1.00  0.00     0.000 HD 
HETATM    4  H2  UNL     1      -9.349   8.240  75.009  1.00  0.00     0.000 HD 
HETATM    5  N   UNL     1     -11.114   7.580  73.438  1.00  0.00    -0.565 NA 
HETATM    6  N   UNL     1      -9.331   6.455  72.337  1.00  0.00    -0.141 NA 
HETATM    7  H1  UNL     1     -11.723   7.221  72.702  1.00  0.00     0.000 HD 
HETATM    8  H2  UNL     1     -11.429   8.177  74.203  1.00  0.00     0.000 HD 
HETATM    9  H   UNL     1      -8.341   6.209  72.342  1.00  0.00     0.000 HD 
ENDROOT
BRANCH   6  10
HETATM   10  C   UNL     1     -10.213   6.006  71.266  1.00  0.00    -0.205 C  
BRANCH  10  11
HETATM   11  C   UNL     1      -9.580   6.196  69.908  1.00  0.00    -0.183 A  
HETATM   12  C   UNL     1      -9.607   5.161  68.961  1.00  0.00    -0.204 A  
HETATM   13  C   UNL     1      -8.998   5.335  67.716  1.00  0.00    -0.109 A  
HETATM   14  C   UNL     1      -8.375   6.540  67.395  1.00  0.00    -0.120 A  
HETATM   15  I   UNL     1      -9.014   3.782  66.332  1.00  0.00    -0.179 I  
HETATM   16  C   UNL     1      -8.370   7.583  68.320  1.00  0.00    -0.125 A  
HETATM   17  C   UNL     1      -8.973   7.415  69.569  1.00  0.00    -0.144 A  
ENDBRANCH  10  11
ENDBRANCH   6  10
TORSDOF 2
ENDMDL
MODEL      228
REMARK 921   NORMALIZED FREE ENERGY PREDICTED BY IDOCK:   -2.35 KCAL/MOL
REMARK 922        TOTAL FREE ENERGY PREDICTED BY IDOCK:   -2.76 KCAL/MOL
REMARK 923 INTER-LIGAND FREE ENERGY PREDICTED BY IDOCK:   -2.64 KCAL/MOL
REMARK 924 INTRA-LIGAND FREE ENERGY PREDICTED BY IDOCK:   -0.12 KCAL/MOL
REMARK 927      BINDING AFFINITY PREDICTED BY RF-SCORE:    0.00 PKD
ROOT
HETATM    1  N   UNL     1      -6.860   6.299  68.964  1.00  0.00    -0.064 NA 
HETATM    2  C   UNL     1      -7.557   6.069  70.096  1.00  0.00    -0.095 C  
HETATM    3  H1  UNL     1      -7.120   7.189  68.538  1.00  0.00     0.000 HD 
HETATM    4  H2  UNL     1      -6.160   5.664  68.582  1.00  0.00     0.000 HD 
HETATM    5  N   UNL     1      -7.213   4.892  70.659  1.00  0.00    -0.052 NA 
HETATM    6  N   UNL     1      -8.388   6.955  70.504  1.00  0.00    -0.127 NA 
HETATM    7  H1  UNL     1      -7.740   4.719  71.516  1.00  0.00     0.000 HD 
HETATM    8  H2  UNL     1      -6.513   4.257  70.277  1.00  0.00     0.000 HD 
HETATM    9  H   UNL     1      -8.559   7.805  69.966  1.00  0.00     0.000 HD 
ENDROOT
BRANCH   6  10
HETATM   10  C   UNL     1      -9.083   6.708  71.763  1.00  0.00    -0.144 C  
BRANCH  10  11
HETATM   11  C   UNL     1     -10.516   7.181  71.710  1.00  0.00    -0.219 A  
HETATM   12  C   UNL     1     -10.809   8.549  71.598  1.00  0.00    -0.356 A  
HETATM   13  C   UNL     1     -12.136   8.981  71.575  1.00  0.00    -0.340 A  
HETATM   14  C   UNL     1     -13.182   8.061  71.645  1.00  0.00    -0.358 A  
HETATM   15  I   UNL     1     -12.560  11.013  71.443  1.00  0.00    -0.296 I  
HETATM   16  C   UNL     1     -12.898   6.698  71.727  1.00  0.00    -0.231 A  
HETATM   17  C   UNL     1     -11.572   6.259  71.754  1.00  0.00    -0.358 A  
ENDBRANCH  10  11
ENDBRANCH   6  10
TORSDOF 2
ENDMDL
MODEL      229
REMARK 921   NORMALIZED FREE ENERGY PREDICTED BY IDOCK:   -2.34 KCAL/MOL
REMARK 922        TOTAL FREE ENERGY PREDICTED BY IDOCK:   -2.75 KCAL/MOL
REMARK 923 INTER-LIGAND FREE ENERGY PREDICTED BY IDOCK:   -2.60 KCAL/MOL
REMARK 924 INTRA-LIGAND FREE ENERGY PREDICTED BY IDOCK:   -0.15 KCAL/MOL
REMARK 927      BINDING AFFINITY PREDICTED BY RF-SCORE:    0.00 PKD
ROOT
HETATM    1  N   UNL     1     -11.177  13.274  65.798  1.00  0.00    -0.292 NA 
HETATM    2  C   UNL     1     -10.327  12.474  65.123  1.00  0.00    -0.289 C  
HETATM    3  H1  UNL     1     -11.166  13.073  66.798  1.00  0.00     0.000 HD 
HETATM    4  H2  UNL     1     -11.759  13.990  65.364  1.00  0.00     0.000 HD 
HETATM    5  N   UNL     1     -10.342  12.739  63.799  1.00  0.00    -0.521 NA 
HETATM    6  N   UNL     1      -9.616  11.630  65.775  1.00  0.00    -0.230 NA 
HETATM    7  H1  UNL     1      -9.698  12.134  63.288  1.00  0.00     0.000 HD 
HETATM    8  H2  UNL     1     -10.923  13.455  63.365  1.00  0.00     0.000 HD 
HETATM    9  H   UNL     1      -9.716  11.528  66.785  1.00  0.00     0.000 HD 
ENDROOT
BRANCH   6  10
HETATM   10  C   UNL     1      -8.661  10.821  65.027  1.00  0.00    -0.151 C  
BRANCH  10  11
HETATM   11  C   UNL     1      -8.793   9.354  65.360  1.00  0.00    -0.220 A  
HETATM   12  C   UNL     1      -7.872   8.425  64.853  1.00  0.00    -0.121 A  
HETATM   13  C   UNL     1      -8.014   7.067  65.145  1.00  0.00    -0.128 A  
HETATM   14  C   UNL     1      -9.059   6.622  65.954  1.00  0.00    -0.059 A  
HETATM   15  I   UNL     1      -6.663   5.695  64.360  1.00  0.00    -0.049 I  
HETATM   16  C   UNL     1      -9.961   7.544  66.485  1.00  0.00    -0.209 A  
HETATM   17  C   UNL     1      -9.827   8.903  66.195  1.00  0.00    -0.326 A  
ENDBRANCH  10  11
ENDBRANCH   6  10
TORSDOF 2
ENDMDL
MODEL      230
REMARK 921   NORMALIZED FREE ENERGY PREDICTED BY IDOCK:   -2.34 KCAL/MOL
REMARK 922        TOTAL FREE ENERGY PREDICTED BY IDOCK:   -2.75 KCAL/MOL
REMARK 923 INTER-LIGAND FREE ENERGY PREDICTED BY IDOCK:   -2.62 KCAL/MOL
REMARK 924 INTRA-LIGAND FREE ENERGY PREDICTED BY IDOCK:   -0.13 KCAL/MOL
REMARK 927      BINDING AFFINITY PREDICTED BY RF-SCORE:    0.00 PKD
ROOT
HETATM    1  N   UNL     1      -5.305   7.411  70.953  1.00  0.00    -0.027 NA 
HETATM    2  C   UNL     1      -6.345   7.439  71.812  1.00  0.00    -0.039 C  
HETATM    3  H1  UNL     1      -5.461   8.028  70.156  1.00  0.00     0.000 HD 
HETATM    4  H2  UNL     1      -4.468   6.843  71.084  1.00  0.00     0.000 HD 
HETATM    5  N   UNL     1      -6.140   6.622  72.866  1.00  0.00    -0.053 NA 
HETATM    6  N   UNL     1      -7.333   8.218  71.567  1.00  0.00    -0.079 NA 
HETATM    7  H1  UNL     1      -6.926   6.644  73.516  1.00  0.00     0.000 HD 
HETATM    8  H2  UNL     1      -5.303   6.054  72.997  1.00  0.00     0.000 HD 
HETATM    9  H   UNL     1      -7.362   8.780  70.716  1.00  0.00     0.000 HD 
ENDROOT
BRANCH   6  10
HETATM   10  C   UNL     1      -8.414   8.275  72.543  1.00  0.00    -0.187 C  
BRANCH  10  11
HETATM   11  C   UNL     1      -9.731   7.848  71.941  1.00  0.00    -0.231 A  
HETATM   12  C   UNL     1     -10.917   8.516  72.278  1.00  0.00    -0.426 A  
HETATM   13  C   UNL     1     -12.135   8.100  71.737  1.00  0.00    -0.315 A  
HETATM   14  C   UNL     1     -12.184   7.029  70.845  1.00  0.00    -0.388 A  
HETATM   15  I   UNL     1     -13.892   9.077  72.271  1.00  0.00    -0.330 I  
HETATM   16  C   UNL     1     -11.005   6.379  70.482  1.00  0.00    -0.364 A  
HETATM   17  C   UNL     1      -9.784   6.788  71.023  1.00  0.00    -0.182 A  
ENDBRANCH  10  11
ENDBRANCH   6  10
TORSDOF 2
ENDMDL
MODEL      231
REMARK 921   NORMALIZED FREE ENERGY PREDICTED BY IDOCK:   -2.33 KCAL/MOL
REMARK 922        TOTAL FREE ENERGY PREDICTED BY IDOCK:   -2.74 KCAL/MOL
REMARK 923 INTER-LIGAND FREE ENERGY PREDICTED BY IDOCK:   -2.61 KCAL/MOL
REMARK 924 INTRA-LIGAND FREE ENERGY PREDICTED BY IDOCK:   -0.13 KCAL/MOL
REMARK 927      BINDING AFFINITY PREDICTED BY RF-SCORE:    0.00 PKD
ROOT
HETATM    1  N   UNL     1      -6.424   2.198  71.551  1.00  0.00    -0.018 NA 
HETATM    2  C   UNL     1      -7.409   2.827  72.225  1.00  0.00    -0.046 C  
HETATM    3  H1  UNL     1      -6.621   2.157  70.552  1.00  0.00     0.000 HD 
HETATM    4  H2  UNL     1      -5.587   1.812  71.987  1.00  0.00     0.000 HD 
HETATM    5  N   UNL     1      -7.148   2.881  73.548  1.00  0.00    -0.039 NA 
HETATM    6  N   UNL     1      -8.401   3.306  71.571  1.00  0.00    -0.064 NA 
HETATM    7  H1  UNL     1      -7.893   3.358  74.058  1.00  0.00     0.000 HD 
HETATM    8  H2  UNL     1      -6.311   2.495  73.984  1.00  0.00     0.000 HD 
HETATM    9  H   UNL     1      -8.476   3.182  70.561  1.00  0.00     0.000 HD 
ENDROOT
BRANCH   6  10
HETATM   10  C   UNL     1      -9.421   4.035  72.317  1.00  0.00    -0.130 C  
BRANCH  10  11
HETATM   11  C   UNL     1     -10.163   5.011  71.436  1.00  0.00    -0.270 A  
HETATM   12  C   UNL     1     -10.869   6.084  72.002  1.00  0.00    -0.300 A  
HETATM   13  C   UNL     1     -11.574   6.968  71.183  1.00  0.00    -0.312 A  
HETATM   14  C   UNL     1     -11.571   6.806  69.798  1.00  0.00    -0.284 A  
HETATM   15  I   UNL     1     -12.644   8.535  72.035  1.00  0.00    -0.437 I  
HETATM   16  C   UNL     1     -10.848   5.760  69.227  1.00  0.00    -0.374 A  
HETATM   17  C   UNL     1     -10.144   4.869  70.040  1.00  0.00    -0.337 A  
ENDBRANCH  10  11
ENDBRANCH   6  10
TORSDOF 2
ENDMDL
MODEL      232
REMARK 921   NORMALIZED FREE ENERGY PREDICTED BY IDOCK:   -2.31 KCAL/MOL
REMARK 922        TOTAL FREE ENERGY PREDICTED BY IDOCK:   -2.72 KCAL/MOL
REMARK 923 INTER-LIGAND FREE ENERGY PREDICTED BY IDOCK:   -2.57 KCAL/MOL
REMARK 924 INTRA-LIGAND FREE ENERGY PREDICTED BY IDOCK:   -0.15 KCAL/MOL
REMARK 927      BINDING AFFINITY PREDICTED BY RF-SCORE:    0.00 PKD
ROOT
HETATM    1  N   UNL     1      -7.364   1.604  70.509  1.00  0.00    -0.033 NA 
HETATM    2  C   UNL     1      -8.071   2.296  71.426  1.00  0.00    -0.050 C  
HETATM    3  H1  UNL     1      -7.802   1.647  69.589  1.00  0.00     0.000 HD 
HETATM    4  H2  UNL     1      -6.500   1.102  70.710  1.00  0.00     0.000 HD 
HETATM    5  N   UNL     1      -7.492   2.240  72.644  1.00  0.00    -0.039 NA 
HETATM    6  N   UNL     1      -9.126   2.922  71.056  1.00  0.00    -0.103 NA 
HETATM    7  H1  UNL     1      -8.026   2.763  73.338  1.00  0.00     0.000 HD 
HETATM    8  H2  UNL     1      -6.627   1.737  72.845  1.00  0.00     0.000 HD 
HETATM    9  H   UNL     1      -9.459   2.869  70.092  1.00  0.00     0.000 HD 
ENDROOT
BRANCH   6  10
HETATM   10  C   UNL     1      -9.836   3.712  72.054  1.00  0.00    -0.174 C  
BRANCH  10  11
HETATM   11  C   UNL     1     -10.352   5.007  71.475  1.00  0.00    -0.252 A  
HETATM   12  C   UNL     1     -10.229   5.271  70.103  1.00  0.00    -0.350 A  
HETATM   13  C   UNL     1     -10.686   6.482  69.579  1.00  0.00    -0.270 A  
HETATM   14  C   UNL     1     -11.284   7.431  70.407  1.00  0.00    -0.284 A  
HETATM   15  I   UNL     1     -10.468   6.877  67.549  1.00  0.00    -0.399 I  
HETATM   16  C   UNL     1     -11.436   7.163  71.767  1.00  0.00    -0.301 A  
HETATM   17  C   UNL     1     -10.977   5.956  72.298  1.00  0.00    -0.313 A  
ENDBRANCH  10  11
ENDBRANCH   6  10
TORSDOF 2
ENDMDL
MODEL      233
REMARK 921   NORMALIZED FREE ENERGY PREDICTED BY IDOCK:   -2.29 KCAL/MOL
REMARK 922        TOTAL FREE ENERGY PREDICTED BY IDOCK:   -2.69 KCAL/MOL
REMARK 923 INTER-LIGAND FREE ENERGY PREDICTED BY IDOCK:   -2.51 KCAL/MOL
REMARK 924 INTRA-LIGAND FREE ENERGY PREDICTED BY IDOCK:   -0.18 KCAL/MOL
REMARK 927      BINDING AFFINITY PREDICTED BY RF-SCORE:    0.00 PKD
ROOT
HETATM    1  N   UNL     1      -6.493   9.066  73.323  1.00  0.00    -0.322 NA 
HETATM    2  C   UNL     1      -6.754   7.968  72.583  1.00  0.00    -0.081 C  
HETATM    3  H1  UNL     1      -7.204   9.213  74.039  1.00  0.00     0.000 HD 
HETATM    4  H2  UNL     1      -5.686   9.673  73.184  1.00  0.00     0.000 HD 
HETATM    5  N   UNL     1      -5.813   7.775  71.636  1.00  0.00    -0.035 NA 
HETATM    6  N   UNL     1      -7.780   7.256  72.869  1.00  0.00    -0.088 NA 
HETATM    7  H1  UNL     1      -6.010   6.944  71.076  1.00  0.00     0.000 HD 
HETATM    8  H2  UNL     1      -5.006   8.382  71.496  1.00  0.00     0.000 HD 
HETATM    9  H   UNL     1      -8.420   7.530  73.615  1.00  0.00     0.000 HD 
ENDROOT
BRANCH   6  10
HETATM   10  C   UNL     1      -8.004   6.042  72.093  1.00  0.00    -0.106 C  
BRANCH  10  11
HETATM   11  C   UNL     1      -9.237   6.153  71.229  1.00  0.00    -0.157 A  
HETATM   12  C   UNL     1      -9.131   6.111  69.831  1.00  0.00    -0.146 A  
HETATM   13  C   UNL     1     -10.272   6.239  69.037  1.00  0.00    -0.184 A  
HETATM   14  C   UNL     1     -11.528   6.392  69.623  1.00  0.00    -0.446 A  
HETATM   15  I   UNL     1     -10.099   6.210  66.965  1.00  0.00    -0.309 I  
HETATM   16  C   UNL     1     -11.645   6.404  71.013  1.00  0.00    -0.386 A  
HETATM   17  C   UNL     1     -10.506   6.281  71.812  1.00  0.00    -0.249 A  
ENDBRANCH  10  11
ENDBRANCH   6  10
TORSDOF 2
ENDMDL
MODEL      234
REMARK 921   NORMALIZED FREE ENERGY PREDICTED BY IDOCK:   -2.28 KCAL/MOL
REMARK 922        TOTAL FREE ENERGY PREDICTED BY IDOCK:   -2.68 KCAL/MOL
REMARK 923 INTER-LIGAND FREE ENERGY PREDICTED BY IDOCK:   -2.50 KCAL/MOL
REMARK 924 INTRA-LIGAND FREE ENERGY PREDICTED BY IDOCK:   -0.18 KCAL/MOL
REMARK 927      BINDING AFFINITY PREDICTED BY RF-SCORE:    0.00 PKD
ROOT
HETATM    1  N   UNL     1     -11.963   6.706  69.857  1.00  0.00    -0.639 NA 
HETATM    2  C   UNL     1     -10.869   6.835  69.077  1.00  0.00    -0.249 C  
HETATM    3  H1  UNL     1     -12.817   6.669  69.300  1.00  0.00     0.000 HD 
HETATM    4  H2  UNL     1     -11.939   6.653  70.875  1.00  0.00     0.000 HD 
HETATM    5  N   UNL     1      -9.739   6.885  69.813  1.00  0.00    -0.164 NA 
HETATM    6  N   UNL     1     -11.013   6.856  67.804  1.00  0.00    -0.489 NA 
HETATM    7  H1  UNL     1      -8.912   6.982  69.224  1.00  0.00     0.000 HD 
HETATM    8  H2  UNL     1      -9.715   6.831  70.831  1.00  0.00     0.000 HD 
HETATM    9  H   UNL     1     -11.939   6.820  67.377  1.00  0.00     0.000 HD 
ENDROOT
BRANCH   6  10
HETATM   10  C   UNL     1      -9.809   6.934  66.984  1.00  0.00    -0.174 C  
BRANCH  10  11
HETATM   11  C   UNL     1      -9.524   5.624  66.289  1.00  0.00    -0.171 A  
HETATM   12  C   UNL     1      -8.230   5.083  66.296  1.00  0.00    -0.108 A  
HETATM   13  C   UNL     1      -7.967   3.884  65.630  1.00  0.00    -0.093 A  
HETATM   14  C   UNL     1      -8.989   3.205  64.966  1.00  0.00    -0.139 A  
HETATM   15  I   UNL     1      -6.038   3.109  65.620  1.00  0.00    -0.025 I  
HETATM   16  C   UNL     1     -10.284   3.722  64.979  1.00  0.00    -0.084 A  
HETATM   17  C   UNL     1     -10.552   4.923  65.640  1.00  0.00    -0.165 A  
ENDBRANCH  10  11
ENDBRANCH   6  10
TORSDOF 2
ENDMDL
MODEL      235
REMARK 921   NORMALIZED FREE ENERGY PREDICTED BY IDOCK:   -2.27 KCAL/MOL
REMARK 922        TOTAL FREE ENERGY PREDICTED BY IDOCK:   -2.68 KCAL/MOL
REMARK 923 INTER-LIGAND FREE ENERGY PREDICTED BY IDOCK:   -2.51 KCAL/MOL
REMARK 924 INTRA-LIGAND FREE ENERGY PREDICTED BY IDOCK:   -0.17 KCAL/MOL
REMARK 927      BINDING AFFINITY PREDICTED BY RF-SCORE:    0.00 PKD
ROOT
HETATM    1  N   UNL     1      -7.957   7.155  66.061  1.00  0.00    -0.106 NA 
HETATM    2  C   UNL     1      -8.689   7.997  66.820  1.00  0.00    -0.133 C  
HETATM    3  H1  UNL     1      -7.094   6.881  66.531  1.00  0.00     0.000 HD 
HETATM    4  H2  UNL     1      -8.231   6.832  65.134  1.00  0.00     0.000 HD 
HETATM    5  N   UNL     1      -9.830   8.359  66.197  1.00  0.00    -0.458 NA 
HETATM    6  N   UNL     1      -8.264   8.309  67.987  1.00  0.00    -0.127 NA 
HETATM    7  H1  UNL     1     -10.384   8.995  66.771  1.00  0.00     0.000 HD 
HETATM    8  H2  UNL     1     -10.105   8.036  65.270  1.00  0.00     0.000 HD 
HETATM    9  H   UNL     1      -7.367   7.966  68.331  1.00  0.00     0.000 HD 
ENDROOT
BRANCH   6  10
HETATM   10  C   UNL     1      -9.105   9.171  68.810  1.00  0.00    -0.136 C  
BRANCH  10  11
HETATM   11  C   UNL     1      -9.581   8.461  70.055  1.00  0.00    -0.168 A  
HETATM   12  C   UNL     1      -8.744   8.354  71.175  1.00  0.00    -0.194 A  
HETATM   13  C   UNL     1      -9.181   7.674  72.314  1.00  0.00    -0.144 A  
HETATM   14  C   UNL     1     -10.457   7.112  72.356  1.00  0.00    -0.247 A  
HETATM   15  I   UNL     1      -7.920   7.492  73.957  1.00  0.00    -0.260 I  
HETATM   16  C   UNL     1     -11.304   7.240  71.257  1.00  0.00    -0.290 A  
HETATM   17  C   UNL     1     -10.872   7.915  70.113  1.00  0.00    -0.243 A  
ENDBRANCH  10  11
ENDBRANCH   6  10
TORSDOF 2
ENDMDL
MODEL      236
REMARK 921   NORMALIZED FREE ENERGY PREDICTED BY IDOCK:   -2.23 KCAL/MOL
REMARK 922        TOTAL FREE ENERGY PREDICTED BY IDOCK:   -2.63 KCAL/MOL
REMARK 923 INTER-LIGAND FREE ENERGY PREDICTED BY IDOCK:   -2.50 KCAL/MOL
REMARK 924 INTRA-LIGAND FREE ENERGY PREDICTED BY IDOCK:   -0.14 KCAL/MOL
REMARK 927      BINDING AFFINITY PREDICTED BY RF-SCORE:    0.00 PKD
ROOT
HETATM    1  N   UNL     1      -8.991   4.300  74.396  1.00  0.00    -0.100 NA 
HETATM    2  C   UNL     1      -8.650   5.575  74.116  1.00  0.00    -0.116 C  
HETATM    3  H1  UNL     1      -9.943   4.092  74.093  1.00  0.00     0.000 HD 
HETATM    4  H2  UNL     1      -8.376   3.629  74.854  1.00  0.00     0.000 HD 
HETATM    5  N   UNL     1      -7.392   5.851  74.518  1.00  0.00    -0.091 NA 
HETATM    6  N   UNL     1      -9.492   6.324  73.505  1.00  0.00    -0.138 NA 
HETATM    7  H1  UNL     1      -7.133   6.815  74.305  1.00  0.00     0.000 HD 
HETATM    8  H2  UNL     1      -6.776   5.180  74.975  1.00  0.00     0.000 HD 
HETATM    9  H   UNL     1     -10.424   5.984  73.268  1.00  0.00     0.000 HD 
ENDROOT
BRANCH   6  10
HETATM   10  C   UNL     1      -9.074   7.677  73.160  1.00  0.00    -0.200 C  
BRANCH  10  11
HETATM   11  C   UNL     1      -9.519   8.060  71.768  1.00  0.00    -0.223 A  
HETATM   12  C   UNL     1     -10.389   9.143  71.573  1.00  0.00    -0.414 A  
HETATM   13  C   UNL     1     -10.816   9.475  70.286  1.00  0.00    -0.269 A  
HETATM   14  C   UNL     1     -10.371   8.748  69.183  1.00  0.00    -0.227 A  
HETATM   15  I   UNL     1     -12.131  11.063  70.011  1.00  0.00    -0.410 I  
HETATM   16  C   UNL     1      -9.484   7.688  69.367  1.00  0.00    -0.152 A  
HETATM   17  C   UNL     1      -9.056   7.348  70.652  1.00  0.00    -0.156 A  
ENDBRANCH  10  11
ENDBRANCH   6  10
TORSDOF 2
ENDMDL
MODEL      237
REMARK 921   NORMALIZED FREE ENERGY PREDICTED BY IDOCK:   -2.23 KCAL/MOL
REMARK 922        TOTAL FREE ENERGY PREDICTED BY IDOCK:   -2.63 KCAL/MOL
REMARK 923 INTER-LIGAND FREE ENERGY PREDICTED BY IDOCK:   -2.44 KCAL/MOL
REMARK 924 INTRA-LIGAND FREE ENERGY PREDICTED BY IDOCK:   -0.19 KCAL/MOL
REMARK 927      BINDING AFFINITY PREDICTED BY RF-SCORE:    0.00 PKD
ROOT
HETATM    1  N   UNL     1      -6.013   6.632  71.831  1.00  0.00    -0.037 NA 
HETATM    2  C   UNL     1      -7.325   6.402  71.612  1.00  0.00    -0.088 C  
HETATM    3  H1  UNL     1      -5.773   7.610  71.670  1.00  0.00     0.000 HD 
HETATM    4  H2  UNL     1      -5.346   5.917  72.121  1.00  0.00     0.000 HD 
HETATM    5  N   UNL     1      -7.643   5.107  71.824  1.00  0.00    -0.103 NA 
HETATM    6  N   UNL     1      -8.081   7.382  71.285  1.00  0.00    -0.100 NA 
HETATM    7  H1  UNL     1      -8.635   4.934  71.659  1.00  0.00     0.000 HD 
HETATM    8  H2  UNL     1      -6.976   4.393  72.114  1.00  0.00     0.000 HD 
HETATM    9  H   UNL     1      -7.700   8.319  71.147  1.00  0.00     0.000 HD 
ENDROOT
BRANCH   6  10
HETATM   10  C   UNL     1      -9.505   7.118  71.115  1.00  0.00    -0.157 C  
BRANCH  10  11
HETATM   11  C   UNL     1      -9.919   7.209  69.666  1.00  0.00    -0.176 A  
HETATM   12  C   UNL     1      -9.827   8.427  68.976  1.00  0.00    -0.184 A  
HETATM   13  C   UNL     1     -10.236   8.511  67.644  1.00  0.00    -0.236 A  
HETATM   14  C   UNL     1     -10.722   7.385  66.980  1.00  0.00    -0.389 A  
HETATM   15  I   UNL     1     -10.126  10.330  66.641  1.00  0.00    -0.271 I  
HETATM   16  C   UNL     1     -10.789   6.164  67.651  1.00  0.00    -0.421 A  
HETATM   17  C   UNL     1     -10.386   6.074  68.985  1.00  0.00    -0.283 A  
ENDBRANCH  10  11
ENDBRANCH   6  10
TORSDOF 2
ENDMDL
MODEL      238
REMARK 921   NORMALIZED FREE ENERGY PREDICTED BY IDOCK:   -2.20 KCAL/MOL
REMARK 922        TOTAL FREE ENERGY PREDICTED BY IDOCK:   -2.59 KCAL/MOL
REMARK 923 INTER-LIGAND FREE ENERGY PREDICTED BY IDOCK:   -2.45 KCAL/MOL
REMARK 924 INTRA-LIGAND FREE ENERGY PREDICTED BY IDOCK:   -0.14 KCAL/MOL
REMARK 927      BINDING AFFINITY PREDICTED BY RF-SCORE:    0.00 PKD
ROOT
HETATM    1  N   UNL     1      -7.680   2.587  68.518  1.00  0.00    -0.054 NA 
HETATM    2  C   UNL     1      -8.497   3.651  68.370  1.00  0.00    -0.088 C  
HETATM    3  H1  UNL     1      -6.989   2.746  69.251  1.00  0.00     0.000 HD 
HETATM    4  H2  UNL     1      -7.746   1.732  67.967  1.00  0.00     0.000 HD 
HETATM    5  N   UNL     1      -9.412   3.441  67.400  1.00  0.00    -0.257 NA 
HETATM    6  N   UNL     1      -8.347   4.663  69.141  1.00  0.00    -0.080 NA 
HETATM    7  H1  UNL     1     -10.030   4.246  67.288  1.00  0.00     0.000 HD 
HETATM    8  H2  UNL     1      -9.478   2.586  66.849  1.00  0.00     0.000 HD 
HETATM    9  H   UNL     1      -7.597   4.691  69.833  1.00  0.00     0.000 HD 
ENDROOT
BRANCH   6  10
HETATM   10  C   UNL     1      -9.282   5.772  69.000  1.00  0.00    -0.119 C  
BRANCH  10  11
HETATM   11  C   UNL     1      -9.846   6.199  70.335  1.00  0.00    -0.214 A  
HETATM   12  C   UNL     1      -8.989   6.534  71.394  1.00  0.00    -0.140 A  
HETATM   13  C   UNL     1      -9.517   6.903  72.632  1.00  0.00    -0.142 A  
HETATM   14  C   UNL     1     -10.897   6.960  72.825  1.00  0.00    -0.305 A  
HETATM   15  I   UNL     1      -8.236   7.365  74.205  1.00  0.00    -0.273 I  
HETATM   16  C   UNL     1     -11.754   6.656  71.768  1.00  0.00    -0.363 A  
HETATM   17  C   UNL     1     -11.233   6.282  70.528  1.00  0.00    -0.420 A  
ENDBRANCH  10  11
ENDBRANCH   6  10
TORSDOF 2
ENDMDL
MODEL      239
REMARK 921   NORMALIZED FREE ENERGY PREDICTED BY IDOCK:   -2.20 KCAL/MOL
REMARK 922        TOTAL FREE ENERGY PREDICTED BY IDOCK:   -2.59 KCAL/MOL
REMARK 923 INTER-LIGAND FREE ENERGY PREDICTED BY IDOCK:   -2.39 KCAL/MOL
REMARK 924 INTRA-LIGAND FREE ENERGY PREDICTED BY IDOCK:   -0.20 KCAL/MOL
REMARK 927      BINDING AFFINITY PREDICTED BY RF-SCORE:    0.00 PKD
ROOT
HETATM    1  N   UNL     1      -6.665   7.468  64.084  1.00  0.00    -0.051 NA 
HETATM    2  C   UNL     1      -7.873   7.576  64.677  1.00  0.00    -0.130 C  
HETATM    3  H1  UNL     1      -6.029   6.891  64.634  1.00  0.00     0.000 HD 
HETATM    4  H2  UNL     1      -6.420   7.908  63.197  1.00  0.00     0.000 HD 
HETATM    5  N   UNL     1      -8.715   8.339  63.950  1.00  0.00    -0.378 NA 
HETATM    6  N   UNL     1      -8.084   6.951  65.775  1.00  0.00    -0.116 NA 
HETATM    7  H1  UNL     1      -9.628   8.421  64.398  1.00  0.00     0.000 HD 
HETATM    8  H2  UNL     1      -8.470   8.779  63.063  1.00  0.00     0.000 HD 
HETATM    9  H   UNL     1      -7.344   6.412  66.225  1.00  0.00     0.000 HD 
ENDROOT
BRANCH   6  10
HETATM   10  C   UNL     1      -9.416   7.035  66.362  1.00  0.00    -0.124 C  
BRANCH  10  11
HETATM   11  C   UNL     1      -9.448   7.982  67.537  1.00  0.00    -0.177 A  
HETATM   12  C   UNL     1     -10.249   9.133  67.501  1.00  0.00    -0.304 A  
HETATM   13  C   UNL     1     -10.255  10.018  68.581  1.00  0.00    -0.180 A  
HETATM   14  C   UNL     1      -9.481   9.759  69.712  1.00  0.00    -0.253 A  
HETATM   15  I   UNL     1     -11.421  11.738  68.502  1.00  0.00    -0.419 I  
HETATM   16  C   UNL     1      -8.704   8.602  69.767  1.00  0.00    -0.132 A  
HETATM   17  C   UNL     1      -8.691   7.716  68.688  1.00  0.00    -0.128 A  
ENDBRANCH  10  11
ENDBRANCH   6  10
TORSDOF 2
ENDMDL
MODEL      240
REMARK 921   NORMALIZED FREE ENERGY PREDICTED BY IDOCK:   -2.15 KCAL/MOL
REMARK 922        TOTAL FREE ENERGY PREDICTED BY IDOCK:   -2.55 KCAL/MOL
REMARK 923 INTER-LIGAND FREE ENERGY PREDICTED BY IDOCK:   -2.53 KCAL/MOL
REMARK 924 INTRA-LIGAND FREE ENERGY PREDICTED BY IDOCK:   -0.02 KCAL/MOL
REMARK 927      BINDING AFFINITY PREDICTED BY RF-SCORE:    0.00 PKD
ROOT
HETATM    1  N   UNL     1     -10.032   7.523  66.283  1.00  0.00    -0.459 NA 
HETATM    2  C   UNL     1     -10.304   6.942  67.470  1.00  0.00    -0.217 C  
HETATM    3  H1  UNL     1      -9.032   7.694  66.171  1.00  0.00     0.000 HD 
HETATM    4  H2  UNL     1     -10.736   7.762  65.585  1.00  0.00     0.000 HD 
HETATM    5  N   UNL     1     -11.627   6.716  67.618  1.00  0.00    -0.589 NA 
HETATM    6  N   UNL     1      -9.336   6.653  68.257  1.00  0.00    -0.120 NA 
HETATM    7  H1  UNL     1     -11.833   6.276  68.515  1.00  0.00     0.000 HD 
HETATM    8  H2  UNL     1     -12.331   6.954  66.921  1.00  0.00     0.000 HD 
HETATM    9  H   UNL     1      -8.373   6.893  68.019  1.00  0.00     0.000 HD 
ENDROOT
BRANCH   6  10
HETATM   10  C   UNL     1      -9.654   5.969  69.505  1.00  0.00    -0.143 C  
BRANCH  10  11
HETATM   11  C   UNL     1      -9.308   4.501  69.440  1.00  0.00    -0.217 A  
HETATM   12  C   UNL     1      -8.775   3.846  70.560  1.00  0.00    -0.123 A  
HETATM   13  C   UNL     1      -8.434   2.494  70.485  1.00  0.00    -0.050 A  
HETATM   14  C   UNL     1      -8.635   1.778  69.305  1.00  0.00    -0.097 A  
HETATM   15  I   UNL     1      -7.614   1.542  72.142  1.00  0.00    -0.041 I  
HETATM   16  C   UNL     1      -9.191   2.415  68.197  1.00  0.00    -0.255 A  
HETATM   17  C   UNL     1      -9.530   3.768  68.264  1.00  0.00    -0.215 A  
ENDBRANCH  10  11
ENDBRANCH   6  10
TORSDOF 2
ENDMDL
MODEL      241
REMARK 921   NORMALIZED FREE ENERGY PREDICTED BY IDOCK:   -2.15 KCAL/MOL
REMARK 922        TOTAL FREE ENERGY PREDICTED BY IDOCK:   -2.54 KCAL/MOL
REMARK 923 INTER-LIGAND FREE ENERGY PREDICTED BY IDOCK:   -2.47 KCAL/MOL
REMARK 924 INTRA-LIGAND FREE ENERGY PREDICTED BY IDOCK:   -0.07 KCAL/MOL
REMARK 927      BINDING AFFINITY PREDICTED BY RF-SCORE:    0.00 PKD
ROOT
HETATM    1  N   UNL     1     -10.065   7.512  66.153  1.00  0.00    -0.411 NA 
HETATM    2  C   UNL     1     -10.229   6.948  67.368  1.00  0.00    -0.203 C  
HETATM    3  H1  UNL     1      -9.097   7.796  66.000  1.00  0.00     0.000 HD 
HETATM    4  H2  UNL     1     -10.814   7.640  65.474  1.00  0.00     0.000 HD 
HETATM    5  N   UNL     1     -11.509   6.574  67.571  1.00  0.00    -0.714 NA 
HETATM    6  N   UNL     1      -9.209   6.806  68.130  1.00  0.00    -0.123 NA 
HETATM    7  H1  UNL     1     -11.634   6.147  68.490  1.00  0.00     0.000 HD 
HETATM    8  H2  UNL     1     -12.259   6.701  66.892  1.00  0.00     0.000 HD 
HETATM    9  H   UNL     1      -8.289   7.149  67.850  1.00  0.00     0.000 HD 
ENDROOT
BRANCH   6  10
HETATM   10  C   UNL     1      -9.403   6.138  69.411  1.00  0.00    -0.139 C  
BRANCH  10  11
HETATM   11  C   UNL     1      -9.172   4.649  69.304  1.00  0.00    -0.185 A  
HETATM   12  C   UNL     1      -8.385   4.126  68.268  1.00  0.00    -0.099 A  
HETATM   13  C   UNL     1      -8.195   2.747  68.160  1.00  0.00    -0.069 A  
HETATM   14  C   UNL     1      -8.770   1.879  69.088  1.00  0.00    -0.113 A  
HETATM   15  I   UNL     1      -7.054   1.979  66.600  1.00  0.00    -0.049 I  
HETATM   16  C   UNL     1      -9.529   2.394  70.137  1.00  0.00    -0.144 A  
HETATM   17  C   UNL     1      -9.726   3.772  70.248  1.00  0.00    -0.222 A  
ENDBRANCH  10  11
ENDBRANCH   6  10
TORSDOF 2
ENDMDL
MODEL      242
REMARK 921   NORMALIZED FREE ENERGY PREDICTED BY IDOCK:   -2.14 KCAL/MOL
REMARK 922        TOTAL FREE ENERGY PREDICTED BY IDOCK:   -2.54 KCAL/MOL
REMARK 923 INTER-LIGAND FREE ENERGY PREDICTED BY IDOCK:   -2.35 KCAL/MOL
REMARK 924 INTRA-LIGAND FREE ENERGY PREDICTED BY IDOCK:   -0.19 KCAL/MOL
REMARK 927      BINDING AFFINITY PREDICTED BY RF-SCORE:    0.00 PKD
ROOT
HETATM    1  N   UNL     1      -9.671  13.240  66.393  1.00  0.00    -0.275 NA 
HETATM    2  C   UNL     1      -9.727  12.060  65.739  1.00  0.00    -0.235 C  
HETATM    3  H1  UNL     1      -8.714  13.478  66.652  1.00  0.00     0.000 HD 
HETATM    4  H2  UNL     1     -10.483  13.820  66.602  1.00  0.00     0.000 HD 
HETATM    5  N   UNL     1     -10.994  11.744  65.396  1.00  0.00    -0.305 NA 
HETATM    6  N   UNL     1      -8.638  11.430  65.498  1.00  0.00    -0.386 NA 
HETATM    7  H1  UNL     1     -11.037  10.853  64.902  1.00  0.00     0.000 HD 
HETATM    8  H2  UNL     1     -11.806  12.324  65.605  1.00  0.00     0.000 HD 
HETATM    9  H   UNL     1      -7.740  11.785  65.829  1.00  0.00     0.000 HD 
ENDROOT
BRANCH   6  10
HETATM   10  C   UNL     1      -8.722  10.190  64.737  1.00  0.00    -0.185 C  
BRANCH  10  11
HETATM   11  C   UNL     1      -8.354   8.993  65.580  1.00  0.00    -0.138 A  
HETATM   12  C   UNL     1      -9.351   8.138  66.073  1.00  0.00    -0.184 A  
HETATM   13  C   UNL     1      -9.005   7.046  66.872  1.00  0.00    -0.126 A  
HETATM   14  C   UNL     1      -7.669   6.785  67.175  1.00  0.00    -0.104 A  
HETATM   15  I   UNL     1     -10.494   5.805  67.626  1.00  0.00    -0.272 I  
HETATM   16  C   UNL     1      -6.671   7.614  66.664  1.00  0.00    -0.062 A  
HETATM   17  C   UNL     1      -7.010   8.710  65.867  1.00  0.00    -0.075 A  
ENDBRANCH  10  11
ENDBRANCH   6  10
TORSDOF 2
ENDMDL
MODEL      243
REMARK 921   NORMALIZED FREE ENERGY PREDICTED BY IDOCK:   -2.13 KCAL/MOL
REMARK 922        TOTAL FREE ENERGY PREDICTED BY IDOCK:   -2.52 KCAL/MOL
REMARK 923 INTER-LIGAND FREE ENERGY PREDICTED BY IDOCK:   -2.40 KCAL/MOL
REMARK 924 INTRA-LIGAND FREE ENERGY PREDICTED BY IDOCK:   -0.12 KCAL/MOL
REMARK 927      BINDING AFFINITY PREDICTED BY RF-SCORE:    0.00 PKD
ROOT
HETATM    1  N   UNL     1      -5.897   9.288  73.549  1.00  0.00    -0.305 NA 
HETATM    2  C   UNL     1      -6.355   8.181  72.928  1.00  0.00    -0.081 C  
HETATM    3  H1  UNL     1      -6.202   9.325  74.521  1.00  0.00     0.000 HD 
HETATM    4  H2  UNL     1      -5.318   9.999  73.102  1.00  0.00     0.000 HD 
HETATM    5  N   UNL     1      -5.952   8.132  71.641  1.00  0.00    -0.036 NA 
HETATM    6  N   UNL     1      -7.046   7.335  73.597  1.00  0.00    -0.075 NA 
HETATM    7  H1  UNL     1      -6.298   7.295  71.172  1.00  0.00     0.000 HD 
HETATM    8  H2  UNL     1      -5.373   8.843  71.194  1.00  0.00     0.000 HD 
HETATM    9  H   UNL     1      -7.288   7.506  74.573  1.00  0.00     0.000 HD 
ENDROOT
BRANCH   6  10
HETATM   10  C   UNL     1      -7.476   6.118  72.918  1.00  0.00    -0.097 C  
BRANCH  10  11
HETATM   11  C   UNL     1      -8.978   6.059  72.778  1.00  0.00    -0.123 A  
HETATM   12  C   UNL     1      -9.690   7.167  72.293  1.00  0.00    -0.173 A  
HETATM   13  C   UNL     1     -11.081   7.114  72.190  1.00  0.00    -0.248 A  
HETATM   14  C   UNL     1     -11.775   5.959  72.550  1.00  0.00    -0.288 A  
HETATM   15  I   UNL     1     -12.130   8.774  71.501  1.00  0.00    -0.445 I  
HETATM   16  C   UNL     1     -11.071   4.845  73.005  1.00  0.00    -0.368 A  
HETATM   17  C   UNL     1      -9.680   4.892  73.114  1.00  0.00    -0.161 A  
ENDBRANCH  10  11
ENDBRANCH   6  10
TORSDOF 2
ENDMDL
MODEL      244
REMARK 921   NORMALIZED FREE ENERGY PREDICTED BY IDOCK:   -2.13 KCAL/MOL
REMARK 922        TOTAL FREE ENERGY PREDICTED BY IDOCK:   -2.52 KCAL/MOL
REMARK 923 INTER-LIGAND FREE ENERGY PREDICTED BY IDOCK:   -2.34 KCAL/MOL
REMARK 924 INTRA-LIGAND FREE ENERGY PREDICTED BY IDOCK:   -0.18 KCAL/MOL
REMARK 927      BINDING AFFINITY PREDICTED BY RF-SCORE:    0.00 PKD
ROOT
HETATM    1  N   UNL     1      -6.603  10.151  70.655  1.00  0.00    -0.278 NA 
HETATM    2  C   UNL     1      -7.779   9.505  70.801  1.00  0.00    -0.061 C  
HETATM    3  H1  UNL     1      -6.475  10.484  69.700  1.00  0.00     0.000 HD 
HETATM    4  H2  UNL     1      -5.927  10.288  71.406  1.00  0.00     0.000 HD 
HETATM    5  N   UNL     1      -7.948   9.064  72.066  1.00  0.00    -0.333 NA 
HETATM    6  N   UNL     1      -8.570   9.421  69.797  1.00  0.00    -0.158 NA 
HETATM    7  H1  UNL     1      -8.838   8.576  72.176  1.00  0.00     0.000 HD 
HETATM    8  H2  UNL     1      -7.272   9.202  72.816  1.00  0.00     0.000 HD 
HETATM    9  H   UNL     1      -8.306   9.796  68.885  1.00  0.00     0.000 HD 
ENDROOT
BRANCH   6  10
HETATM   10  C   UNL     1      -9.860   8.773  69.999  1.00  0.00    -0.178 C  
BRANCH  10  11
HETATM   11  C   UNL     1      -9.803   7.302  69.663  1.00  0.00    -0.163 A  
HETATM   12  C   UNL     1      -9.490   6.882  68.362  1.00  0.00    -0.128 A  
HETATM   13  C   UNL     1      -9.464   5.521  68.052  1.00  0.00    -0.114 A  
HETATM   14  C   UNL     1      -9.730   4.566  69.033  1.00  0.00    -0.235 A  
HETATM   15  I   UNL     1      -9.032   4.911  66.111  1.00  0.00    -0.144 I  
HETATM   16  C   UNL     1     -10.013   4.975  70.336  1.00  0.00    -0.317 A  
HETATM   17  C   UNL     1     -10.045   6.335  70.651  1.00  0.00    -0.230 A  
ENDBRANCH  10  11
ENDBRANCH   6  10
TORSDOF 2
ENDMDL
MODEL      245
REMARK 921   NORMALIZED FREE ENERGY PREDICTED BY IDOCK:   -2.13 KCAL/MOL
REMARK 922        TOTAL FREE ENERGY PREDICTED BY IDOCK:   -2.52 KCAL/MOL
REMARK 923 INTER-LIGAND FREE ENERGY PREDICTED BY IDOCK:   -2.40 KCAL/MOL
REMARK 924 INTRA-LIGAND FREE ENERGY PREDICTED BY IDOCK:   -0.12 KCAL/MOL
REMARK 927      BINDING AFFINITY PREDICTED BY RF-SCORE:    0.00 PKD
ROOT
HETATM    1  N   UNL     1      -9.704  10.451  64.168  1.00  0.00    -0.318 NA 
HETATM    2  C   UNL     1      -8.998  10.894  65.229  1.00  0.00    -0.186 C  
HETATM    3  H1  UNL     1     -10.446  11.103  63.913  1.00  0.00     0.000 HD 
HETATM    4  H2  UNL     1      -9.520   9.574  63.681  1.00  0.00     0.000 HD 
HETATM    5  N   UNL     1      -8.017  10.031  65.566  1.00  0.00    -0.133 NA 
HETATM    6  N   UNL     1      -9.294  12.030  65.742  1.00  0.00    -0.395 NA 
HETATM    7  H1  UNL     1      -7.483  10.366  66.368  1.00  0.00     0.000 HD 
HETATM    8  H2  UNL     1      -7.832   9.154  65.079  1.00  0.00     0.000 HD 
HETATM    9  H   UNL     1     -10.078  12.579  65.389  1.00  0.00     0.000 HD 
ENDROOT
BRANCH   6  10
HETATM   10  C   UNL     1      -8.476  12.512  66.848  1.00  0.00    -0.130 C  
BRANCH  10  11
HETATM   11  C   UNL     1      -8.891  13.896  67.287  1.00  0.00    -0.227 A  
HETATM   12  C   UNL     1      -7.975  14.743  67.926  1.00  0.00    -0.147 A  
HETATM   13  C   UNL     1      -8.373  16.012  68.352  1.00  0.00    -0.178 A  
HETATM   14  C   UNL     1      -9.676  16.457  68.130  1.00  0.00    -0.229 A  
HETATM   15  I   UNL     1      -7.015  17.248  69.329  1.00  0.00     0.104 I  
HETATM   16  C   UNL     1     -10.584  15.631  67.469  1.00  0.00    -0.297 A  
HETATM   17  C   UNL     1     -10.194  14.359  67.045  1.00  0.00    -0.263 A  
ENDBRANCH  10  11
ENDBRANCH   6  10
TORSDOF 2
ENDMDL
MODEL      246
REMARK 921   NORMALIZED FREE ENERGY PREDICTED BY IDOCK:   -2.12 KCAL/MOL
REMARK 922        TOTAL FREE ENERGY PREDICTED BY IDOCK:   -2.51 KCAL/MOL
REMARK 923 INTER-LIGAND FREE ENERGY PREDICTED BY IDOCK:   -2.36 KCAL/MOL
REMARK 924 INTRA-LIGAND FREE ENERGY PREDICTED BY IDOCK:   -0.15 KCAL/MOL
REMARK 927      BINDING AFFINITY PREDICTED BY RF-SCORE:    0.00 PKD
ROOT
HETATM    1  N   UNL     1     -11.170  11.289  69.716  1.00  0.00    -0.403 NA 
HETATM    2  C   UNL     1     -10.891   9.973  69.822  1.00  0.00    -0.273 C  
HETATM    3  H1  UNL     1     -10.331  11.834  69.516  1.00  0.00     0.000 HD 
HETATM    4  H2  UNL     1     -12.102  11.689  69.823  1.00  0.00     0.000 HD 
HETATM    5  N   UNL     1     -12.000   9.252  70.088  1.00  0.00    -0.454 NA 
HETATM    6  N   UNL     1      -9.688   9.576  69.634  1.00  0.00    -0.187 NA 
HETATM    7  H1  UNL     1     -11.789   8.257  70.168  1.00  0.00     0.000 HD 
HETATM    8  H2  UNL     1     -12.932   9.651  70.195  1.00  0.00     0.000 HD 
HETATM    9  H   UNL     1      -8.936  10.241  69.448  1.00  0.00     0.000 HD 
ENDROOT
BRANCH   6  10
HETATM   10  C   UNL     1      -9.426   8.143  69.693  1.00  0.00    -0.159 C  
BRANCH  10  11
HETATM   11  C   UNL     1      -8.848   7.628  68.396  1.00  0.00    -0.130 A  
HETATM   12  C   UNL     1      -8.738   8.473  67.283  1.00  0.00    -0.133 A  
HETATM   13  C   UNL     1      -8.226   7.984  66.079  1.00  0.00    -0.120 A  
HETATM   14  C   UNL     1      -7.804   6.659  65.976  1.00  0.00    -0.104 A  
HETATM   15  I   UNL     1      -8.097   9.238  64.425  1.00  0.00    -0.182 I  
HETATM   16  C   UNL     1      -7.885   5.820  67.088  1.00  0.00    -0.102 A  
HETATM   17  C   UNL     1      -8.399   6.302  68.293  1.00  0.00    -0.115 A  
ENDBRANCH  10  11
ENDBRANCH   6  10
TORSDOF 2
ENDMDL
MODEL      247
REMARK 921   NORMALIZED FREE ENERGY PREDICTED BY IDOCK:   -2.11 KCAL/MOL
REMARK 922        TOTAL FREE ENERGY PREDICTED BY IDOCK:   -2.50 KCAL/MOL
REMARK 923 INTER-LIGAND FREE ENERGY PREDICTED BY IDOCK:   -2.35 KCAL/MOL
REMARK 924 INTRA-LIGAND FREE ENERGY PREDICTED BY IDOCK:   -0.15 KCAL/MOL
REMARK 927      BINDING AFFINITY PREDICTED BY RF-SCORE:    0.00 PKD
ROOT
HETATM    1  N   UNL     1     -10.947   8.591  67.128  1.00  0.00    -0.353 NA 
HETATM    2  C   UNL     1     -10.151   7.553  67.460  1.00  0.00    -0.200 C  
HETATM    3  H1  UNL     1     -10.788   9.394  67.737  1.00  0.00     0.000 HD 
HETATM    4  H2  UNL     1     -11.623   8.575  66.365  1.00  0.00     0.000 HD 
HETATM    5  N   UNL     1     -10.362   6.491  66.654  1.00  0.00    -0.401 NA 
HETATM    6  N   UNL     1      -9.311   7.695  68.416  1.00  0.00    -0.146 NA 
HETATM    7  H1  UNL     1      -9.759   5.706  66.905  1.00  0.00     0.000 HD 
HETATM    8  H2  UNL     1     -11.037   6.475  65.891  1.00  0.00     0.000 HD 
HETATM    9  H   UNL     1      -9.266   8.562  68.954  1.00  0.00     0.000 HD 
ENDROOT
BRANCH   6  10
HETATM   10  C   UNL     1      -8.421   6.579  68.713  1.00  0.00    -0.122 C  
BRANCH  10  11
HETATM   11  C   UNL     1      -8.347   6.304  70.196  1.00  0.00    -0.129 A  
HETATM   12  C   UNL     1      -9.445   5.749  70.871  1.00  0.00    -0.196 A  
HETATM   13  C   UNL     1      -9.379   5.520  72.246  1.00  0.00    -0.145 A  
HETATM   14  C   UNL     1      -8.220   5.824  72.960  1.00  0.00    -0.118 A  
HETATM   15  I   UNL     1     -11.024   4.728  73.242  1.00  0.00    -0.387 I  
HETATM   16  C   UNL     1      -7.115   6.349  72.290  1.00  0.00    -0.082 A  
HETATM   17  C   UNL     1      -7.176   6.584  70.915  1.00  0.00    -0.071 A  
ENDBRANCH  10  11
ENDBRANCH   6  10
TORSDOF 2
ENDMDL
MODEL      248
REMARK 921   NORMALIZED FREE ENERGY PREDICTED BY IDOCK:   -2.09 KCAL/MOL
REMARK 922        TOTAL FREE ENERGY PREDICTED BY IDOCK:   -2.48 KCAL/MOL
REMARK 923 INTER-LIGAND FREE ENERGY PREDICTED BY IDOCK:   -2.37 KCAL/MOL
REMARK 924 INTRA-LIGAND FREE ENERGY PREDICTED BY IDOCK:   -0.11 KCAL/MOL
REMARK 927      BINDING AFFINITY PREDICTED BY RF-SCORE:    0.00 PKD
ROOT
HETATM    1  N   UNL     1      -9.752   5.627  65.588  1.00  0.00    -0.368 NA 
HETATM    2  C   UNL     1      -9.679   4.848  66.687  1.00  0.00    -0.184 C  
HETATM    3  H1  UNL     1      -9.502   6.593  65.797  1.00  0.00     0.000 HD 
HETATM    4  H2  UNL     1     -10.023   5.292  64.664  1.00  0.00     0.000 HD 
HETATM    5  N   UNL     1     -10.010   3.569  66.410  1.00  0.00    -0.385 NA 
HETATM    6  N   UNL     1      -9.293   5.367  67.793  1.00  0.00    -0.113 NA 
HETATM    7  H1  UNL     1      -9.955   2.979  67.241  1.00  0.00     0.000 HD 
HETATM    8  H2  UNL     1     -10.281   3.234  65.486  1.00  0.00     0.000 HD 
HETATM    9  H   UNL     1      -9.081   6.363  67.862  1.00  0.00     0.000 HD 
ENDROOT
BRANCH   6  10
HETATM   10  C   UNL     1      -9.164   4.489  68.950  1.00  0.00    -0.134 C  
BRANCH  10  11
HETATM   11  C   UNL     1      -9.228   5.262  70.245  1.00  0.00    -0.185 A  
HETATM   12  C   UNL     1      -8.184   6.125  70.611  1.00  0.00    -0.121 A  
HETATM   13  C   UNL     1      -8.239   6.817  71.822  1.00  0.00    -0.106 A  
HETATM   14  C   UNL     1      -9.336   6.673  72.671  1.00  0.00    -0.149 A  
HETATM   15  I   UNL     1      -6.670   8.068  72.369  1.00  0.00    -0.103 I  
HETATM   16  C   UNL     1     -10.391   5.839  72.300  1.00  0.00    -0.244 A  
HETATM   17  C   UNL     1     -10.340   5.141  71.092  1.00  0.00    -0.276 A  
ENDBRANCH  10  11
ENDBRANCH   6  10
TORSDOF 2
ENDMDL
MODEL      249
REMARK 921   NORMALIZED FREE ENERGY PREDICTED BY IDOCK:   -2.09 KCAL/MOL
REMARK 922        TOTAL FREE ENERGY PREDICTED BY IDOCK:   -2.48 KCAL/MOL
REMARK 923 INTER-LIGAND FREE ENERGY PREDICTED BY IDOCK:   -2.32 KCAL/MOL
REMARK 924 INTRA-LIGAND FREE ENERGY PREDICTED BY IDOCK:   -0.15 KCAL/MOL
REMARK 927      BINDING AFFINITY PREDICTED BY RF-SCORE:    0.00 PKD
ROOT
HETATM    1  N   UNL     1      -7.501   1.875  72.388  1.00  0.00    -0.041 NA 
HETATM    2  C   UNL     1      -7.398   2.538  71.217  1.00  0.00    -0.033 C  
HETATM    3  H1  UNL     1      -8.468   1.624  72.592  1.00  0.00     0.000 HD 
HETATM    4  H2  UNL     1      -6.711   1.653  72.994  1.00  0.00     0.000 HD 
HETATM    5  N   UNL     1      -6.118   2.870  70.948  1.00  0.00    -0.018 NA 
HETATM    6  N   UNL     1      -8.454   2.732  70.518  1.00  0.00    -0.052 NA 
HETATM    7  H1  UNL     1      -6.040   3.371  70.062  1.00  0.00     0.000 HD 
HETATM    8  H2  UNL     1      -5.328   2.649  71.553  1.00  0.00     0.000 HD 
HETATM    9  H   UNL     1      -9.370   2.431  70.853  1.00  0.00     0.000 HD 
ENDROOT
BRANCH   6  10
HETATM   10  C   UNL     1      -8.304   3.395  69.229  1.00  0.00    -0.060 C  
BRANCH  10  11
HETATM   11  C   UNL     1      -9.338   4.480  69.038  1.00  0.00    -0.211 A  
HETATM   12  C   UNL     1     -10.016   5.017  70.142  1.00  0.00    -0.328 A  
HETATM   13  C   UNL     1     -10.988   6.002  69.956  1.00  0.00    -0.380 A  
HETATM   14  C   UNL     1     -11.282   6.474  68.677  1.00  0.00    -0.302 A  
HETATM   15  I   UNL     1     -12.012   6.766  71.596  1.00  0.00    -0.372 I  
HETATM   16  C   UNL     1     -10.591   5.965  67.578  1.00  0.00    -0.347 A  
HETATM   17  C   UNL     1      -9.620   4.977  67.757  1.00  0.00    -0.178 A  
ENDBRANCH  10  11
ENDBRANCH   6  10
TORSDOF 2
ENDMDL
MODEL      250
REMARK 921   NORMALIZED FREE ENERGY PREDICTED BY IDOCK:   -2.08 KCAL/MOL
REMARK 922        TOTAL FREE ENERGY PREDICTED BY IDOCK:   -2.46 KCAL/MOL
REMARK 923 INTER-LIGAND FREE ENERGY PREDICTED BY IDOCK:   -2.31 KCAL/MOL
REMARK 924 INTRA-LIGAND FREE ENERGY PREDICTED BY IDOCK:   -0.15 KCAL/MOL
REMARK 927      BINDING AFFINITY PREDICTED BY RF-SCORE:    0.00 PKD
ROOT
HETATM    1  N   UNL     1      -6.616  11.334  70.114  1.00  0.00    -0.391 NA 
HETATM    2  C   UNL     1      -7.343  10.203  70.236  1.00  0.00    -0.095 C  
HETATM    3  H1  UNL     1      -7.169  12.093  69.716  1.00  0.00     0.000 HD 
HETATM    4  H2  UNL     1      -5.638  11.419  70.387  1.00  0.00     0.000 HD 
HETATM    5  N   UNL     1      -6.612   9.199  70.763  1.00  0.00    -0.065 NA 
HETATM    6  N   UNL     1      -8.578  10.218  69.894  1.00  0.00    -0.374 NA 
HETATM    7  H1  UNL     1      -7.161   8.344  70.855  1.00  0.00     0.000 HD 
HETATM    8  H2  UNL     1      -5.633   9.284  71.036  1.00  0.00     0.000 HD 
HETATM    9  H   UNL     1      -9.004  11.056  69.495  1.00  0.00     0.000 HD 
ENDROOT
BRANCH   6  10
HETATM   10  C   UNL     1      -9.355   9.001  70.094  1.00  0.00    -0.192 C  
BRANCH  10  11
HETATM   11  C   UNL     1      -9.333   8.120  68.868  1.00  0.00    -0.147 A  
HETATM   12  C   UNL     1      -9.243   6.726  68.996  1.00  0.00    -0.136 A  
HETATM   13  C   UNL     1      -9.198   5.918  67.858  1.00  0.00    -0.108 A  
HETATM   14  C   UNL     1      -9.261   6.485  66.585  1.00  0.00    -0.172 A  
HETATM   15  I   UNL     1      -9.030   3.855  68.060  1.00  0.00    -0.213 I  
HETATM   16  C   UNL     1      -9.381   7.868  66.451  1.00  0.00    -0.247 A  
HETATM   17  C   UNL     1      -9.421   8.681  67.585  1.00  0.00    -0.169 A  
ENDBRANCH  10  11
ENDBRANCH   6  10
TORSDOF 2
ENDMDL
MODEL      251
REMARK 921   NORMALIZED FREE ENERGY PREDICTED BY IDOCK:   -2.08 KCAL/MOL
REMARK 922        TOTAL FREE ENERGY PREDICTED BY IDOCK:   -2.46 KCAL/MOL
REMARK 923 INTER-LIGAND FREE ENERGY PREDICTED BY IDOCK:   -2.28 KCAL/MOL
REMARK 924 INTRA-LIGAND FREE ENERGY PREDICTED BY IDOCK:   -0.17 KCAL/MOL
REMARK 927      BINDING AFFINITY PREDICTED BY RF-SCORE:    0.00 PKD
ROOT
HETATM    1  N   UNL     1      -6.491   9.060  73.322  1.00  0.00    -0.322 NA 
HETATM    2  C   UNL     1      -6.698   7.941  72.598  1.00  0.00    -0.074 C  
HETATM    3  H1  UNL     1      -7.217   9.189  74.027  1.00  0.00     0.000 HD 
HETATM    4  H2  UNL     1      -5.707   9.697  73.183  1.00  0.00     0.000 HD 
HETATM    5  N   UNL     1      -5.738   7.769  71.665  1.00  0.00    -0.035 NA 
HETATM    6  N   UNL     1      -7.699   7.193  72.882  1.00  0.00    -0.086 NA 
HETATM    7  H1  UNL     1      -5.894   6.923  71.118  1.00  0.00     0.000 HD 
HETATM    8  H2  UNL     1      -4.953   8.406  71.526  1.00  0.00     0.000 HD 
HETATM    9  H   UNL     1      -8.359   7.452  73.615  1.00  0.00     0.000 HD 
ENDROOT
BRANCH   6  10
HETATM   10  C   UNL     1      -7.864   5.958  72.124  1.00  0.00    -0.103 C  
BRANCH  10  11
HETATM   11  C   UNL     1      -9.093   6.002  71.248  1.00  0.00    -0.149 A  
HETATM   12  C   UNL     1     -10.304   6.503  71.748  1.00  0.00    -0.229 A  
HETATM   13  C   UNL     1     -11.443   6.517  70.940  1.00  0.00    -0.351 A  
HETATM   14  C   UNL     1     -11.385   6.053  69.627  1.00  0.00    -0.328 A  
HETATM   15  I   UNL     1     -13.242   7.230  71.703  1.00  0.00    -0.153 I  
HETATM   16  C   UNL     1     -10.177   5.581  69.114  1.00  0.00    -0.309 A  
HETATM   17  C   UNL     1      -9.036   5.560  69.918  1.00  0.00    -0.144 A  
ENDBRANCH  10  11
ENDBRANCH   6  10
TORSDOF 2
ENDMDL
MODEL      252
REMARK 921   NORMALIZED FREE ENERGY PREDICTED BY IDOCK:   -2.07 KCAL/MOL
REMARK 922        TOTAL FREE ENERGY PREDICTED BY IDOCK:   -2.45 KCAL/MOL
REMARK 923 INTER-LIGAND FREE ENERGY PREDICTED BY IDOCK:   -2.27 KCAL/MOL
REMARK 924 INTRA-LIGAND FREE ENERGY PREDICTED BY IDOCK:   -0.18 KCAL/MOL
REMARK 927      BINDING AFFINITY PREDICTED BY RF-SCORE:    0.00 PKD
ROOT
HETATM    1  N   UNL     1      -8.788   8.279  74.129  1.00  0.00    -0.281 NA 
HETATM    2  C   UNL     1      -9.524   7.609  73.218  1.00  0.00    -0.259 C  
HETATM    3  H1  UNL     1      -7.791   8.098  74.011  1.00  0.00     0.000 HD 
HETATM    4  H2  UNL     1      -9.179   8.889  74.846  1.00  0.00     0.000 HD 
HETATM    5  N   UNL     1     -10.843   7.848  73.374  1.00  0.00    -0.193 NA 
HETATM    6  N   UNL     1      -8.925   6.897  72.337  1.00  0.00    -0.133 NA 
HETATM    7  H1  UNL     1     -11.400   7.342  72.685  1.00  0.00     0.000 HD 
HETATM    8  H2  UNL     1     -11.234   8.459  74.091  1.00  0.00     0.000 HD 
HETATM    9  H   UNL     1      -7.909   6.796  72.343  1.00  0.00     0.000 HD 
ENDROOT
BRANCH   6  10
HETATM   10  C   UNL     1      -9.741   6.234  71.327  1.00  0.00    -0.174 C  
BRANCH  10  11
HETATM   11  C   UNL     1      -9.594   4.732  71.390  1.00  0.00    -0.224 A  
HETATM   12  C   UNL     1     -10.296   3.989  72.350  1.00  0.00    -0.207 A  
HETATM   13  C   UNL     1     -10.137   2.604  72.418  1.00  0.00    -0.166 A  
HETATM   14  C   UNL     1      -9.293   1.943  71.525  1.00  0.00    -0.179 A  
HETATM   15  I   UNL     1     -11.157   1.516  73.867  1.00  0.00    -0.228 I  
HETATM   16  C   UNL     1      -8.614   2.673  70.550  1.00  0.00    -0.105 A  
HETATM   17  C   UNL     1      -8.766   4.059  70.479  1.00  0.00    -0.120 A  
ENDBRANCH  10  11
ENDBRANCH   6  10
TORSDOF 2
ENDMDL
MODEL      253
REMARK 921   NORMALIZED FREE ENERGY PREDICTED BY IDOCK:   -2.06 KCAL/MOL
REMARK 922        TOTAL FREE ENERGY PREDICTED BY IDOCK:   -2.45 KCAL/MOL
REMARK 923 INTER-LIGAND FREE ENERGY PREDICTED BY IDOCK:   -2.28 KCAL/MOL
REMARK 924 INTRA-LIGAND FREE ENERGY PREDICTED BY IDOCK:   -0.17 KCAL/MOL
REMARK 927      BINDING AFFINITY PREDICTED BY RF-SCORE:    0.00 PKD
ROOT
HETATM    1  N   UNL     1     -11.105   6.904  70.597  1.00  0.00    -0.263 NA 
HETATM    2  C   UNL     1     -10.512   6.881  69.385  1.00  0.00    -0.217 C  
HETATM    3  H1  UNL     1     -11.713   7.716  70.701  1.00  0.00     0.000 HD 
HETATM    4  H2  UNL     1     -10.963   6.197  71.318  1.00  0.00     0.000 HD 
HETATM    5  N   UNL     1      -9.707   5.807  69.247  1.00  0.00    -0.137 NA 
HETATM    6  N   UNL     1     -10.789   7.803  68.540  1.00  0.00    -0.417 NA 
HETATM    7  H1  UNL     1      -9.259   5.790  68.330  1.00  0.00     0.000 HD 
HETATM    8  H2  UNL     1      -9.565   5.100  69.968  1.00  0.00     0.000 HD 
HETATM    9  H   UNL     1     -11.416   8.571  68.785  1.00  0.00     0.000 HD 
ENDROOT
BRANCH   6  10
HETATM   10  C   UNL     1     -10.182   7.721  67.217  1.00  0.00    -0.273 C  
BRANCH  10  11
HETATM   11  C   UNL     1      -9.189   8.836  66.990  1.00  0.00    -0.177 A  
HETATM   12  C   UNL     1      -7.959   8.840  67.665  1.00  0.00    -0.106 A  
HETATM   13  C   UNL     1      -7.056   9.886  67.469  1.00  0.00    -0.088 A  
HETATM   14  C   UNL     1      -7.357  10.926  66.590  1.00  0.00    -0.139 A  
HETATM   15  I   UNL     1      -5.250   9.900  68.501  1.00  0.00    -0.029 I  
HETATM   16  C   UNL     1      -8.565  10.913  65.893  1.00  0.00    -0.179 A  
HETATM   17  C   UNL     1      -9.475   9.872  66.088  1.00  0.00    -0.254 A  
ENDBRANCH  10  11
ENDBRANCH   6  10
TORSDOF 2
ENDMDL
MODEL      254
REMARK 921   NORMALIZED FREE ENERGY PREDICTED BY IDOCK:   -2.06 KCAL/MOL
REMARK 922        TOTAL FREE ENERGY PREDICTED BY IDOCK:   -2.44 KCAL/MOL
REMARK 923 INTER-LIGAND FREE ENERGY PREDICTED BY IDOCK:   -2.34 KCAL/MOL
REMARK 924 INTRA-LIGAND FREE ENERGY PREDICTED BY IDOCK:   -0.10 KCAL/MOL
REMARK 927      BINDING AFFINITY PREDICTED BY RF-SCORE:    0.00 PKD
ROOT
HETATM    1  N   UNL     1      -8.061   6.405  66.018  1.00  0.00    -0.114 NA 
HETATM    2  C   UNL     1      -8.171   7.551  66.721  1.00  0.00    -0.124 C  
HETATM    3  H1  UNL     1      -7.581   6.555  65.131  1.00  0.00     0.000 HD 
HETATM    4  H2  UNL     1      -8.412   5.501  66.333  1.00  0.00     0.000 HD 
HETATM    5  N   UNL     1      -8.807   7.352  67.895  1.00  0.00    -0.133 NA 
HETATM    6  N   UNL     1      -7.660   8.625  66.245  1.00  0.00    -0.093 NA 
HETATM    7  H1  UNL     1      -8.890   8.219  68.428  1.00  0.00     0.000 HD 
HETATM    8  H2  UNL     1      -9.159   6.449  68.211  1.00  0.00     0.000 HD 
HETATM    9  H   UNL     1      -7.212   8.633  65.328  1.00  0.00     0.000 HD 
ENDROOT
BRANCH   6  10
HETATM   10  C   UNL     1      -7.740   9.835  67.054  1.00  0.00    -0.095 C  
BRANCH  10  11
HETATM   11  C   UNL     1      -8.646  10.867  66.424  1.00  0.00    -0.160 A  
HETATM   12  C   UNL     1      -8.597  12.205  66.843  1.00  0.00    -0.191 A  
HETATM   13  C   UNL     1      -9.454  13.149  66.274  1.00  0.00    -0.185 A  
HETATM   14  C   UNL     1     -10.354  12.777  65.276  1.00  0.00    -0.313 A  
HETATM   15  I   UNL     1      -9.396  15.123  66.926  1.00  0.00    -0.310 I  
HETATM   16  C   UNL     1     -10.388  11.455  64.835  1.00  0.00    -0.347 A  
HETATM   17  C   UNL     1      -9.536  10.505  65.402  1.00  0.00    -0.273 A  
ENDBRANCH  10  11
ENDBRANCH   6  10
TORSDOF 2
ENDMDL
MODEL      255
REMARK 921   NORMALIZED FREE ENERGY PREDICTED BY IDOCK:   -2.06 KCAL/MOL
REMARK 922        TOTAL FREE ENERGY PREDICTED BY IDOCK:   -2.44 KCAL/MOL
REMARK 923 INTER-LIGAND FREE ENERGY PREDICTED BY IDOCK:   -2.32 KCAL/MOL
REMARK 924 INTRA-LIGAND FREE ENERGY PREDICTED BY IDOCK:   -0.12 KCAL/MOL
REMARK 927      BINDING AFFINITY PREDICTED BY RF-SCORE:    0.00 PKD
ROOT
HETATM    1  N   UNL     1      -8.522   7.125  74.398  1.00  0.00    -0.178 NA 
HETATM    2  C   UNL     1      -8.182   8.117  73.549  1.00  0.00    -0.215 C  
HETATM    3  H1  UNL     1      -9.300   6.573  74.036  1.00  0.00     0.000 HD 
HETATM    4  H2  UNL     1      -8.060   6.948  75.289  1.00  0.00     0.000 HD 
HETATM    5  N   UNL     1      -7.153   8.847  74.028  1.00  0.00    -0.385 NA 
HETATM    6  N   UNL     1      -8.808   8.225  72.437  1.00  0.00    -0.200 NA 
HETATM    7  H1  UNL     1      -6.895   9.597  73.386  1.00  0.00     0.000 HD 
HETATM    8  H2  UNL     1      -6.690   8.671  74.919  1.00  0.00     0.000 HD 
HETATM    9  H   UNL     1      -9.583   7.603  72.205  1.00  0.00     0.000 HD 
ENDROOT
BRANCH   6  10
HETATM   10  C   UNL     1      -8.379   9.267  71.512  1.00  0.00     0.299 C  
BRANCH  10  11
HETATM   11  C   UNL     1      -9.075   9.149  70.177  1.00  0.00    -0.229 A  
HETATM   12  C   UNL     1      -9.577  10.290  69.534  1.00  0.00    -0.225 A  
HETATM   13  C   UNL     1     -10.242  10.171  68.312  1.00  0.00    -0.166 A  
HETATM   14  C   UNL     1     -10.400   8.922  67.711  1.00  0.00    -0.301 A  
HETATM   15  I   UNL     1     -11.011  11.865  67.383  1.00  0.00    -0.385 I  
HETATM   16  C   UNL     1      -9.878   7.787  68.331  1.00  0.00    -0.180 A  
HETATM   17  C   UNL     1      -9.215   7.899  69.555  1.00  0.00    -0.152 A  
ENDBRANCH  10  11
ENDBRANCH   6  10
TORSDOF 2
ENDMDL
MODEL      256
REMARK 921   NORMALIZED FREE ENERGY PREDICTED BY IDOCK:   -2.03 KCAL/MOL
REMARK 922        TOTAL FREE ENERGY PREDICTED BY IDOCK:   -2.41 KCAL/MOL
REMARK 923 INTER-LIGAND FREE ENERGY PREDICTED BY IDOCK:   -2.37 KCAL/MOL
REMARK 924 INTRA-LIGAND FREE ENERGY PREDICTED BY IDOCK:   -0.03 KCAL/MOL
REMARK 927      BINDING AFFINITY PREDICTED BY RF-SCORE:    0.00 PKD
ROOT
HETATM    1  N   UNL     1     -10.205   8.567  66.716  1.00  0.00    -0.298 NA 
HETATM    2  C   UNL     1     -10.179   7.222  66.831  1.00  0.00    -0.269 C  
HETATM    3  H1  UNL     1      -9.265   8.961  66.724  1.00  0.00     0.000 HD 
HETATM    4  H2  UNL     1     -11.059   9.119  66.633  1.00  0.00     0.000 HD 
HETATM    5  N   UNL     1     -11.423   6.700  66.821  1.00  0.00    -0.727 NA 
HETATM    6  N   UNL     1      -9.046   6.626  66.893  1.00  0.00    -0.131 NA 
HETATM    7  H1  UNL     1     -11.403   5.683  66.907  1.00  0.00     0.000 HD 
HETATM    8  H2  UNL     1     -12.276   7.252  66.738  1.00  0.00     0.000 HD 
HETATM    9  H   UNL     1      -8.173   7.154  66.900  1.00  0.00     0.000 HD 
ENDROOT
BRANCH   6  10
HETATM   10  C   UNL     1      -9.045   5.170  66.954  1.00  0.00    -0.116 C  
BRANCH  10  11
HETATM   11  C   UNL     1      -9.054   4.555  65.574  1.00  0.00    -0.143 A  
HETATM   12  C   UNL     1      -7.867   4.455  64.834  1.00  0.00    -0.085 A  
HETATM   13  C   UNL     1      -7.886   3.908  63.549  1.00  0.00    -0.078 A  
HETATM   14  C   UNL     1      -9.078   3.441  62.997  1.00  0.00    -0.093 A  
HETATM   15  I   UNL     1      -6.126   3.797  62.447  1.00  0.00    -0.018 I  
HETATM   16  C   UNL     1     -10.256   3.510  63.739  1.00  0.00    -0.223 A  
HETATM   17  C   UNL     1     -10.245   4.060  65.022  1.00  0.00    -0.192 A  
ENDBRANCH  10  11
ENDBRANCH   6  10
TORSDOF 2
ENDMDL
MODEL      257
REMARK 921   NORMALIZED FREE ENERGY PREDICTED BY IDOCK:   -2.03 KCAL/MOL
REMARK 922        TOTAL FREE ENERGY PREDICTED BY IDOCK:   -2.41 KCAL/MOL
REMARK 923 INTER-LIGAND FREE ENERGY PREDICTED BY IDOCK:   -2.25 KCAL/MOL
REMARK 924 INTRA-LIGAND FREE ENERGY PREDICTED BY IDOCK:   -0.15 KCAL/MOL
REMARK 927      BINDING AFFINITY PREDICTED BY RF-SCORE:    0.00 PKD
ROOT
HETATM    1  N   UNL     1      -8.533  10.769  64.730  1.00  0.00    -0.345 NA 
HETATM    2  C   UNL     1      -8.285  10.941  66.046  1.00  0.00    -0.155 C  
HETATM    3  H1  UNL     1      -8.470   9.787  64.463  1.00  0.00     0.000 HD 
HETATM    4  H2  UNL     1      -8.755  11.526  64.084  1.00  0.00     0.000 HD 
HETATM    5  N   UNL     1      -8.368  12.241  66.399  1.00  0.00    -0.398 NA 
HETATM    6  N   UNL     1      -8.051   9.914  66.774  1.00  0.00    -0.116 NA 
HETATM    7  H1  UNL     1      -8.181  12.372  67.394  1.00  0.00     0.000 HD 
HETATM    8  H2  UNL     1      -8.591  12.998  65.753  1.00  0.00     0.000 HD 
HETATM    9  H   UNL     1      -8.008   8.979  66.367  1.00  0.00     0.000 HD 
ENDROOT
BRANCH   6  10
HETATM   10  C   UNL     1      -7.848  10.123  68.202  1.00  0.00    -0.096 C  
BRANCH  10  11
HETATM   11  C   UNL     1      -8.772   9.260  69.028  1.00  0.00    -0.135 A  
HETATM   12  C   UNL     1      -8.282   8.124  69.688  1.00  0.00    -0.120 A  
HETATM   13  C   UNL     1      -9.147   7.317  70.430  1.00  0.00    -0.155 A  
HETATM   14  C   UNL     1     -10.499   7.639  70.537  1.00  0.00    -0.221 A  
HETATM   15  I   UNL     1      -8.416   5.615  71.377  1.00  0.00    -0.133 I  
HETATM   16  C   UNL     1     -10.987   8.784  69.907  1.00  0.00    -0.184 A  
HETATM   17  C   UNL     1     -10.128   9.593  69.160  1.00  0.00    -0.196 A  
ENDBRANCH  10  11
ENDBRANCH   6  10
TORSDOF 2
ENDMDL
MODEL      258
REMARK 921   NORMALIZED FREE ENERGY PREDICTED BY IDOCK:   -2.02 KCAL/MOL
REMARK 922        TOTAL FREE ENERGY PREDICTED BY IDOCK:   -2.39 KCAL/MOL
REMARK 923 INTER-LIGAND FREE ENERGY PREDICTED BY IDOCK:   -2.23 KCAL/MOL
REMARK 924 INTRA-LIGAND FREE ENERGY PREDICTED BY IDOCK:   -0.16 KCAL/MOL
REMARK 927      BINDING AFFINITY PREDICTED BY RF-SCORE:    0.00 PKD
ROOT
HETATM    1  N   UNL     1     -10.981   8.955  67.326  1.00  0.00    -0.370 NA 
HETATM    2  C   UNL     1      -9.923   8.125  67.441  1.00  0.00    -0.209 C  
HETATM    3  H1  UNL     1     -11.239   9.359  68.226  1.00  0.00     0.000 HD 
HETATM    4  H2  UNL     1     -11.462   9.153  66.449  1.00  0.00     0.000 HD 
HETATM    5  N   UNL     1      -9.582   7.589  66.250  1.00  0.00    -0.394 NA 
HETATM    6  N   UNL     1      -9.372   7.976  68.588  1.00  0.00    -0.146 NA 
HETATM    7  H1  UNL     1      -8.781   6.962  66.337  1.00  0.00     0.000 HD 
HETATM    8  H2  UNL     1     -10.063   7.787  65.374  1.00  0.00     0.000 HD 
HETATM    9  H   UNL     1      -9.746   8.440  69.417  1.00  0.00     0.000 HD 
ENDROOT
BRANCH   6  10
HETATM   10  C   UNL     1      -8.193   7.122  68.672  1.00  0.00    -0.125 C  
BRANCH  10  11
HETATM   11  C   UNL     1      -8.422   5.946  69.591  1.00  0.00    -0.117 A  
HETATM   12  C   UNL     1      -7.780   5.882  70.837  1.00  0.00    -0.098 A  
HETATM   13  C   UNL     1      -7.976   4.779  71.671  1.00  0.00    -0.103 A  
HETATM   14  C   UNL     1      -8.823   3.741  71.284  1.00  0.00    -0.143 A  
HETATM   15  I   UNL     1      -6.993   4.679  73.500  1.00  0.00    -0.075 I  
HETATM   16  C   UNL     1      -9.487   3.812  70.059  1.00  0.00    -0.264 A  
HETATM   17  C   UNL     1      -9.292   4.910  69.219  1.00  0.00    -0.185 A  
ENDBRANCH  10  11
ENDBRANCH   6  10
TORSDOF 2
ENDMDL
MODEL      259
REMARK 921   NORMALIZED FREE ENERGY PREDICTED BY IDOCK:   -2.01 KCAL/MOL
REMARK 922        TOTAL FREE ENERGY PREDICTED BY IDOCK:   -2.38 KCAL/MOL
REMARK 923 INTER-LIGAND FREE ENERGY PREDICTED BY IDOCK:   -2.22 KCAL/MOL
REMARK 924 INTRA-LIGAND FREE ENERGY PREDICTED BY IDOCK:   -0.16 KCAL/MOL
REMARK 927      BINDING AFFINITY PREDICTED BY RF-SCORE:    0.00 PKD
ROOT
HETATM    1  N   UNL     1      -6.975   8.051  65.770  1.00  0.00    -0.059 NA 
HETATM    2  C   UNL     1      -8.177   7.656  66.242  1.00  0.00    -0.120 C  
HETATM    3  H1  UNL     1      -6.242   7.933  66.469  1.00  0.00     0.000 HD 
HETATM    4  H2  UNL     1      -6.820   8.419  64.832  1.00  0.00     0.000 HD 
HETATM    5  N   UNL     1      -9.147   7.812  65.317  1.00  0.00    -0.365 NA 
HETATM    6  N   UNL     1      -8.251   7.174  67.427  1.00  0.00    -0.115 NA 
HETATM    7  H1  UNL     1     -10.056   7.514  65.674  1.00  0.00     0.000 HD 
HETATM    8  H2  UNL     1      -8.992   8.181  64.380  1.00  0.00     0.000 HD 
HETATM    9  H   UNL     1      -7.428   7.123  68.028  1.00  0.00     0.000 HD 
ENDROOT
BRANCH   6  10
HETATM   10  C   UNL     1      -9.550   6.699  67.888  1.00  0.00    -0.119 C  
BRANCH  10  11
HETATM   11  C   UNL     1      -9.492   5.253  68.321  1.00  0.00    -0.155 A  
HETATM   12  C   UNL     1      -9.573   4.914  69.680  1.00  0.00    -0.243 A  
HETATM   13  C   UNL     1      -9.494   3.577  70.074  1.00  0.00    -0.183 A  
HETATM   14  C   UNL     1      -9.352   2.566  69.125  1.00  0.00    -0.194 A  
HETATM   15  I   UNL     1      -9.581   3.089  72.094  1.00  0.00    -0.230 I  
HETATM   16  C   UNL     1      -9.301   2.893  67.770  1.00  0.00    -0.247 A  
HETATM   17  C   UNL     1      -9.375   4.229  67.369  1.00  0.00    -0.190 A  
ENDBRANCH  10  11
ENDBRANCH   6  10
TORSDOF 2
ENDMDL
MODEL      260
REMARK 921   NORMALIZED FREE ENERGY PREDICTED BY IDOCK:   -2.00 KCAL/MOL
REMARK 922        TOTAL FREE ENERGY PREDICTED BY IDOCK:   -2.37 KCAL/MOL
REMARK 923 INTER-LIGAND FREE ENERGY PREDICTED BY IDOCK:   -2.23 KCAL/MOL
REMARK 924 INTRA-LIGAND FREE ENERGY PREDICTED BY IDOCK:   -0.14 KCAL/MOL
REMARK 927      BINDING AFFINITY PREDICTED BY RF-SCORE:    0.00 PKD
ROOT
HETATM    1  N   UNL     1     -10.122   3.128  64.413  1.00  0.00    -0.318 NA 
HETATM    2  C   UNL     1     -10.211   4.056  65.389  1.00  0.00    -0.112 C  
HETATM    3  H1  UNL     1      -9.199   2.695  64.391  1.00  0.00     0.000 HD 
HETATM    4  H2  UNL     1     -10.883   2.890  63.776  1.00  0.00     0.000 HD 
HETATM    5  N   UNL     1     -11.433   4.629  65.418  1.00  0.00    -1.028 NA 
HETATM    6  N   UNL     1      -9.203   4.249  66.155  1.00  0.00    -0.136 NA 
HETATM    7  H1  UNL     1     -11.500   5.330  66.156  1.00  0.00     0.000 HD 
HETATM    8  H2  UNL     1     -12.193   4.391  64.782  1.00  0.00     0.000 HD 
HETATM    9  H   UNL     1      -8.327   3.746  66.011  1.00  0.00     0.000 HD 
ENDROOT
BRANCH   6  10
HETATM   10  C   UNL     1      -9.347   5.212  67.240  1.00  0.00    -0.122 C  
BRANCH  10  11
HETATM   11  C   UNL     1      -8.131   6.098  67.364  1.00  0.00    -0.109 A  
HETATM   12  C   UNL     1      -8.269   7.449  67.716  1.00  0.00    -0.119 A  
HETATM   13  C   UNL     1      -7.142   8.269  67.804  1.00  0.00    -0.083 A  
HETATM   14  C   UNL     1      -5.869   7.752  67.561  1.00  0.00    -0.037 A  
HETATM   15  I   UNL     1      -7.361  10.279  68.293  1.00  0.00    -0.090 I  
HETATM   16  C   UNL     1      -5.723   6.403  67.240  1.00  0.00    -0.013 A  
HETATM   17  C   UNL     1      -6.846   5.579  67.146  1.00  0.00    -0.064 A  
ENDBRANCH  10  11
ENDBRANCH   6  10
TORSDOF 2
ENDMDL
MODEL      261
REMARK 921   NORMALIZED FREE ENERGY PREDICTED BY IDOCK:   -1.98 KCAL/MOL
REMARK 922        TOTAL FREE ENERGY PREDICTED BY IDOCK:   -2.35 KCAL/MOL
REMARK 923 INTER-LIGAND FREE ENERGY PREDICTED BY IDOCK:   -2.52 KCAL/MOL
REMARK 924 INTRA-LIGAND FREE ENERGY PREDICTED BY IDOCK:    0.17 KCAL/MOL
REMARK 927      BINDING AFFINITY PREDICTED BY RF-SCORE:    0.00 PKD
ROOT
HETATM    1  N   UNL     1      -6.609   6.761  69.775  1.00  0.00    -0.047 NA 
HETATM    2  C   UNL     1      -7.667   6.819  68.940  1.00  0.00    -0.110 C  
HETATM    3  H1  UNL     1      -5.844   7.354  69.451  1.00  0.00     0.000 HD 
HETATM    4  H2  UNL     1      -6.576   6.197  70.623  1.00  0.00     0.000 HD 
HETATM    5  N   UNL     1      -8.679   6.034  69.369  1.00  0.00    -0.121 NA 
HETATM    6  N   UNL     1      -7.613   7.591  67.920  1.00  0.00    -0.108 NA 
HETATM    7  H1  UNL     1      -9.479   6.078  68.738  1.00  0.00     0.000 HD 
HETATM    8  H2  UNL     1      -8.647   5.469  70.217  1.00  0.00     0.000 HD 
HETATM    9  H   UNL     1      -6.770   8.127  67.708  1.00  0.00     0.000 HD 
ENDROOT
BRANCH   6  10
HETATM   10  C   UNL     1      -8.794   7.680  67.069  1.00  0.00    -0.128 C  
BRANCH  10  11
HETATM   11  C   UNL     1      -9.679   8.839  67.464  1.00  0.00    -0.214 A  
HETATM   12  C   UNL     1     -10.282   8.872  68.730  1.00  0.00    -0.224 A  
HETATM   13  C   UNL     1     -11.119   9.934  69.080  1.00  0.00    -0.146 A  
HETATM   14  C   UNL     1     -11.350  10.978  68.184  1.00  0.00    -0.374 A  
HETATM   15  I   UNL     1     -12.035   9.957  70.947  1.00  0.00    -0.460 I  
HETATM   16  C   UNL     1     -10.730  10.965  66.935  1.00  0.00    -0.318 A  
HETATM   17  C   UNL     1      -9.895   9.904  66.578  1.00  0.00    -0.274 A  
ENDBRANCH  10  11
ENDBRANCH   6  10
TORSDOF 2
ENDMDL
MODEL      262
REMARK 921   NORMALIZED FREE ENERGY PREDICTED BY IDOCK:   -1.94 KCAL/MOL
REMARK 922        TOTAL FREE ENERGY PREDICTED BY IDOCK:   -2.31 KCAL/MOL
REMARK 923 INTER-LIGAND FREE ENERGY PREDICTED BY IDOCK:   -2.20 KCAL/MOL
REMARK 924 INTRA-LIGAND FREE ENERGY PREDICTED BY IDOCK:   -0.11 KCAL/MOL
REMARK 927      BINDING AFFINITY PREDICTED BY RF-SCORE:    0.00 PKD
ROOT
HETATM    1  N   UNL     1      -7.664   8.807  72.256  1.00  0.00    -0.355 NA 
HETATM    2  C   UNL     1      -8.239   8.023  71.321  1.00  0.00    -0.109 C  
HETATM    3  H1  UNL     1      -7.691   9.790  71.988  1.00  0.00     0.000 HD 
HETATM    4  H2  UNL     1      -7.253   8.459  73.122  1.00  0.00     0.000 HD 
HETATM    5  N   UNL     1      -8.203   6.721  71.675  1.00  0.00    -0.110 NA 
HETATM    6  N   UNL     1      -8.757   8.569  70.285  1.00  0.00    -0.137 NA 
HETATM    7  H1  UNL     1      -8.638   6.128  70.968  1.00  0.00     0.000 HD 
HETATM    8  H2  UNL     1      -7.792   6.373  72.541  1.00  0.00     0.000 HD 
HETATM    9  H   UNL     1      -8.703   9.578  70.138  1.00  0.00     0.000 HD 
ENDROOT
BRANCH   6  10
HETATM   10  C   UNL     1      -9.427   7.705  69.321  1.00  0.00    -0.158 C  
BRANCH  10  11
HETATM   11  C   UNL     1      -9.568   8.375  67.975  1.00  0.00    -0.168 A  
HETATM   12  C   UNL     1      -8.634   8.129  66.957  1.00  0.00    -0.124 A  
HETATM   13  C   UNL     1      -8.757   8.772  65.724  1.00  0.00    -0.179 A  
HETATM   14  C   UNL     1      -9.814   9.649  65.484  1.00  0.00    -0.352 A  
HETATM   15  I   UNL     1      -7.348   8.425  64.233  1.00  0.00    -0.114 I  
HETATM   16  C   UNL     1     -10.762   9.876  66.482  1.00  0.00    -0.082 A  
HETATM   17  C   UNL     1     -10.643   9.239  67.719  1.00  0.00    -0.307 A  
ENDBRANCH  10  11
ENDBRANCH   6  10
TORSDOF 2
ENDMDL
MODEL      263
REMARK 921   NORMALIZED FREE ENERGY PREDICTED BY IDOCK:   -1.90 KCAL/MOL
REMARK 922        TOTAL FREE ENERGY PREDICTED BY IDOCK:   -2.26 KCAL/MOL
REMARK 923 INTER-LIGAND FREE ENERGY PREDICTED BY IDOCK:   -2.10 KCAL/MOL
REMARK 924 INTRA-LIGAND FREE ENERGY PREDICTED BY IDOCK:   -0.16 KCAL/MOL
REMARK 927      BINDING AFFINITY PREDICTED BY RF-SCORE:    0.00 PKD
ROOT
HETATM    1  N   UNL     1     -11.904   6.777  69.623  1.00  0.00    -0.646 NA 
HETATM    2  C   UNL     1     -10.561   6.891  69.672  1.00  0.00    -0.231 C  
HETATM    3  H1  UNL     1     -12.239   6.706  68.662  1.00  0.00     0.000 HD 
HETATM    4  H2  UNL     1     -12.509   6.763  70.444  1.00  0.00     0.000 HD 
HETATM    5  N   UNL     1     -10.117   6.986  70.943  1.00  0.00    -0.193 NA 
HETATM    6  N   UNL     1      -9.894   6.862  68.578  1.00  0.00    -0.142 NA 
HETATM    7  H1  UNL     1      -9.101   7.072  70.980  1.00  0.00     0.000 HD 
HETATM    8  H2  UNL     1     -10.722   6.972  71.764  1.00  0.00     0.000 HD 
HETATM    9  H   UNL     1     -10.366   6.796  67.675  1.00  0.00     0.000 HD 
ENDROOT
BRANCH   6  10
HETATM   10  C   UNL     1      -8.440   6.926  68.664  1.00  0.00    -0.121 C  
BRANCH  10  11
HETATM   11  C   UNL     1      -7.875   7.999  67.764  1.00  0.00    -0.126 A  
HETATM   12  C   UNL     1      -8.077   9.354  68.061  1.00  0.00    -0.106 A  
HETATM   13  C   UNL     1      -7.574  10.341  67.212  1.00  0.00    -0.095 A  
HETATM   14  C   UNL     1      -6.852   9.991  66.070  1.00  0.00    -0.105 A  
HETATM   15  I   UNL     1      -7.908  12.347  67.645  1.00  0.00    -0.200 I  
HETATM   16  C   UNL     1      -6.623   8.646  65.784  1.00  0.00    -0.057 A  
HETATM   17  C   UNL     1      -7.127   7.654  66.628  1.00  0.00    -0.079 A  
ENDBRANCH  10  11
ENDBRANCH   6  10
TORSDOF 2
ENDMDL
MODEL      264
REMARK 921   NORMALIZED FREE ENERGY PREDICTED BY IDOCK:   -1.86 KCAL/MOL
REMARK 922        TOTAL FREE ENERGY PREDICTED BY IDOCK:   -2.22 KCAL/MOL
REMARK 923 INTER-LIGAND FREE ENERGY PREDICTED BY IDOCK:   -2.02 KCAL/MOL
REMARK 924 INTRA-LIGAND FREE ENERGY PREDICTED BY IDOCK:   -0.20 KCAL/MOL
REMARK 927      BINDING AFFINITY PREDICTED BY RF-SCORE:    0.00 PKD
ROOT
HETATM    1  N   UNL     1     -11.957   6.567  69.779  1.00  0.00    -0.556 NA 
HETATM    2  C   UNL     1     -10.706   6.471  69.283  1.00  0.00    -0.280 C  
HETATM    3  H1  UNL     1     -12.650   6.637  69.034  1.00  0.00     0.000 HD 
HETATM    4  H2  UNL     1     -12.182   6.570  70.773  1.00  0.00     0.000 HD 
HETATM    5  N   UNL     1      -9.788   6.379  70.269  1.00  0.00    -0.167 NA 
HETATM    6  N   UNL     1     -10.541   6.442  68.013  1.00  0.00    -0.223 NA 
HETATM    7  H1  UNL     1      -8.842   6.306  69.894  1.00  0.00     0.000 HD 
HETATM    8  H2  UNL     1     -10.013   6.382  71.264  1.00  0.00     0.000 HD 
HETATM    9  H   UNL     1     -11.333   6.532  67.377  1.00  0.00     0.000 HD 
ENDROOT
BRANCH   6  10
HETATM   10  C   UNL     1      -9.184   6.275  67.506  1.00  0.00    -0.108 C  
BRANCH  10  11
HETATM   11  C   UNL     1      -8.960   4.885  66.961  1.00  0.00    -0.109 A  
HETATM   12  C   UNL     1      -9.625   4.461  65.801  1.00  0.00    -0.188 A  
HETATM   13  C   UNL     1      -9.432   3.165  65.317  1.00  0.00    -0.107 A  
HETATM   14  C   UNL     1      -8.567   2.287  65.969  1.00  0.00    -0.111 A  
HETATM   15  I   UNL     1     -10.450   2.536  63.616  1.00  0.00    -0.011 I  
HETATM   16  C   UNL     1      -7.880   2.712  67.106  1.00  0.00    -0.070 A  
HETATM   17  C   UNL     1      -8.071   4.005  67.597  1.00  0.00    -0.090 A  
ENDBRANCH  10  11
ENDBRANCH   6  10
TORSDOF 2
ENDMDL
MODEL      265
REMARK 921   NORMALIZED FREE ENERGY PREDICTED BY IDOCK:   -1.85 KCAL/MOL
REMARK 922        TOTAL FREE ENERGY PREDICTED BY IDOCK:   -2.21 KCAL/MOL
REMARK 923 INTER-LIGAND FREE ENERGY PREDICTED BY IDOCK:   -2.05 KCAL/MOL
REMARK 924 INTRA-LIGAND FREE ENERGY PREDICTED BY IDOCK:   -0.15 KCAL/MOL
REMARK 927      BINDING AFFINITY PREDICTED BY RF-SCORE:    0.00 PKD
ROOT
HETATM    1  N   UNL     1      -9.510  10.874  66.981  1.00  0.00    -0.164 NA 
HETATM    2  C   UNL     1      -8.800   9.851  66.459  1.00  0.00    -0.139 C  
HETATM    3  H1  UNL     1     -10.506  10.659  67.012  1.00  0.00     0.000 HD 
HETATM    4  H2  UNL     1      -9.101  11.750  67.303  1.00  0.00     0.000 HD 
HETATM    5  N   UNL     1      -7.481  10.135  66.417  1.00  0.00    -0.104 NA 
HETATM    6  N   UNL     1      -9.413   8.779  66.118  1.00  0.00    -0.236 NA 
HETATM    7  H1  UNL     1      -6.944   9.362  66.022  1.00  0.00     0.000 HD 
HETATM    8  H2  UNL     1      -7.072  11.012  66.739  1.00  0.00     0.000 HD 
HETATM    9  H   UNL     1     -10.428   8.705  66.196  1.00  0.00     0.000 HD 
ENDROOT
BRANCH   6  10
HETATM   10  C   UNL     1      -8.614   7.668  65.615  1.00  0.00    -0.123 C  
BRANCH  10  11
HETATM   11  C   UNL     1      -8.958   6.374  66.312  1.00  0.00    -0.166 A  
HETATM   12  C   UNL     1      -9.268   6.365  67.680  1.00  0.00    -0.116 A  
HETATM   13  C   UNL     1      -9.561   5.161  68.324  1.00  0.00    -0.135 A  
HETATM   14  C   UNL     1      -9.565   3.961  67.614  1.00  0.00    -0.205 A  
HETATM   15  I   UNL     1      -9.985   5.155  70.360  1.00  0.00    -0.326 I  
HETATM   16  C   UNL     1      -9.287   3.967  66.248  1.00  0.00    -0.186 A  
HETATM   17  C   UNL     1      -8.989   5.167  65.598  1.00  0.00    -0.154 A  
ENDBRANCH  10  11
ENDBRANCH   6  10
TORSDOF 2
ENDMDL
MODEL      266
REMARK 921   NORMALIZED FREE ENERGY PREDICTED BY IDOCK:   -1.85 KCAL/MOL
REMARK 922        TOTAL FREE ENERGY PREDICTED BY IDOCK:   -2.20 KCAL/MOL
REMARK 923 INTER-LIGAND FREE ENERGY PREDICTED BY IDOCK:   -2.11 KCAL/MOL
REMARK 924 INTRA-LIGAND FREE ENERGY PREDICTED BY IDOCK:   -0.09 KCAL/MOL
REMARK 927      BINDING AFFINITY PREDICTED BY RF-SCORE:    0.00 PKD
ROOT
HETATM    1  N   UNL     1      -8.889   8.402  71.495  1.00  0.00    -0.167 NA 
HETATM    2  C   UNL     1      -8.806   7.174  70.941  1.00  0.00    -0.150 C  
HETATM    3  H1  UNL     1      -9.848   8.630  71.756  1.00  0.00     0.000 HD 
HETATM    4  H2  UNL     1      -8.093   9.023  71.635  1.00  0.00     0.000 HD 
HETATM    5  N   UNL     1      -7.537   6.871  70.595  1.00  0.00    -0.092 NA 
HETATM    6  N   UNL     1      -9.867   6.462  70.845  1.00  0.00    -0.183 NA 
HETATM    7  H1  UNL     1      -7.474   5.943  70.176  1.00  0.00     0.000 HD 
HETATM    8  H2  UNL     1      -6.741   7.493  70.735  1.00  0.00     0.000 HD 
HETATM    9  H   UNL     1     -10.774   6.826  71.141  1.00  0.00     0.000 HD 
ENDROOT
BRANCH   6  10
HETATM   10  C   UNL     1      -9.738   5.117  70.299  1.00  0.00    -0.203 C  
BRANCH  10  11
HETATM   11  C   UNL     1      -9.718   5.127  68.789  1.00  0.00    -0.215 A  
HETATM   12  C   UNL     1      -8.670   4.514  68.088  1.00  0.00    -0.116 A  
HETATM   13  C   UNL     1      -8.645   4.549  66.693  1.00  0.00    -0.111 A  
HETATM   14  C   UNL     1      -9.667   5.178  65.982  1.00  0.00    -0.182 A  
HETATM   15  I   UNL     1      -7.068   3.666  65.664  1.00  0.00    -0.069 I  
HETATM   16  C   UNL     1     -10.728   5.764  66.672  1.00  0.00    -0.333 A  
HETATM   17  C   UNL     1     -10.757   5.736  68.068  1.00  0.00    -0.290 A  
ENDBRANCH  10  11
ENDBRANCH   6  10
TORSDOF 2
ENDMDL
MODEL      267
REMARK 921   NORMALIZED FREE ENERGY PREDICTED BY IDOCK:   -1.77 KCAL/MOL
REMARK 922        TOTAL FREE ENERGY PREDICTED BY IDOCK:   -2.12 KCAL/MOL
REMARK 923 INTER-LIGAND FREE ENERGY PREDICTED BY IDOCK:   -1.96 KCAL/MOL
REMARK 924 INTRA-LIGAND FREE ENERGY PREDICTED BY IDOCK:   -0.16 KCAL/MOL
REMARK 927      BINDING AFFINITY PREDICTED BY RF-SCORE:    0.00 PKD
ROOT
HETATM    1  N   UNL     1      -8.614   3.521  64.341  1.00  0.00    -0.093 NA 
HETATM    2  C   UNL     1      -9.358   3.910  65.398  1.00  0.00    -0.159 C  
HETATM    3  H1  UNL     1      -7.759   3.052  64.638  1.00  0.00     0.000 HD 
HETATM    4  H2  UNL     1      -8.875   3.676  63.368  1.00  0.00     0.000 HD 
HETATM    5  N   UNL     1     -10.490   4.531  65.005  1.00  0.00    -0.467 NA 
HETATM    6  N   UNL     1      -8.951   3.630  66.580  1.00  0.00    -0.131 NA 
HETATM    7  H1  UNL     1     -11.052   4.824  65.804  1.00  0.00     0.000 HD 
HETATM    8  H2  UNL     1     -10.751   4.686  64.032  1.00  0.00     0.000 HD 
HETATM    9  H   UNL     1      -8.059   3.159  66.733  1.00  0.00     0.000 HD 
ENDROOT
BRANCH   6  10
HETATM   10  C   UNL     1      -9.804   4.007  67.701  1.00  0.00    -0.044 C  
BRANCH  10  11
HETATM   11  C   UNL     1      -9.076   4.898  68.679  1.00  0.00    -0.145 A  
HETATM   12  C   UNL     1      -9.794   5.690  69.589  1.00  0.00    -0.243 A  
HETATM   13  C   UNL     1      -9.116   6.530  70.474  1.00  0.00    -0.152 A  
HETATM   14  C   UNL     1      -7.722   6.579  70.476  1.00  0.00    -0.105 A  
HETATM   15  I   UNL     1     -10.190   7.724  71.794  1.00  0.00    -0.283 I  
HETATM   16  C   UNL     1      -7.002   5.773  69.594  1.00  0.00    -0.063 A  
HETATM   17  C   UNL     1      -7.674   4.934  68.704  1.00  0.00    -0.077 A  
ENDBRANCH  10  11
ENDBRANCH   6  10
TORSDOF 2
ENDMDL
MODEL      268
REMARK 921   NORMALIZED FREE ENERGY PREDICTED BY IDOCK:   -1.75 KCAL/MOL
REMARK 922        TOTAL FREE ENERGY PREDICTED BY IDOCK:   -2.09 KCAL/MOL
REMARK 923 INTER-LIGAND FREE ENERGY PREDICTED BY IDOCK:   -2.02 KCAL/MOL
REMARK 924 INTRA-LIGAND FREE ENERGY PREDICTED BY IDOCK:   -0.08 KCAL/MOL
REMARK 927      BINDING AFFINITY PREDICTED BY RF-SCORE:    0.00 PKD
ROOT
HETATM    1  N   UNL     1     -10.962   7.787  66.814  1.00  0.00    -0.379 NA 
HETATM    2  C   UNL     1     -10.553   6.521  67.043  1.00  0.00    -0.332 C  
HETATM    3  H1  UNL     1     -10.417   8.459  67.355  1.00  0.00     0.000 HD 
HETATM    4  H2  UNL     1     -11.720   8.039  66.181  1.00  0.00     0.000 HD 
HETATM    5  N   UNL     1     -11.274   5.631  66.328  1.00  0.00    -0.749 NA 
HETATM    6  N   UNL     1      -9.565   6.320  67.833  1.00  0.00    -0.118 NA 
HETATM    7  H1  UNL     1     -10.965   4.674  66.500  1.00  0.00     0.000 HD 
HETATM    8  H2  UNL     1     -12.032   5.884  65.695  1.00  0.00     0.000 HD 
HETATM    9  H   UNL     1      -9.114   7.095  68.321  1.00  0.00     0.000 HD 
ENDROOT
BRANCH   6  10
HETATM   10  C   UNL     1      -9.105   4.948  68.014  1.00  0.00    -0.114 C  
BRANCH  10  11
HETATM   11  C   UNL     1      -7.826   4.685  67.256  1.00  0.00    -0.090 A  
HETATM   12  C   UNL     1      -7.269   5.678  66.435  1.00  0.00    -0.077 A  
HETATM   13  C   UNL     1      -6.100   5.420  65.718  1.00  0.00    -0.033 A  
HETATM   14  C   UNL     1      -5.464   4.183  65.822  1.00  0.00    -0.013 A  
HETATM   15  I   UNL     1      -5.302   6.887  64.479  1.00  0.00    -0.029 I  
HETATM   16  C   UNL     1      -5.995   3.202  66.659  1.00  0.00    -0.024 A  
HETATM   17  C   UNL     1      -7.167   3.452  67.375  1.00  0.00    -0.059 A  
ENDBRANCH  10  11
ENDBRANCH   6  10
TORSDOF 2
ENDMDL
MODEL      269
REMARK 921   NORMALIZED FREE ENERGY PREDICTED BY IDOCK:   -1.70 KCAL/MOL
REMARK 922        TOTAL FREE ENERGY PREDICTED BY IDOCK:   -2.04 KCAL/MOL
REMARK 923 INTER-LIGAND FREE ENERGY PREDICTED BY IDOCK:   -1.89 KCAL/MOL
REMARK 924 INTRA-LIGAND FREE ENERGY PREDICTED BY IDOCK:   -0.15 KCAL/MOL
REMARK 927      BINDING AFFINITY PREDICTED BY RF-SCORE:    0.00 PKD
ROOT
HETATM    1  N   UNL     1      -7.638  12.082  68.983  1.00  0.00    -0.319 NA 
HETATM    2  C   UNL     1      -6.998  11.006  69.486  1.00  0.00    -0.126 C  
HETATM    3  H1  UNL     1      -8.584  12.163  69.356  1.00  0.00     0.000 HD 
HETATM    4  H2  UNL     1      -7.228  12.733  68.314  1.00  0.00     0.000 HD 
HETATM    5  N   UNL     1      -5.746  10.898  68.993  1.00  0.00    -0.040 NA 
HETATM    6  N   UNL     1      -7.597  10.274  70.350  1.00  0.00    -0.449 NA 
HETATM    7  H1  UNL     1      -5.262  10.085  69.373  1.00  0.00     0.000 HD 
HETATM    8  H2  UNL     1      -5.336  11.549  68.324  1.00  0.00     0.000 HD 
HETATM    9  H   UNL     1      -8.560  10.468  70.628  1.00  0.00     0.000 HD 
ENDROOT
BRANCH   6  10
HETATM   10  C   UNL     1      -6.860   9.154  70.923  1.00  0.00    -0.096 C  
BRANCH  10  11
HETATM   11  C   UNL     1      -7.717   7.913  71.017  1.00  0.00    -0.084 A  
HETATM   12  C   UNL     1      -8.708   7.660  70.057  1.00  0.00    -0.142 A  
HETATM   13  C   UNL     1      -9.513   6.524  70.164  1.00  0.00    -0.157 A  
HETATM   14  C   UNL     1      -9.330   5.623  71.213  1.00  0.00    -0.171 A  
HETATM   15  I   UNL     1     -11.001   6.175  68.754  1.00  0.00    -0.095 I  
HETATM   16  C   UNL     1      -8.327   5.854  72.154  1.00  0.00    -0.118 A  
HETATM   17  C   UNL     1      -7.522   6.990  72.055  1.00  0.00    -0.090 A  
ENDBRANCH  10  11
ENDBRANCH   6  10
TORSDOF 2
ENDMDL
MODEL      270
REMARK 921   NORMALIZED FREE ENERGY PREDICTED BY IDOCK:   -1.67 KCAL/MOL
REMARK 922        TOTAL FREE ENERGY PREDICTED BY IDOCK:   -2.00 KCAL/MOL
REMARK 923 INTER-LIGAND FREE ENERGY PREDICTED BY IDOCK:   -1.86 KCAL/MOL
REMARK 924 INTRA-LIGAND FREE ENERGY PREDICTED BY IDOCK:   -0.14 KCAL/MOL
REMARK 927      BINDING AFFINITY PREDICTED BY RF-SCORE:    0.00 PKD
ROOT
HETATM    1  N   UNL     1      -6.589   6.432  70.723  1.00  0.00    -0.051 NA 
HETATM    2  C   UNL     1      -7.657   6.776  69.973  1.00  0.00    -0.100 C  
HETATM    3  H1  UNL     1      -5.767   6.983  70.477  1.00  0.00     0.000 HD 
HETATM    4  H2  UNL     1      -6.602   5.712  71.444  1.00  0.00     0.000 HD 
HETATM    5  N   UNL     1      -8.746   6.047  70.298  1.00  0.00    -0.141 NA 
HETATM    6  N   UNL     1      -7.538   7.722  69.118  1.00  0.00    -0.097 NA 
HETATM    7  H1  UNL     1      -9.554   6.308  69.732  1.00  0.00     0.000 HD 
HETATM    8  H2  UNL     1      -8.759   5.327  71.020  1.00  0.00     0.000 HD 
HETATM    9  H   UNL     1      -6.641   8.186  68.967  1.00  0.00     0.000 HD 
ENDROOT
BRANCH   6  10
HETATM   10  C   UNL     1      -8.724   8.115  68.366  1.00  0.00    -0.134 C  
BRANCH  10  11
HETATM   11  C   UNL     1      -8.724   9.594  68.059  1.00  0.00    -0.119 A  
HETATM   12  C   UNL     1      -9.826  10.188  67.427  1.00  0.00    -0.225 A  
HETATM   13  C   UNL     1      -9.809  11.551  67.123  1.00  0.00    -0.191 A  
HETATM   14  C   UNL     1      -8.708  12.337  67.459  1.00  0.00    -0.177 A  
HETATM   15  I   UNL     1     -11.435  12.414  66.155  1.00  0.00    -0.417 I  
HETATM   16  C   UNL     1      -7.621  11.759  68.114  1.00  0.00    -0.117 A  
HETATM   17  C   UNL     1      -7.630  10.396  68.417  1.00  0.00    -0.093 A  
ENDBRANCH  10  11
ENDBRANCH   6  10
TORSDOF 2
ENDMDL
MODEL      271
REMARK 921   NORMALIZED FREE ENERGY PREDICTED BY IDOCK:   -1.57 KCAL/MOL
REMARK 922        TOTAL FREE ENERGY PREDICTED BY IDOCK:   -1.90 KCAL/MOL
REMARK 923 INTER-LIGAND FREE ENERGY PREDICTED BY IDOCK:   -1.77 KCAL/MOL
REMARK 924 INTRA-LIGAND FREE ENERGY PREDICTED BY IDOCK:   -0.13 KCAL/MOL
REMARK 927      BINDING AFFINITY PREDICTED BY RF-SCORE:    0.00 PKD
ROOT
HETATM    1  N   UNL     1      -9.729   7.586  73.263  1.00  0.00    -0.246 NA 
HETATM    2  C   UNL     1     -10.231   7.304  72.042  1.00  0.00    -0.190 C  
HETATM    3  H1  UNL     1      -8.755   7.295  73.344  1.00  0.00     0.000 HD 
HETATM    4  H2  UNL     1     -10.258   8.035  74.011  1.00  0.00     0.000 HD 
HETATM    5  N   UNL     1     -11.520   7.688  71.935  1.00  0.00    -0.262 NA 
HETATM    6  N   UNL     1      -9.465   6.770  71.164  1.00  0.00    -0.163 NA 
HETATM    7  H1  UNL     1     -11.899   7.475  71.012  1.00  0.00     0.000 HD 
HETATM    8  H2  UNL     1     -12.049   8.137  72.683  1.00  0.00     0.000 HD 
HETATM    9  H   UNL     1      -8.501   6.520  71.388  1.00  0.00     0.000 HD 
ENDROOT
BRANCH   6  10
HETATM   10  C   UNL     1     -10.015   6.533  69.835  1.00  0.00    -0.167 C  
BRANCH  10  11
HETATM   11  C   UNL     1      -8.977   6.739  68.758  1.00  0.00    -0.130 A  
HETATM   12  C   UNL     1      -8.956   7.925  68.009  1.00  0.00    -0.127 A  
HETATM   13  C   UNL     1      -8.009   8.098  66.998  1.00  0.00    -0.104 A  
HETATM   14  C   UNL     1      -7.066   7.106  66.733  1.00  0.00    -0.078 A  
HETATM   15  I   UNL     1      -8.009   9.846  65.871  1.00  0.00    -0.130 I  
HETATM   16  C   UNL     1      -7.063   5.937  67.493  1.00  0.00    -0.074 A  
HETATM   17  C   UNL     1      -8.009   5.755  68.503  1.00  0.00    -0.101 A  
ENDBRANCH  10  11
ENDBRANCH   6  10
TORSDOF 2
ENDMDL
MODEL      272
REMARK 921   NORMALIZED FREE ENERGY PREDICTED BY IDOCK:   -1.44 KCAL/MOL
REMARK 922        TOTAL FREE ENERGY PREDICTED BY IDOCK:   -1.74 KCAL/MOL
REMARK 923 INTER-LIGAND FREE ENERGY PREDICTED BY IDOCK:   -1.59 KCAL/MOL
REMARK 924 INTRA-LIGAND FREE ENERGY PREDICTED BY IDOCK:   -0.15 KCAL/MOL
REMARK 927      BINDING AFFINITY PREDICTED BY RF-SCORE:    0.00 PKD
ROOT
HETATM    1  N   UNL     1      -8.382   3.051  72.958  1.00  0.00    -0.078 NA 
HETATM    2  C   UNL     1      -7.944   2.918  71.689  1.00  0.00    -0.056 C  
HETATM    3  H1  UNL     1      -9.400   3.084  73.002  1.00  0.00     0.000 HD 
HETATM    4  H2  UNL     1      -7.771   3.111  73.772  1.00  0.00     0.000 HD 
HETATM    5  N   UNL     1      -6.596   2.874  71.631  1.00  0.00    -0.018 NA 
HETATM    6  N   UNL     1      -8.802   2.816  70.743  1.00  0.00    -0.076 NA 
HETATM    7  H1  UNL     1      -6.265   2.773  70.671  1.00  0.00     0.000 HD 
HETATM    8  H2  UNL     1      -5.985   2.935  72.445  1.00  0.00     0.000 HD 
HETATM    9  H   UNL     1      -9.804   2.876  70.932  1.00  0.00     0.000 HD 
ENDROOT
BRANCH   6  10
HETATM   10  C   UNL     1      -8.303   2.610  69.389  1.00  0.00    -0.055 C  
BRANCH  10  11
HETATM   11  C   UNL     1      -8.968   3.541  68.403  1.00  0.00    -0.181 A  
HETATM   12  C   UNL     1      -8.730   3.406  67.027  1.00  0.00    -0.132 A  
HETATM   13  C   UNL     1      -9.328   4.286  66.123  1.00  0.00    -0.164 A  
HETATM   14  C   UNL     1     -10.180   5.294  66.574  1.00  0.00    -0.293 A  
HETATM   15  I   UNL     1      -8.942   4.098  64.088  1.00  0.00    -0.146 I  
HETATM   16  C   UNL     1     -10.444   5.416  67.938  1.00  0.00    -0.202 A  
HETATM   17  C   UNL     1      -9.845   4.542  68.848  1.00  0.00    -0.190 A  
ENDBRANCH  10  11
ENDBRANCH   6  10
TORSDOF 2
ENDMDL
MODEL      273
REMARK 921   NORMALIZED FREE ENERGY PREDICTED BY IDOCK:   -1.34 KCAL/MOL
REMARK 922        TOTAL FREE ENERGY PREDICTED BY IDOCK:   -1.64 KCAL/MOL
REMARK 923 INTER-LIGAND FREE ENERGY PREDICTED BY IDOCK:   -1.51 KCAL/MOL
REMARK 924 INTRA-LIGAND FREE ENERGY PREDICTED BY IDOCK:   -0.13 KCAL/MOL
REMARK 927      BINDING AFFINITY PREDICTED BY RF-SCORE:    0.00 PKD
ROOT
HETATM    1  N   UNL     1      -8.765   8.111  74.154  1.00  0.00    -0.368 NA 
HETATM    2  C   UNL     1      -9.173   7.050  73.425  1.00  0.00    -0.153 C  
HETATM    3  H1  UNL     1      -7.748   8.186  74.167  1.00  0.00     0.000 HD 
HETATM    4  H2  UNL     1      -9.395   8.755  74.631  1.00  0.00     0.000 HD 
HETATM    5  N   UNL     1     -10.519   6.950  73.407  1.00  0.00    -0.299 NA 
HETATM    6  N   UNL     1      -8.295   6.325  72.838  1.00  0.00    -0.118 NA 
HETATM    7  H1  UNL     1     -10.828   6.149  72.856  1.00  0.00     0.000 HD 
HETATM    8  H2  UNL     1     -11.149   7.595  73.884  1.00  0.00     0.000 HD 
HETATM    9  H   UNL     1      -7.298   6.513  72.947  1.00  0.00     0.000 HD 
ENDROOT
BRANCH   6  10
HETATM   10  C   UNL     1      -8.767   5.224  72.007  1.00  0.00    -0.130 C  
BRANCH  10  11
HETATM   11  C   UNL     1      -7.896   5.034  70.788  1.00  0.00    -0.083 A  
HETATM   12  C   UNL     1      -8.053   5.863  69.667  1.00  0.00    -0.106 A  
HETATM   13  C   UNL     1      -7.262   5.665  68.533  1.00  0.00    -0.075 A  
HETATM   14  C   UNL     1      -6.299   4.656  68.509  1.00  0.00    -0.036 A  
HETATM   15  I   UNL     1      -7.525   6.878  66.865  1.00  0.00    -0.085 I  
HETATM   16  C   UNL     1      -6.118   3.847  69.630  1.00  0.00    -0.023 A  
HETATM   17  C   UNL     1      -6.909   4.037  70.766  1.00  0.00    -0.033 A  
ENDBRANCH  10  11
ENDBRANCH   6  10
TORSDOF 2
ENDMDL
