MODEL        1
REMARK 921   NORMALIZED FREE ENERGY PREDICTED BY IDOCK:   -8.42 KCAL/MOL
REMARK 922        TOTAL FREE ENERGY PREDICTED BY IDOCK:  -11.04 KCAL/MOL
REMARK 923 INTER-LIGAND FREE ENERGY PREDICTED BY IDOCK:  -10.39 KCAL/MOL
REMARK 924 INTRA-LIGAND FREE ENERGY PREDICTED BY IDOCK:   -0.65 KCAL/MOL
REMARK 927      BINDING AFFINITY PREDICTED BY RF-SCORE:    0.00 PKD
ROOT
HETATM    1  O   UNL     1     -12.931  14.213  65.388  1.00  0.00    -0.706 OA 
HETATM    2  S   UNL     1     -12.023  13.528  64.248  1.00  0.00    -0.436 S  
HETATM    3  N   UNL     2     -12.048  15.175  68.920  1.00  0.00    -0.572 NA 
HETATM    4  H1  UNL     2     -12.520  15.746  68.219  1.00  0.00     0.000 HD 
HETATM    5  H2  UNL     2     -12.564  14.699  69.661  1.00  0.00     0.000 HD 
HETATM    6  C   UNL     2     -10.712  15.080  68.821  1.00  0.00    -0.241 C  
HETATM    7  N   UNL     3     -12.149  12.437  67.526  1.00  0.00    -0.472 NA 
HETATM    8  O   UNL     1     -12.427  11.988  64.438  1.00  0.00    -0.335 OA 
HETATM    9  O   UNL     1     -12.495  13.998  62.967  1.00  0.00    -0.641 OA 
HETATM   10  O   UNL     1     -10.655  13.667  64.665  1.00  0.00    -0.398 OA 
HETATM   11  C   UNL     3     -10.973  11.790  67.370  1.00  0.00    -0.262 C  
HETATM   12  H1  UNL     3     -13.040  12.069  67.193  1.00  0.00     0.000 HD 
HETATM   13  H2  UNL     3     -12.145  13.341  67.999  1.00  0.00     0.000 HD 
HETATM   14  N   UNL     2     -10.105  15.510  67.708  1.00  0.00    -0.230 NA 
HETATM   15  N   UNL     2     -10.118  14.361  69.704  1.00  0.00    -0.407 NA 
HETATM   16  H2  UNL     2     -10.635  13.886  70.444  1.00  0.00     0.000 HD 
HETATM   17  H   UNL     2      -9.129  15.230  67.611  1.00  0.00     0.000 HD 
HETATM   18  N   UNL     3      -9.856  12.251  67.787  1.00  0.00    -0.196 NA 
HETATM   19  N   UNL     3     -11.067  10.646  66.654  1.00  0.00    -0.100 NA 
HETATM   20  H2  UNL     3      -9.851  13.155  68.261  1.00  0.00     0.000 HD 
HETATM   21  H1  UNL     2      -9.103  14.290  69.628  1.00  0.00     0.000 HD 
HETATM   22  H1  UNL     3      -8.968  11.763  67.669  1.00  0.00     0.000 HD 
HETATM   23  H   UNL     3     -11.824  10.483  65.990  1.00  0.00     0.000 HD 
ENDROOT
BRANCH  14  24
HETATM   24  C   UNL     2     -10.629  16.314  66.619  1.00  0.00    -0.252 C  
BRANCH  24  25
HETATM   25  C   UNL     2     -10.056  17.719  66.676  1.00  0.00    -0.350 A  
HETATM   26  I   UNL     2      -6.387  19.721  65.430  1.00  0.00    -0.344 I  
HETATM   27  C   UNL     2     -10.779  18.766  67.274  1.00  0.00    -0.490 A  
HETATM   28  C   UNL     2      -8.791  18.006  66.126  1.00  0.00    -0.111 A  
HETATM   29  C   UNL     2     -10.235  20.043  67.387  1.00  0.00    -0.546 A  
HETATM   30  C   UNL     2      -8.263  19.295  66.223  1.00  0.00    -0.318 A  
HETATM   31  C   UNL     2      -8.975  20.312  66.861  1.00  0.00    -0.424 A  
ENDBRANCH  24  25
ENDBRANCH  14  24
BRANCH  19  32
HETATM   32  C   UNL     3     -10.019   9.662  66.891  1.00  0.00    -0.212 C  
BRANCH  32  33
HETATM   33  C   UNL     3     -10.496   8.492  67.702  1.00  0.00    -0.308 A  
HETATM   34  C   UNL     3     -10.974   6.240  69.316  1.00  0.00    -0.435 A  
HETATM   35  C   UNL     3     -10.614   8.624  69.085  1.00  0.00    -0.193 A  
HETATM   36  I   UNL     3     -10.822   7.722  71.953  1.00  0.00    -0.360 I  
HETATM   37  C   UNL     3     -10.928   6.102  67.931  1.00  0.00    -0.399 A  
HETATM   38  C   UNL     3     -10.825   7.503  69.887  1.00  0.00    -0.240 A  
HETATM   39  C   UNL     3     -10.683   7.219  67.126  1.00  0.00    -0.413 A  
ENDBRANCH  32  33
ENDBRANCH  19  32
TORSDOF 4
ENDMDL
MODEL        2
REMARK 921   NORMALIZED FREE ENERGY PREDICTED BY IDOCK:   -8.32 KCAL/MOL
REMARK 922        TOTAL FREE ENERGY PREDICTED BY IDOCK:  -10.91 KCAL/MOL
REMARK 923 INTER-LIGAND FREE ENERGY PREDICTED BY IDOCK:  -10.48 KCAL/MOL
REMARK 924 INTRA-LIGAND FREE ENERGY PREDICTED BY IDOCK:   -0.43 KCAL/MOL
REMARK 927      BINDING AFFINITY PREDICTED BY RF-SCORE:    0.00 PKD
ROOT
HETATM    1  O   UNL     1     -12.409  14.711  65.690  1.00  0.00    -0.271 OA 
HETATM    2  S   UNL     1     -11.842  13.441  64.878  1.00  0.00    -0.394 S  
HETATM    3  N   UNL     2     -11.082  16.374  68.798  1.00  0.00    -0.342 NA 
HETATM    4  H1  UNL     2     -11.367  16.821  67.926  1.00  0.00     0.000 HD 
HETATM    5  H2  UNL     2     -11.693  16.357  69.615  1.00  0.00     0.000 HD 
HETATM    6  C   UNL     2      -9.863  15.811  68.816  1.00  0.00    -0.214 C  
HETATM    7  N   UNL     3     -12.170  13.540  68.318  1.00  0.00    -0.313 NA 
HETATM    8  O   UNL     1     -12.733  12.267  65.510  1.00  0.00    -0.438 OA 
HETATM    9  O   UNL     1     -12.188  13.617  63.487  1.00  0.00    -0.618 OA 
HETATM   10  O   UNL     1     -10.489  13.236  65.316  1.00  0.00    -0.294 OA 
HETATM   11  C   UNL     3     -11.291  12.521  68.445  1.00  0.00    -0.291 C  
HETATM   12  H1  UNL     3     -13.149  13.407  68.061  1.00  0.00     0.000 HD 
HETATM   13  H2  UNL     3     -11.838  14.489  68.487  1.00  0.00     0.000 HD 
HETATM   14  N   UNL     2      -9.202  15.640  67.666  1.00  0.00    -0.193 NA 
HETATM   15  N   UNL     2      -9.506  15.249  69.914  1.00  0.00    -0.454 NA 
HETATM   16  H2  UNL     2     -10.116  15.231  70.731  1.00  0.00     0.000 HD 
HETATM   17  H   UNL     2      -8.384  15.034  67.721  1.00  0.00     0.000 HD 
HETATM   18  N   UNL     3     -10.065  12.686  68.766  1.00  0.00    -0.417 NA 
HETATM   19  N   UNL     3     -11.801  11.312  68.114  1.00  0.00    -0.607 NA 
HETATM   20  H2  UNL     3      -9.733  13.635  68.936  1.00  0.00     0.000 HD 
HETATM   21  H1  UNL     2      -8.579  14.820  69.928  1.00  0.00     0.000 HD 
HETATM   22  H1  UNL     3      -9.401  11.917  68.862  1.00  0.00     0.000 HD 
HETATM   23  H   UNL     3     -12.600  11.214  67.488  1.00  0.00     0.000 HD 
ENDROOT
BRANCH  14  24
HETATM   24  C   UNL     2      -9.475  16.190  66.350  1.00  0.00    -0.295 C  
BRANCH  24  25
HETATM   25  C   UNL     2      -9.360  17.705  66.376  1.00  0.00    -0.265 A  
HETATM   26  I   UNL     2      -6.293  20.656  67.324  1.00  0.00    -0.400 I  
HETATM   27  C   UNL     2     -10.460  18.514  66.041  1.00  0.00    -0.433 A  
HETATM   28  C   UNL     2      -8.149  18.331  66.728  1.00  0.00    -0.268 A  
HETATM   29  C   UNL     2     -10.383  19.901  66.122  1.00  0.00    -0.604 A  
HETATM   30  C   UNL     2      -8.074  19.724  66.785  1.00  0.00    -0.304 A  
HETATM   31  C   UNL     2      -9.189  20.511  66.494  1.00  0.00    -0.232 A  
ENDBRANCH  24  25
ENDBRANCH  14  24
BRANCH  19  32
HETATM   32  C   UNL     3     -11.137  10.160  68.710  1.00  0.00    -0.203 C  
BRANCH  32  33
HETATM   33  C   UNL     3     -11.603   9.884  70.110  1.00  0.00    -0.281 A  
HETATM   34  C   UNL     3     -12.632   8.998  72.573  1.00  0.00    -0.342 A  
HETATM   35  C   UNL     3     -10.865   9.018  70.916  1.00  0.00    -0.323 A  
HETATM   36  I   UNL     3     -10.328   7.139  73.210  1.00  0.00    -0.423 I  
HETATM   37  C   UNL     3     -13.351   9.917  71.812  1.00  0.00    -0.501 A  
HETATM   38  C   UNL     3     -11.387   8.559  72.125  1.00  0.00    -0.372 A  
HETATM   39  C   UNL     3     -12.846  10.354  70.584  1.00  0.00    -0.393 A  
ENDBRANCH  32  33
ENDBRANCH  19  32
TORSDOF 4
ENDMDL
MODEL        3
REMARK 921   NORMALIZED FREE ENERGY PREDICTED BY IDOCK:   -8.31 KCAL/MOL
REMARK 922        TOTAL FREE ENERGY PREDICTED BY IDOCK:  -10.90 KCAL/MOL
REMARK 923 INTER-LIGAND FREE ENERGY PREDICTED BY IDOCK:  -10.23 KCAL/MOL
REMARK 924 INTRA-LIGAND FREE ENERGY PREDICTED BY IDOCK:   -0.67 KCAL/MOL
REMARK 927      BINDING AFFINITY PREDICTED BY RF-SCORE:    0.00 PKD
ROOT
HETATM    1  O   UNL     1     -10.745  12.130  64.414  1.00  0.00    -0.285 OA 
HETATM    2  S   UNL     1     -12.198  12.670  64.850  1.00  0.00    -0.474 S  
HETATM    3  N   UNL     2      -7.682  11.487  66.509  1.00  0.00    -0.316 NA 
HETATM    4  H1  UNL     2      -8.106  10.867  65.818  1.00  0.00     0.000 HD 
HETATM    5  H2  UNL     2      -6.860  12.050  66.291  1.00  0.00     0.000 HD 
HETATM    6  C   UNL     2      -8.262  11.525  67.719  1.00  0.00    -0.135 C  
HETATM    7  N   UNL     3      -9.223  14.078  65.905  1.00  0.00    -0.493 NA 
HETATM    8  O   UNL     1     -12.036  14.234  64.536  1.00  0.00    -0.441 OA 
HETATM    9  O   UNL     1     -13.170  12.094  63.951  1.00  0.00    -0.748 OA 
HETATM   10  O   UNL     1     -12.285  12.525  66.277  1.00  0.00    -0.600 OA 
HETATM   11  C   UNL     3      -9.854  14.667  66.945  1.00  0.00    -0.249 C  
HETATM   12  H1  UNL     3      -9.251  14.443  64.953  1.00  0.00     0.000 HD 
HETATM   13  H2  UNL     3      -8.692  13.225  66.082  1.00  0.00     0.000 HD 
HETATM   14  N   UNL     2      -9.467  10.970  67.888  1.00  0.00    -0.162 NA 
HETATM   15  N   UNL     2      -7.728  12.306  68.589  1.00  0.00    -0.222 NA 
HETATM   16  H2  UNL     2      -6.906  12.869  68.371  1.00  0.00     0.000 HD 
HETATM   17  H   UNL     2      -9.935  11.205  68.763  1.00  0.00     0.000 HD 
HETATM   18  N   UNL     3      -9.819  14.210  68.139  1.00  0.00    -0.222 NA 
HETATM   19  N   UNL     3     -10.603  15.738  66.597  1.00  0.00    -0.310 NA 
HETATM   20  H2  UNL     3      -9.287  13.357  68.316  1.00  0.00     0.000 HD 
HETATM   21  H1  UNL     2      -8.169  12.336  69.509  1.00  0.00     0.000 HD 
HETATM   22  H1  UNL     3     -10.295  14.654  68.924  1.00  0.00     0.000 HD 
HETATM   23  H   UNL     3     -10.965  15.861  65.652  1.00  0.00     0.000 HD 
ENDROOT
BRANCH  14  24
HETATM   24  C   UNL     2     -10.208  10.082  67.011  1.00  0.00    -0.237 C  
BRANCH  24  25
HETATM   25  C   UNL     2     -10.525   8.778  67.722  1.00  0.00    -0.292 A  
HETATM   26  I   UNL     2     -11.335   7.488  71.809  1.00  0.00    -0.363 I  
HETATM   27  C   UNL     2     -10.597   7.569  67.008  1.00  0.00    -0.409 A  
HETATM   28  C   UNL     2     -10.758   8.751  69.111  1.00  0.00    -0.150 A  
HETATM   29  C   UNL     2     -10.823   6.360  67.660  1.00  0.00    -0.425 A  
HETATM   30  C   UNL     2     -11.008   7.537  69.754  1.00  0.00    -0.184 A  
HETATM   31  C   UNL     2     -11.030   6.341  69.036  1.00  0.00    -0.437 A  
ENDBRANCH  24  25
ENDBRANCH  14  24
BRANCH  19  32
HETATM   32  C   UNL     3     -10.859  16.703  67.657  1.00  0.00    -0.258 C  
BRANCH  32  33
HETATM   33  C   UNL     3     -10.070  17.970  67.489  1.00  0.00    -0.356 A  
HETATM   34  C   UNL     3      -8.746  20.450  67.561  1.00  0.00    -0.370 A  
HETATM   35  C   UNL     3      -8.839  18.097  68.130  1.00  0.00    -0.289 A  
HETATM   36  I   UNL     3      -6.448  19.513  69.298  1.00  0.00    -0.365 I  
HETATM   37  C   UNL     3      -9.942  20.323  66.858  1.00  0.00    -0.592 A  
HETATM   38  C   UNL     3      -8.195  19.333  68.187  1.00  0.00    -0.318 A  
HETATM   39  C   UNL     3     -10.606  19.094  66.826  1.00  0.00    -0.528 A  
ENDBRANCH  32  33
ENDBRANCH  19  32
TORSDOF 4
ENDMDL
MODEL        4
REMARK 921   NORMALIZED FREE ENERGY PREDICTED BY IDOCK:   -8.04 KCAL/MOL
REMARK 922        TOTAL FREE ENERGY PREDICTED BY IDOCK:  -10.56 KCAL/MOL
REMARK 923 INTER-LIGAND FREE ENERGY PREDICTED BY IDOCK:   -9.76 KCAL/MOL
REMARK 924 INTRA-LIGAND FREE ENERGY PREDICTED BY IDOCK:   -0.81 KCAL/MOL
REMARK 927      BINDING AFFINITY PREDICTED BY RF-SCORE:    0.00 PKD
ROOT
HETATM    1  O   UNL     1     -12.973  14.358  65.670  1.00  0.00    -0.447 OA 
HETATM    2  S   UNL     1     -12.078  13.460  64.677  1.00  0.00    -0.423 S  
HETATM    3  N   UNL     2     -12.206  15.614  69.136  1.00  0.00    -0.589 NA 
HETATM    4  H1  UNL     2     -12.569  16.148  68.347  1.00  0.00     0.000 HD 
HETATM    5  H2  UNL     2     -12.816  15.280  69.883  1.00  0.00     0.000 HD 
HETATM    6  C   UNL     2     -10.885  15.373  69.144  1.00  0.00    -0.249 C  
HETATM    7  N   UNL     3     -12.521  12.762  68.034  1.00  0.00     0.139 NA 
HETATM    8  O   UNL     1     -12.659  12.000  64.998  1.00  0.00    -0.415 OA 
HETATM    9  O   UNL     1     -12.416  13.829  63.323  1.00  0.00    -0.819 OA 
HETATM   10  O   UNL     1     -10.731  13.505  65.175  1.00  0.00    -0.309 OA 
HETATM   11  C   UNL     3     -11.416  11.985  68.032  1.00  0.00    -0.328 C  
HETATM   12  H1  UNL     3     -13.425  12.452  67.678  1.00  0.00     0.000 HD 
HETATM   13  H2  UNL     3     -12.447  13.708  68.409  1.00  0.00     0.000 HD 
HETATM   14  N   UNL     2     -10.168  15.611  68.039  1.00  0.00    -0.225 NA 
HETATM   15  N   UNL     2     -10.428  14.701  70.138  1.00  0.00    -0.454 NA 
HETATM   16  H2  UNL     2     -11.038  14.367  70.885  1.00  0.00     0.000 HD 
HETATM   17  H   UNL     2      -9.224  15.224  68.043  1.00  0.00     0.000 HD 
HETATM   18  N   UNL     3     -10.282  12.374  68.478  1.00  0.00    -0.279 NA 
HETATM   19  N   UNL     3     -11.591  10.784  67.436  1.00  0.00    -0.489 NA 
HETATM   20  H2  UNL     3     -10.208  13.319  68.853  1.00  0.00     0.000 HD 
HETATM   21  H1  UNL     2      -9.424  14.518  70.145  1.00  0.00     0.000 HD 
HETATM   22  H1  UNL     3      -9.448  11.787  68.477  1.00  0.00     0.000 HD 
HETATM   23  H   UNL     3     -12.319  10.625  66.740  1.00  0.00     0.000 HD 
ENDROOT
BRANCH  14  24
HETATM   24  C   UNL     2     -10.534  16.337  66.837  1.00  0.00    -0.302 C  
BRANCH  24  25
HETATM   25  C   UNL     2      -9.944  17.737  66.864  1.00  0.00    -0.332 A  
HETATM   26  I   UNL     2      -6.807  19.835  69.050  1.00  0.00    -0.270 I  
HETATM   27  C   UNL     2     -10.449  18.745  66.025  1.00  0.00    -0.483 A  
HETATM   28  C   UNL     2      -8.876  18.053  67.726  1.00  0.00    -0.255 A  
HETATM   29  C   UNL     2      -9.958  20.046  66.088  1.00  0.00    -0.580 A  
HETATM   30  C   UNL     2      -8.373  19.355  67.766  1.00  0.00    -0.305 A  
HETATM   31  C   UNL     2      -8.917  20.355  66.958  1.00  0.00    -0.423 A  
ENDBRANCH  24  25
ENDBRANCH  14  24
BRANCH  19  32
HETATM   32  C   UNL     3     -10.673   9.731  67.850  1.00  0.00    -0.258 C  
BRANCH  32  33
HETATM   33  C   UNL     3      -9.706   9.348  66.767  1.00  0.00    -0.257 A  
HETATM   34  C   UNL     3      -8.230   8.435  64.554  1.00  0.00    -0.149 A  
HETATM   35  C   UNL     3      -9.693  10.073  65.576  1.00  0.00    -0.355 A  
HETATM   36  I   UNL     3      -9.130  10.627  62.668  1.00  0.00    -0.371 I  
HETATM   37  C   UNL     3      -8.177   7.736  65.758  1.00  0.00    -0.132 A  
HETATM   38  C   UNL     3      -8.982   9.606  64.471  1.00  0.00    -0.235 A  
HETATM   39  C   UNL     3      -8.915   8.183  66.858  1.00  0.00    -0.163 A  
ENDBRANCH  32  33
ENDBRANCH  19  32
TORSDOF 4
ENDMDL
MODEL        5
REMARK 921   NORMALIZED FREE ENERGY PREDICTED BY IDOCK:   -7.91 KCAL/MOL
REMARK 922        TOTAL FREE ENERGY PREDICTED BY IDOCK:  -10.40 KCAL/MOL
REMARK 923 INTER-LIGAND FREE ENERGY PREDICTED BY IDOCK:   -9.58 KCAL/MOL
REMARK 924 INTRA-LIGAND FREE ENERGY PREDICTED BY IDOCK:   -0.82 KCAL/MOL
REMARK 927      BINDING AFFINITY PREDICTED BY RF-SCORE:    0.00 PKD
ROOT
HETATM    1  O   UNL     1     -12.941  14.336  65.490  1.00  0.00    -0.607 OA 
HETATM    2  S   UNL     1     -12.101  13.442  64.446  1.00  0.00    -0.416 S  
HETATM    3  N   UNL     2     -11.998  15.553  68.927  1.00  0.00    -0.554 NA 
HETATM    4  H1  UNL     2     -12.395  16.098  68.161  1.00  0.00     0.000 HD 
HETATM    5  H2  UNL     2     -12.574  15.216  69.699  1.00  0.00     0.000 HD 
HETATM    6  C   UNL     2     -10.680  15.303  68.869  1.00  0.00    -0.245 C  
HETATM    7  N   UNL     3     -12.387  12.715  67.813  1.00  0.00    -0.136 NA 
HETATM    8  O   UNL     1     -12.676  11.983  64.781  1.00  0.00    -0.421 OA 
HETATM    9  O   UNL     1     -12.502  13.827  63.114  1.00  0.00    -0.786 OA 
HETATM   10  O   UNL     1     -10.731  13.473  64.879  1.00  0.00    -0.335 OA 
HETATM   11  C   UNL     3     -11.289  11.929  67.751  1.00  0.00    -0.292 C  
HETATM   12  H1  UNL     3     -13.310  12.414  67.499  1.00  0.00     0.000 HD 
HETATM   13  H2  UNL     3     -12.288  13.656  68.193  1.00  0.00     0.000 HD 
HETATM   14  N   UNL     2     -10.016  15.547  67.733  1.00  0.00    -0.222 NA 
HETATM   15  N   UNL     2     -10.181  14.618  69.833  1.00  0.00    -0.437 NA 
HETATM   16  H2  UNL     2     -10.756  14.280  70.605  1.00  0.00     0.000 HD 
HETATM   17  H   UNL     2      -9.076  15.154  67.687  1.00  0.00     0.000 HD 
HETATM   18  N   UNL     3     -10.132  12.306  68.145  1.00  0.00    -0.206 NA 
HETATM   19  N   UNL     3     -11.501  10.736  67.152  1.00  0.00    -0.363 NA 
HETATM   20  H2  UNL     3     -10.033  13.247  68.526  1.00  0.00     0.000 HD 
HETATM   21  H1  UNL     2      -9.179  14.428  69.789  1.00  0.00     0.000 HD 
HETATM   22  H1  UNL     3      -9.303  11.714  68.098  1.00  0.00     0.000 HD 
HETATM   23  H   UNL     3     -12.263  10.589  66.491  1.00  0.00     0.000 HD 
ENDROOT
BRANCH  14  24
HETATM   24  C   UNL     2     -10.434  16.287  66.557  1.00  0.00    -0.290 C  
BRANCH  24  25
HETATM   25  C   UNL     2     -10.012  17.742  66.670  1.00  0.00    -0.338 A  
HETATM   26  I   UNL     2      -6.517  20.140  65.641  1.00  0.00    -0.322 I  
HETATM   27  C   UNL     2     -10.865  18.694  67.255  1.00  0.00    -0.369 A  
HETATM   28  C   UNL     2      -8.760  18.171  66.187  1.00  0.00    -0.116 A  
HETATM   29  C   UNL     2     -10.462  20.016  67.420  1.00  0.00    -0.490 A  
HETATM   30  C   UNL     2      -8.373  19.504  66.335  1.00  0.00    -0.347 A  
HETATM   31  C   UNL     2      -9.215  20.426  66.960  1.00  0.00    -0.483 A  
ENDBRANCH  24  25
ENDBRANCH  14  24
BRANCH  19  32
HETATM   32  C   UNL     3     -10.572   9.673  67.512  1.00  0.00    -0.277 C  
BRANCH  32  33
HETATM   33  C   UNL     3      -9.838   9.120  66.324  1.00  0.00    -0.359 A  
HETATM   34  C   UNL     3      -8.111   8.243  64.286  1.00  0.00    -0.147 A  
HETATM   35  C   UNL     3      -9.153   7.912  66.447  1.00  0.00    -0.221 A  
HETATM   36  I   UNL     3      -7.147   5.773  65.750  1.00  0.00    -0.074 I  
HETATM   37  C   UNL     3      -8.842   9.416  64.117  1.00  0.00    -0.216 A  
HETATM   38  C   UNL     3      -8.276   7.491  65.447  1.00  0.00    -0.135 A  
HETATM   39  C   UNL     3      -9.696   9.859  65.131  1.00  0.00    -0.376 A  
ENDBRANCH  32  33
ENDBRANCH  19  32
TORSDOF 4
ENDMDL
MODEL        6
REMARK 921   NORMALIZED FREE ENERGY PREDICTED BY IDOCK:   -7.87 KCAL/MOL
REMARK 922        TOTAL FREE ENERGY PREDICTED BY IDOCK:  -10.36 KCAL/MOL
REMARK 923 INTER-LIGAND FREE ENERGY PREDICTED BY IDOCK:   -9.92 KCAL/MOL
REMARK 924 INTRA-LIGAND FREE ENERGY PREDICTED BY IDOCK:   -0.43 KCAL/MOL
REMARK 927      BINDING AFFINITY PREDICTED BY RF-SCORE:    0.00 PKD
ROOT
HETATM    1  O   UNL     1     -10.834  12.845  65.150  1.00  0.00    -0.284 OA 
HETATM    2  S   UNL     1     -12.228  13.570  65.500  1.00  0.00    -0.481 S  
HETATM    3  N   UNL     2      -7.671  12.592  67.178  1.00  0.00    -0.333 NA 
HETATM    4  H1  UNL     2      -8.167  11.838  66.703  1.00  0.00     0.000 HD 
HETATM    5  H2  UNL     2      -6.840  13.025  66.775  1.00  0.00     0.000 HD 
HETATM    6  C   UNL     2      -8.166  12.986  68.363  1.00  0.00    -0.123 C  
HETATM    7  N   UNL     3      -9.128  15.020  65.983  1.00  0.00    -0.486 NA 
HETATM    8  O   UNL     1     -12.017  14.982  64.770  1.00  0.00    -0.377 OA 
HETATM    9  O   UNL     1     -13.283  12.837  64.841  1.00  0.00    -0.808 OA 
HETATM   10  O   UNL     1     -12.227  13.814  66.916  1.00  0.00    -0.410 OA 
HETATM   11  C   UNL     3      -9.661  15.902  66.858  1.00  0.00    -0.230 C  
HETATM   12  H1  UNL     3      -9.203  15.121  64.970  1.00  0.00     0.000 HD 
HETATM   13  H2  UNL     3      -8.626  14.214  66.354  1.00  0.00     0.000 HD 
HETATM   14  N   UNL     2      -9.382  12.570  68.737  1.00  0.00    -0.406 NA 
HETATM   15  N   UNL     2      -7.541  13.935  68.961  1.00  0.00    -0.286 NA 
HETATM   16  H2  UNL     2      -6.710  14.368  68.558  1.00  0.00     0.000 HD 
HETATM   17  H   UNL     2      -9.779  13.058  69.540  1.00  0.00     0.000 HD 
HETATM   18  N   UNL     3      -9.568  15.776  68.127  1.00  0.00    -0.199 NA 
HETATM   19  N   UNL     3     -10.382  16.886  66.274  1.00  0.00    -0.320 NA 
HETATM   20  H2  UNL     3      -9.065  14.970  68.498  1.00  0.00     0.000 HD 
HETATM   21  H1  UNL     2      -7.917  14.234  69.861  1.00  0.00     0.000 HD 
HETATM   22  H1  UNL     3      -9.970  16.441  68.787  1.00  0.00     0.000 HD 
HETATM   23  H   UNL     3     -10.801  16.777  65.350  1.00  0.00     0.000 HD 
ENDROOT
BRANCH  14  24
HETATM   24  C   UNL     2     -10.219  11.529  68.170  1.00  0.00    -0.194 C  
BRANCH  24  25
HETATM   25  C   UNL     2     -10.934  10.767  69.271  1.00  0.00    -0.292 A  
HETATM   26  I   UNL     2     -10.846   6.737  70.938  1.00  0.00    -0.347 I  
HETATM   27  C   UNL     2     -11.932  11.388  70.044  1.00  0.00    -0.442 A  
HETATM   28  C   UNL     2     -10.610   9.424  69.548  1.00  0.00    -0.237 A  
HETATM   29  C   UNL     2     -12.636  10.679  71.013  1.00  0.00    -0.516 A  
HETATM   30  C   UNL     2     -11.306   8.727  70.538  1.00  0.00    -0.227 A  
HETATM   31  C   UNL     2     -12.325   9.346  71.263  1.00  0.00    -0.422 A  
ENDBRANCH  24  25
ENDBRANCH  14  24
BRANCH  19  32
HETATM   32  C   UNL     3     -10.522  18.112  67.048  1.00  0.00    -0.370 C  
BRANCH  32  33
HETATM   33  C   UNL     3      -9.214  18.821  67.252  1.00  0.00    -0.304 A  
HETATM   34  C   UNL     3      -6.585  19.759  67.587  1.00  0.00    -0.263 A  
HETATM   35  C   UNL     3      -8.427  19.132  66.145  1.00  0.00    -0.241 A  
HETATM   36  I   UNL     3      -5.924  19.860  64.632  1.00  0.00    -0.307 I  
HETATM   37  C   UNL     3      -7.382  19.519  68.704  1.00  0.00    -0.381 A  
HETATM   38  C   UNL     3      -7.114  19.573  66.311  1.00  0.00    -0.245 A  
HETATM   39  C   UNL     3      -8.687  19.045  68.541  1.00  0.00    -0.392 A  
ENDBRANCH  32  33
ENDBRANCH  19  32
TORSDOF 4
ENDMDL
MODEL        7
REMARK 921   NORMALIZED FREE ENERGY PREDICTED BY IDOCK:   -7.75 KCAL/MOL
REMARK 922        TOTAL FREE ENERGY PREDICTED BY IDOCK:  -10.21 KCAL/MOL
REMARK 923 INTER-LIGAND FREE ENERGY PREDICTED BY IDOCK:   -9.54 KCAL/MOL
REMARK 924 INTRA-LIGAND FREE ENERGY PREDICTED BY IDOCK:   -0.66 KCAL/MOL
REMARK 927      BINDING AFFINITY PREDICTED BY RF-SCORE:    0.00 PKD
ROOT
HETATM    1  O   UNL     1     -10.869  12.096  64.584  1.00  0.00    -0.282 OA 
HETATM    2  S   UNL     1     -12.306  12.730  64.939  1.00  0.00    -0.488 S  
HETATM    3  N   UNL     2      -7.959  11.305  66.841  1.00  0.00    -0.149 NA 
HETATM    4  H1  UNL     2      -8.385  10.700  66.139  1.00  0.00     0.000 HD 
HETATM    5  H2  UNL     2      -7.094  11.813  66.656  1.00  0.00     0.000 HD 
HETATM    6  C   UNL     2      -8.595  11.399  68.020  1.00  0.00    -0.147 C  
HETATM    7  N   UNL     3      -9.306  13.973  66.123  1.00  0.00    -0.494 NA 
HETATM    8  O   UNL     1     -12.034  14.276  64.611  1.00  0.00    -0.408 OA 
HETATM    9  O   UNL     1     -13.266  12.198  64.001  1.00  0.00    -0.728 OA 
HETATM   10  O   UNL     1     -12.473  12.615  66.361  1.00  0.00    -0.448 OA 
HETATM   11  C   UNL     3      -9.951  14.617  67.121  1.00  0.00    -0.240 C  
HETATM   12  H1  UNL     3      -9.265  14.323  65.166  1.00  0.00     0.000 HD 
HETATM   13  H2  UNL     3      -8.838  13.093  66.339  1.00  0.00     0.000 HD 
HETATM   14  N   UNL     2      -9.839  10.920  68.135  1.00  0.00    -0.170 NA 
HETATM   15  N   UNL     2      -8.058  12.162  68.904  1.00  0.00    -0.350 NA 
HETATM   16  H2  UNL     2      -7.193  12.670  68.719  1.00  0.00     0.000 HD 
HETATM   17  H   UNL     2     -10.335  11.199  68.982  1.00  0.00     0.000 HD 
HETATM   18  N   UNL     3     -10.004  14.180  68.322  1.00  0.00    -0.235 NA 
HETATM   19  N   UNL     3     -10.615  15.725  66.720  1.00  0.00    -0.310 NA 
HETATM   20  H2  UNL     3      -9.535  13.300  68.538  1.00  0.00     0.000 HD 
HETATM   21  H1  UNL     2      -8.541  12.234  69.800  1.00  0.00     0.000 HD 
HETATM   22  H1  UNL     3     -10.490  14.665  69.075  1.00  0.00     0.000 HD 
HETATM   23  H   UNL     3     -10.922  15.854  65.756  1.00  0.00     0.000 HD 
ENDROOT
BRANCH  14  24
HETATM   24  C   UNL     2     -10.588  10.064  67.234  1.00  0.00    -0.257 C  
BRANCH  24  25
HETATM   25  C   UNL     2     -10.519   8.619  67.698  1.00  0.00    -0.311 A  
HETATM   26  I   UNL     2      -9.880   4.710  65.873  1.00  0.00    -0.248 I  
HETATM   27  C   UNL     2     -10.705   8.290  69.052  1.00  0.00    -0.098 A  
HETATM   28  C   UNL     2     -10.261   7.579  66.784  1.00  0.00    -0.324 A  
HETATM   29  C   UNL     2     -10.707   6.964  69.476  1.00  0.00    -0.276 A  
HETATM   30  C   UNL     2     -10.241   6.253  67.221  1.00  0.00    -0.191 A  
HETATM   31  C   UNL     2     -10.474   5.941  68.562  1.00  0.00    -0.297 A  
ENDBRANCH  24  25
ENDBRANCH  14  24
BRANCH  19  32
HETATM   32  C   UNL     3     -10.864  16.723  67.753  1.00  0.00    -0.285 C  
BRANCH  32  33
HETATM   33  C   UNL     3     -10.065  17.978  67.549  1.00  0.00    -0.356 A  
HETATM   34  C   UNL     3      -8.718  20.446  67.553  1.00  0.00    -0.370 A  
HETATM   35  C   UNL     3      -8.828  18.109  68.180  1.00  0.00    -0.289 A  
HETATM   36  I   UNL     3      -6.419  19.531  69.300  1.00  0.00    -0.365 I  
HETATM   37  C   UNL     3      -9.918  20.313  66.859  1.00  0.00    -0.592 A  
HETATM   38  C   UNL     3      -8.173  19.340  68.203  1.00  0.00    -0.318 A  
HETATM   39  C   UNL     3     -10.594  19.090  66.861  1.00  0.00    -0.518 A  
ENDBRANCH  32  33
ENDBRANCH  19  32
TORSDOF 4
ENDMDL
MODEL        8
REMARK 921   NORMALIZED FREE ENERGY PREDICTED BY IDOCK:   -7.68 KCAL/MOL
REMARK 922        TOTAL FREE ENERGY PREDICTED BY IDOCK:  -10.12 KCAL/MOL
REMARK 923 INTER-LIGAND FREE ENERGY PREDICTED BY IDOCK:   -9.74 KCAL/MOL
REMARK 924 INTRA-LIGAND FREE ENERGY PREDICTED BY IDOCK:   -0.38 KCAL/MOL
REMARK 927      BINDING AFFINITY PREDICTED BY RF-SCORE:    0.00 PKD
ROOT
HETATM    1  O   UNL     1     -10.769  13.229  65.224  1.00  0.00    -0.294 OA 
HETATM    2  S   UNL     1     -12.057  14.120  65.600  1.00  0.00    -0.421 S  
HETATM    3  N   UNL     2      -7.550  12.724  67.113  1.00  0.00    -0.345 NA 
HETATM    4  H1  UNL     2      -8.150  12.008  66.702  1.00  0.00     0.000 HD 
HETATM    5  H2  UNL     2      -6.699  13.041  66.648  1.00  0.00     0.000 HD 
HETATM    6  C   UNL     2      -7.937  13.227  68.296  1.00  0.00    -0.144 C  
HETATM    7  N   UNL     3      -8.796  15.239  65.859  1.00  0.00    -0.374 NA 
HETATM    8  O   UNL     1     -11.731  15.463  64.786  1.00  0.00    -0.326 OA 
HETATM    9  O   UNL     1     -13.218  13.479  65.032  1.00  0.00    -0.721 OA 
HETATM   10  O   UNL     1     -11.954  14.431  67.000  1.00  0.00    -0.409 OA 
HETATM   11  C   UNL     3      -9.183  16.215  66.709  1.00  0.00    -0.231 C  
HETATM   12  H1  UNL     3      -8.913  15.298  64.847  1.00  0.00     0.000 HD 
HETATM   13  H2  UNL     3      -8.366  14.400  66.248  1.00  0.00     0.000 HD 
HETATM   14  N   UNL     2      -9.169  12.968  68.749  1.00  0.00    -0.395 NA 
HETATM   15  N   UNL     2      -7.182  14.128  68.813  1.00  0.00    -0.115 NA 
HETATM   16  H2  UNL     2      -6.331  14.446  68.348  1.00  0.00     0.000 HD 
HETATM   17  H   UNL     2      -9.468  13.534  69.542  1.00  0.00     0.000 HD 
HETATM   18  N   UNL     3      -9.037  16.141  67.977  1.00  0.00    -0.189 NA 
HETATM   19  N   UNL     3      -9.822  17.244  66.108  1.00  0.00    -0.431 NA 
HETATM   20  H2  UNL     3      -8.606  15.303  68.367  1.00  0.00     0.000 HD 
HETATM   21  H1  UNL     2      -7.475  14.511  69.713  1.00  0.00     0.000 HD 
HETATM   22  H1  UNL     3      -9.330  16.878  68.619  1.00  0.00     0.000 HD 
HETATM   23  H   UNL     3     -10.299  17.138  65.212  1.00  0.00     0.000 HD 
ENDROOT
BRANCH  14  24
HETATM   24  C   UNL     2     -10.143  12.000  68.278  1.00  0.00    -0.201 C  
BRANCH  24  25
HETATM   25  C   UNL     2     -11.136  11.671  69.380  1.00  0.00    -0.268 A  
HETATM   26  I   UNL     2     -13.694  13.882  72.135  1.00  0.00    -0.636 I  
HETATM   27  C   UNL     2     -11.400  10.336  69.733  1.00  0.00    -0.334 A  
HETATM   28  C   UNL     2     -11.818  12.694  70.066  1.00  0.00    -0.358 A  
HETATM   29  C   UNL     2     -12.261  10.027  70.783  1.00  0.00    -0.408 A  
HETATM   30  C   UNL     2     -12.698  12.375  71.103  1.00  0.00    -0.240 A  
HETATM   31  C   UNL     2     -12.913  11.045  71.471  1.00  0.00    -0.553 A  
ENDBRANCH  24  25
ENDBRANCH  14  24
BRANCH  19  32
HETATM   32  C   UNL     3      -9.788  18.514  66.821  1.00  0.00    -0.342 C  
BRANCH  32  33
HETATM   33  C   UNL     3      -8.400  19.075  66.938  1.00  0.00    -0.289 A  
HETATM   34  C   UNL     3      -5.993  20.487  67.284  1.00  0.00    -0.240 A  
HETATM   35  C   UNL     3      -7.801  19.158  68.194  1.00  0.00    -0.336 A  
HETATM   36  I   UNL     3      -5.858  20.120  70.287  1.00  0.00    -0.292 I  
HETATM   37  C   UNL     3      -6.541  20.354  66.010  1.00  0.00    -0.257 A  
HETATM   38  C   UNL     3      -6.621  19.880  68.369  1.00  0.00    -0.286 A  
HETATM   39  C   UNL     3      -7.741  19.659  65.836  1.00  0.00    -0.307 A  
ENDBRANCH  32  33
ENDBRANCH  19  32
TORSDOF 4
ENDMDL
MODEL        9
REMARK 921   NORMALIZED FREE ENERGY PREDICTED BY IDOCK:   -7.67 KCAL/MOL
REMARK 922        TOTAL FREE ENERGY PREDICTED BY IDOCK:  -10.11 KCAL/MOL
REMARK 923 INTER-LIGAND FREE ENERGY PREDICTED BY IDOCK:   -9.50 KCAL/MOL
REMARK 924 INTRA-LIGAND FREE ENERGY PREDICTED BY IDOCK:   -0.61 KCAL/MOL
REMARK 927      BINDING AFFINITY PREDICTED BY RF-SCORE:    0.00 PKD
ROOT
HETATM    1  O   UNL     1     -13.931  13.721  70.606  1.00  0.00     0.471 OA 
HETATM    2  S   UNL     1     -13.230  14.691  71.683  1.00  0.00    -0.377 S  
HETATM    3  N   UNL     2     -12.401  11.150  68.319  1.00  0.00    -0.522 NA 
HETATM    4  H1  UNL     2     -13.211  11.037  68.929  1.00  0.00     0.000 HD 
HETATM    5  H2  UNL     2     -12.503  11.318  67.318  1.00  0.00     0.000 HD 
HETATM    6  C   UNL     2     -11.193  11.066  68.900  1.00  0.00    -0.265 C  
HETATM    7  N   UNL     3     -12.045  14.199  68.473  1.00  0.00    -0.524 NA 
HETATM    8  O   UNL     1     -13.059  16.025  70.809  1.00  0.00    -0.362 OA 
HETATM    9  O   UNL     1     -14.178  14.927  72.746  1.00  0.00    -0.403 OA 
HETATM   10  O   UNL     1     -11.915  14.165  71.924  1.00  0.00    -0.137 OA 
HETATM   11  C   UNL     3     -10.826  14.652  68.839  1.00  0.00    -0.250 C  
HETATM   12  H1  UNL     3     -12.833  14.814  68.267  1.00  0.00     0.000 HD 
HETATM   13  H2  UNL     3     -12.185  13.191  68.399  1.00  0.00     0.000 HD 
HETATM   14  N   UNL     2     -11.103  11.091  70.235  1.00  0.00    -0.466 NA 
HETATM   15  N   UNL     2     -10.173  11.208  68.132  1.00  0.00    -0.175 NA 
HETATM   16  H2  UNL     2     -10.276  11.375  67.131  1.00  0.00     0.000 HD 
HETATM   17  H   UNL     2     -10.162  11.226  70.605  1.00  0.00     0.000 HD 
HETATM   18  N   UNL     3      -9.838  13.882  69.097  1.00  0.00    -0.421 NA 
HETATM   19  N   UNL     3     -10.763  15.994  68.995  1.00  0.00    -0.254 NA 
HETATM   20  H2  UNL     3      -9.977  12.874  69.023  1.00  0.00     0.000 HD 
HETATM   21  H1  UNL     2      -9.255  11.144  68.573  1.00  0.00     0.000 HD 
HETATM   22  H1  UNL     3      -8.918  14.224  69.373  1.00  0.00     0.000 HD 
HETATM   23  H   UNL     3     -11.591  16.556  69.196  1.00  0.00     0.000 HD 
ENDROOT
BRANCH  14  24
HETATM   24  C   UNL     2     -12.146  10.956  71.235  1.00  0.00    -0.217 C  
BRANCH  24  25
HETATM   25  C   UNL     2     -12.524   9.495  71.412  1.00  0.00    -0.450 A  
HETATM   26  I   UNL     2     -10.438   5.683  71.778  1.00  0.00    -0.285 I  
HETATM   27  C   UNL     2     -13.873   9.105  71.479  1.00  0.00    -0.353 A  
HETATM   28  C   UNL     2     -11.532   8.501  71.518  1.00  0.00    -0.350 A  
HETATM   29  C   UNL     2     -14.230   7.763  71.577  1.00  0.00    -0.540 A  
HETATM   30  C   UNL     2     -11.898   7.159  71.640  1.00  0.00    -0.306 A  
HETATM   31  C   UNL     2     -13.243   6.785  71.658  1.00  0.00    -0.235 A  
ENDBRANCH  24  25
ENDBRANCH  14  24
BRANCH  19  32
HETATM   32  C   UNL     3      -9.439  16.587  68.858  1.00  0.00    -0.260 C  
BRANCH  32  33
HETATM   33  C   UNL     3      -9.445  17.826  68.010  1.00  0.00    -0.281 A  
HETATM   34  C   UNL     3      -9.470  20.362  66.795  1.00  0.00    -0.478 A  
HETATM   35  C   UNL     3      -8.261  18.542  67.839  1.00  0.00    -0.277 A  
HETATM   36  I   UNL     3      -6.516  20.909  67.182  1.00  0.00    -0.425 I  
HETATM   37  C   UNL     3     -10.651  19.631  66.895  1.00  0.00    -0.603 A  
HETATM   38  C   UNL     3      -8.278  19.810  67.260  1.00  0.00    -0.306 A  
HETATM   39  C   UNL     3     -10.644  18.373  67.505  1.00  0.00    -0.447 A  
ENDBRANCH  32  33
ENDBRANCH  19  32
TORSDOF 4
ENDMDL
MODEL       10
REMARK 921   NORMALIZED FREE ENERGY PREDICTED BY IDOCK:   -7.60 KCAL/MOL
REMARK 922        TOTAL FREE ENERGY PREDICTED BY IDOCK:  -10.02 KCAL/MOL
REMARK 923 INTER-LIGAND FREE ENERGY PREDICTED BY IDOCK:   -9.25 KCAL/MOL
REMARK 924 INTRA-LIGAND FREE ENERGY PREDICTED BY IDOCK:   -0.77 KCAL/MOL
REMARK 927      BINDING AFFINITY PREDICTED BY RF-SCORE:    0.00 PKD
ROOT
HETATM    1  O   UNL     1      -7.830  13.046  66.793  1.00  0.00     0.063 OA 
HETATM    2  S   UNL     1      -7.908  13.328  68.377  1.00  0.00    -0.120 S  
HETATM    3  N   UNL     2     -10.408  13.626  64.110  1.00  0.00    -0.699 NA 
HETATM    4  H1  UNL     2      -9.425  13.897  64.098  1.00  0.00     0.000 HD 
HETATM    5  H2  UNL     2     -10.743  12.797  63.618  1.00  0.00     0.000 HD 
HETATM    6  C   UNL     2     -11.241  14.417  64.807  1.00  0.00    -0.387 C  
HETATM    7  N   UNL     3     -10.416  11.782  66.569  1.00  0.00    -0.223 NA 
HETATM    8  O   UNL     1      -8.339  11.879  68.912  1.00  0.00    -0.037 OA 
HETATM    9  O   UNL     1      -6.575  13.637  68.835  1.00  0.00    -0.093 OA 
HETATM   10  O   UNL     1      -9.021  14.212  68.588  1.00  0.00    -0.187 OA 
HETATM   11  C   UNL     3     -11.312  12.067  67.541  1.00  0.00    -0.319 C  
HETATM   12  H1  UNL     3      -9.753  11.009  66.628  1.00  0.00     0.000 HD 
HETATM   13  H2  UNL     3     -10.404  12.370  65.736  1.00  0.00     0.000 HD 
HETATM   14  N   UNL     2     -10.733  15.341  65.630  1.00  0.00    -0.344 NA 
HETATM   15  N   UNL     2     -12.480  14.076  64.823  1.00  0.00    -0.609 NA 
HETATM   16  H2  UNL     2     -12.814  13.247  64.331  1.00  0.00     0.000 HD 
HETATM   17  H   UNL     2     -11.403  15.765  66.272  1.00  0.00     0.000 HD 
HETATM   18  N   UNL     3     -12.143  13.035  67.468  1.00  0.00    -0.294 NA 
HETATM   19  N   UNL     3     -11.192  11.290  68.641  1.00  0.00    -0.226 NA 
HETATM   20  H2  UNL     3     -12.132  13.623  66.635  1.00  0.00     0.000 HD 
HETATM   21  H1  UNL     2     -13.113  14.676  65.352  1.00  0.00     0.000 HD 
HETATM   22  H1  UNL     3     -12.819  13.250  68.202  1.00  0.00     0.000 HD 
HETATM   23  H   UNL     3     -10.319  10.822  68.883  1.00  0.00     0.000 HD 
ENDROOT
BRANCH  14  24
HETATM   24  C   UNL     2      -9.372  15.830  65.745  1.00  0.00    -0.263 C  
BRANCH  24  25
HETATM   25  C   UNL     2      -9.356  17.203  66.396  1.00  0.00    -0.286 A  
HETATM   26  I   UNL     2      -6.733  19.437  69.069  1.00  0.00    -0.366 I  
HETATM   27  C   UNL     2     -10.411  18.109  66.186  1.00  0.00    -0.394 A  
HETATM   28  C   UNL     2      -8.283  17.600  67.217  1.00  0.00    -0.225 A  
HETATM   29  C   UNL     2     -10.436  19.344  66.828  1.00  0.00    -0.569 A  
HETATM   30  C   UNL     2      -8.305  18.851  67.839  1.00  0.00    -0.281 A  
HETATM   31  C   UNL     2      -9.383  19.719  67.656  1.00  0.00    -0.445 A  
ENDBRANCH  24  25
ENDBRANCH  14  24
BRANCH  19  32
HETATM   32  C   UNL     3     -12.390  11.164  69.461  1.00  0.00    -0.194 C  
BRANCH  32  33
HETATM   33  C   UNL     3     -12.197  10.241  70.630  1.00  0.00    -0.422 A  
HETATM   34  C   UNL     3     -11.830   8.198  72.526  1.00  0.00    -0.438 A  
HETATM   35  C   UNL     3     -10.919   9.765  70.919  1.00  0.00    -0.411 A  
HETATM   36  I   UNL     3      -8.840   7.939  72.113  1.00  0.00    -0.263 I  
HETATM   37  C   UNL     3     -13.105   8.711  72.299  1.00  0.00    -0.415 A  
HETATM   38  C   UNL     3     -10.741   8.734  71.841  1.00  0.00    -0.359 A  
HETATM   39  C   UNL     3     -13.292   9.722  71.352  1.00  0.00    -0.449 A  
ENDBRANCH  32  33
ENDBRANCH  19  32
TORSDOF 4
ENDMDL
MODEL       11
REMARK 921   NORMALIZED FREE ENERGY PREDICTED BY IDOCK:   -7.59 KCAL/MOL
REMARK 922        TOTAL FREE ENERGY PREDICTED BY IDOCK:  -10.01 KCAL/MOL
REMARK 923 INTER-LIGAND FREE ENERGY PREDICTED BY IDOCK:   -9.34 KCAL/MOL
REMARK 924 INTRA-LIGAND FREE ENERGY PREDICTED BY IDOCK:   -0.67 KCAL/MOL
REMARK 927      BINDING AFFINITY PREDICTED BY RF-SCORE:    0.00 PKD
ROOT
HETATM    1  O   UNL     1     -12.161  15.922  68.633  1.00  0.00    -0.252 OA 
HETATM    2  S   UNL     1     -10.951  16.189  69.662  1.00  0.00    -0.359 S  
HETATM    3  N   UNL     2     -12.225  13.893  65.461  1.00  0.00    -0.417 NA 
HETATM    4  H1  UNL     2     -12.892  13.864  66.232  1.00  0.00     0.000 HD 
HETATM    5  H2  UNL     2     -12.422  14.406  64.601  1.00  0.00     0.000 HD 
HETATM    6  C   UNL     2     -11.075  13.223  65.634  1.00  0.00    -0.282 C  
HETATM    7  N   UNL     3     -10.643  16.415  66.227  1.00  0.00    -0.281 NA 
HETATM    8  O   UNL     1     -10.408  17.596  69.119  1.00  0.00    -0.353 OA 
HETATM    9  O   UNL     1     -11.522  16.364  70.977  1.00  0.00    -0.388 OA 
HETATM   10  O   UNL     1      -9.943  15.203  69.384  1.00  0.00    -0.231 OA 
HETATM   11  C   UNL     3      -9.301  16.285  66.325  1.00  0.00    -0.326 C  
HETATM   12  H1  UNL     3     -11.136  17.289  66.408  1.00  0.00     0.000 HD 
HETATM   13  H2  UNL     3     -11.190  15.597  65.959  1.00  0.00     0.000 HD 
HETATM   14  N   UNL     2     -10.753  12.775  66.853  1.00  0.00    -0.251 NA 
HETATM   15  N   UNL     2     -10.235  13.259  64.663  1.00  0.00    -0.566 NA 
HETATM   16  H2  UNL     2     -10.432  13.772  63.803  1.00  0.00     0.000 HD 
HETATM   17  H   UNL     2      -9.790  12.457  66.959  1.00  0.00     0.000 HD 
HETATM   18  N   UNL     3      -8.683  15.189  66.098  1.00  0.00    -0.441 NA 
HETATM   19  N   UNL     3      -8.674  17.397  66.771  1.00  0.00    -0.245 NA 
HETATM   20  H2  UNL     3      -9.229  14.371  65.830  1.00  0.00     0.000 HD 
HETATM   21  H1  UNL     2      -9.361  12.750  64.794  1.00  0.00     0.000 HD 
HETATM   22  H1  UNL     3      -7.670  15.091  66.172  1.00  0.00     0.000 HD 
HETATM   23  H   UNL     3      -9.154  18.104  67.328  1.00  0.00     0.000 HD 
ENDROOT
BRANCH  14  24
HETATM   24  C   UNL     2     -11.571  12.676  68.048  1.00  0.00    -0.343 C  
BRANCH  24  25
HETATM   25  C   UNL     2     -11.099  11.523  68.918  1.00  0.00    -0.288 A  
HETATM   26  I   UNL     2     -12.825   8.887  71.933  1.00  0.00    -0.537 I  
HETATM   27  C   UNL     2      -9.767  11.077  68.858  1.00  0.00    -0.184 A  
HETATM   28  C   UNL     2     -11.986  10.872  69.797  1.00  0.00    -0.423 A  
HETATM   29  C   UNL     2      -9.310  10.064  69.696  1.00  0.00    -0.242 A  
HETATM   30  C   UNL     2     -11.525   9.840  70.618  1.00  0.00    -0.324 A  
HETATM   31  C   UNL     2     -10.188   9.441  70.578  1.00  0.00    -0.332 A  
ENDBRANCH  24  25
ENDBRANCH  14  24
BRANCH  19  32
HETATM   32  C   UNL     3      -7.269  17.522  66.405  1.00  0.00    -0.291 C  
BRANCH  32  33
HETATM   33  C   UNL     3      -6.629  18.752  66.980  1.00  0.00    -0.205 A  
HETATM   34  C   UNL     3      -5.815  21.137  68.227  1.00  0.00    -0.358 A  
HETATM   35  C   UNL     3      -6.228  18.752  68.315  1.00  0.00    -0.217 A  
HETATM   36  I   UNL     3      -5.425  19.922  70.974  1.00  0.00    -0.357 I  
HETATM   37  C   UNL     3      -6.146  21.141  66.874  1.00  0.00    -0.380 A  
HETATM   38  C   UNL     3      -5.849  19.940  68.940  1.00  0.00    -0.240 A  
HETATM   39  C   UNL     3      -6.558  19.959  66.253  1.00  0.00    -0.224 A  
ENDBRANCH  32  33
ENDBRANCH  19  32
TORSDOF 4
ENDMDL
MODEL       12
REMARK 921   NORMALIZED FREE ENERGY PREDICTED BY IDOCK:   -7.53 KCAL/MOL
REMARK 922        TOTAL FREE ENERGY PREDICTED BY IDOCK:   -9.93 KCAL/MOL
REMARK 923 INTER-LIGAND FREE ENERGY PREDICTED BY IDOCK:   -9.04 KCAL/MOL
REMARK 924 INTRA-LIGAND FREE ENERGY PREDICTED BY IDOCK:   -0.89 KCAL/MOL
REMARK 927      BINDING AFFINITY PREDICTED BY RF-SCORE:    0.00 PKD
ROOT
HETATM    1  O   UNL     1     -11.796  11.299  67.604  1.00  0.00    -0.614 OA 
HETATM    2  S   UNL     1     -10.405  11.754  68.276  1.00  0.00    -0.211 S  
HETATM    3  N   UNL     2     -13.283  12.229  64.272  1.00  0.00    -0.761 NA 
HETATM    4  H1  UNL     2     -13.185  11.295  64.671  1.00  0.00     0.000 HD 
HETATM    5  H2  UNL     2     -14.170  12.732  64.298  1.00  0.00     0.000 HD 
HETATM    6  C   UNL     2     -12.186  12.762  63.710  1.00  0.00    -0.489 C  
HETATM    7  N   UNL     3     -12.607  13.931  66.740  1.00  0.00    -0.453 NA 
HETATM    8  O   UNL     1     -10.906  12.973  69.190  1.00  0.00    -0.195 OA 
HETATM    9  O   UNL     1      -9.947  10.674  69.117  1.00  0.00    -0.208 OA 
HETATM   10  O   UNL     1      -9.597  12.310  67.226  1.00  0.00    -0.182 OA 
HETATM   11  C   UNL     3     -11.624  14.847  66.597  1.00  0.00    -0.261 C  
HETATM   12  H1  UNL     3     -13.108  13.779  67.616  1.00  0.00     0.000 HD 
HETATM   13  H2  UNL     3     -12.861  13.364  65.932  1.00  0.00     0.000 HD 
HETATM   14  N   UNL     2     -10.998  12.182  63.912  1.00  0.00    -0.362 NA 
HETATM   15  N   UNL     2     -12.310  13.938  63.207  1.00  0.00    -1.148 NA 
HETATM   16  H2  UNL     2     -13.197  14.441  63.233  1.00  0.00     0.000 HD 
HETATM   17  H   UNL     2     -10.190  12.739  63.632  1.00  0.00     0.000 HD 
HETATM   18  N   UNL     3     -10.996  15.039  65.500  1.00  0.00    -0.342 NA 
HETATM   19  N   UNL     3     -11.298  15.486  67.744  1.00  0.00    -0.317 NA 
HETATM   20  H2  UNL     3     -11.251  14.473  64.691  1.00  0.00     0.000 HD 
HETATM   21  H1  UNL     2     -11.477  14.343  62.780  1.00  0.00     0.000 HD 
HETATM   22  H1  UNL     3     -10.254  15.731  65.392  1.00  0.00     0.000 HD 
HETATM   23  H   UNL     3     -11.477  15.078  68.662  1.00  0.00     0.000 HD 
ENDROOT
BRANCH  14  24
HETATM   24  C   UNL     2     -10.686  10.879  64.470  1.00  0.00    -0.188 C  
BRANCH  24  25
HETATM   25  C   UNL     2      -9.313  10.421  64.010  1.00  0.00    -0.321 A  
HETATM   26  I   UNL     2      -6.034   8.046  65.631  1.00  0.00    -0.037 I  
HETATM   27  C   UNL     2      -8.817  10.794  62.749  1.00  0.00    -0.291 A  
HETATM   28  C   UNL     2      -8.510   9.609  64.834  1.00  0.00    -0.161 A  
HETATM   29  C   UNL     2      -7.535  10.431  62.345  1.00  0.00    -0.164 A  
HETATM   30  C   UNL     2      -7.234   9.230  64.411  1.00  0.00    -0.097 A  
HETATM   31  C   UNL     2      -6.739   9.648  63.174  1.00  0.00    -0.109 A  
ENDBRANCH  24  25
ENDBRANCH  14  24
BRANCH  19  32
HETATM   32  C   UNL     3     -10.675  16.794  67.586  1.00  0.00    -0.305 C  
BRANCH  32  33
HETATM   33  C   UNL     3      -9.361  16.899  68.305  1.00  0.00    -0.248 A  
HETATM   34  C   UNL     3      -6.722  17.071  69.260  1.00  0.00    -0.234 A  
HETATM   35  C   UNL     3      -8.699  18.125  68.339  1.00  0.00    -0.302 A  
HETATM   36  I   UNL     3      -6.378  20.020  68.661  1.00  0.00    -0.339 I  
HETATM   37  C   UNL     3      -7.394  15.852  69.298  1.00  0.00    -0.221 A  
HETATM   38  C   UNL     3      -7.381  18.205  68.789  1.00  0.00    -0.276 A  
HETATM   39  C   UNL     3      -8.703  15.761  68.816  1.00  0.00    -0.203 A  
ENDBRANCH  32  33
ENDBRANCH  19  32
TORSDOF 4
ENDMDL
MODEL       13
REMARK 921   NORMALIZED FREE ENERGY PREDICTED BY IDOCK:   -7.47 KCAL/MOL
REMARK 922        TOTAL FREE ENERGY PREDICTED BY IDOCK:   -9.87 KCAL/MOL
REMARK 923 INTER-LIGAND FREE ENERGY PREDICTED BY IDOCK:   -9.21 KCAL/MOL
REMARK 924 INTRA-LIGAND FREE ENERGY PREDICTED BY IDOCK:   -0.66 KCAL/MOL
REMARK 927      BINDING AFFINITY PREDICTED BY RF-SCORE:    0.00 PKD
ROOT
HETATM    1  O   UNL     1     -10.178  11.213  66.220  1.00  0.00    -0.224 OA 
HETATM    2  S   UNL     1      -9.080  10.421  67.093  1.00  0.00    -0.139 S  
HETATM    3  N   UNL     2     -12.412  14.087  67.188  1.00  0.00    -0.510 NA 
HETATM    4  H1  UNL     2     -11.828  14.005  66.356  1.00  0.00     0.000 HD 
HETATM    5  H2  UNL     2     -13.416  13.908  67.158  1.00  0.00     0.000 HD 
HETATM    6  C   UNL     2     -11.793  14.441  68.326  1.00  0.00    -0.326 C  
HETATM    7  N   UNL     3     -12.250  11.199  68.231  1.00  0.00    -0.709 NA 
HETATM    8  O   UNL     1      -9.950   9.170  67.593  1.00  0.00    -0.172 OA 
HETATM    9  O   UNL     1      -8.048   9.965  66.193  1.00  0.00    -0.115 OA 
HETATM   10  O   UNL     1      -8.797  11.234  68.243  1.00  0.00    -0.145 OA 
HETATM   11  C   UNL     3     -11.846  11.036  69.510  1.00  0.00    -0.333 C  
HETATM   12  H1  UNL     3     -12.482  10.422  67.612  1.00  0.00     0.000 HD 
HETATM   13  H2  UNL     3     -12.327  12.149  67.865  1.00  0.00     0.000 HD 
HETATM   14  N   UNL     2     -10.456  14.426  68.378  1.00  0.00    -0.239 NA 
HETATM   15  N   UNL     2     -12.528  14.544  69.374  1.00  0.00    -0.566 NA 
HETATM   16  H2  UNL     2     -13.533  14.365  69.344  1.00  0.00     0.000 HD 
HETATM   17  H   UNL     2     -10.057  14.508  69.313  1.00  0.00     0.000 HD 
HETATM   18  N   UNL     3     -11.556  12.010  70.285  1.00  0.00    -0.527 NA 
HETATM   19  N   UNL     3     -11.690   9.743  69.874  1.00  0.00    -0.448 NA 
HETATM   20  H2  UNL     3     -11.634  12.959  69.921  1.00  0.00     0.000 HD 
HETATM   21  H1  UNL     2     -12.058  14.813  70.238  1.00  0.00     0.000 HD 
HETATM   22  H1  UNL     3     -11.251  11.887  71.251  1.00  0.00     0.000 HD 
HETATM   23  H   UNL     3     -11.515   9.004  69.193  1.00  0.00     0.000 HD 
ENDROOT
BRANCH  14  24
HETATM   24  C   UNL     2      -9.489  14.309  67.302  1.00  0.00    -0.220 C  
BRANCH  24  25
HETATM   25  C   UNL     2      -8.813  15.646  67.051  1.00  0.00    -0.250 A  
HETATM   26  I   UNL     2     -10.056  19.767  66.347  1.00  0.00    -0.632 I  
HETATM   27  C   UNL     2      -7.412  15.742  66.986  1.00  0.00    -0.242 A  
HETATM   28  C   UNL     2      -9.574  16.820  66.883  1.00  0.00    -0.253 A  
HETATM   29  C   UNL     2      -6.786  16.950  66.694  1.00  0.00    -0.271 A  
HETATM   30  C   UNL     2      -8.937  18.033  66.614  1.00  0.00    -0.273 A  
HETATM   31  C   UNL     2      -7.547  18.100  66.507  1.00  0.00    -0.273 A  
ENDBRANCH  24  25
ENDBRANCH  14  24
BRANCH  19  32
HETATM   32  C   UNL     3     -11.785   9.472  71.303  1.00  0.00    -0.370 C  
BRANCH  32  33
HETATM   33  C   UNL     3     -11.092   8.199  71.698  1.00  0.00    -0.310 A  
HETATM   34  C   UNL     3     -10.163   5.622  72.329  1.00  0.00    -0.241 A  
HETATM   35  C   UNL     3     -10.565   7.374  70.706  1.00  0.00    -0.234 A  
HETATM   36  I   UNL     3      -9.511   4.831  69.479  1.00  0.00    -0.275 I  
HETATM   37  C   UNL     3     -10.621   6.460  73.343  1.00  0.00    -0.298 A  
HETATM   38  C   UNL     3     -10.128   6.086  71.016  1.00  0.00    -0.192 A  
HETATM   39  C   UNL     3     -11.092   7.739  73.031  1.00  0.00    -0.419 A  
ENDBRANCH  32  33
ENDBRANCH  19  32
TORSDOF 4
ENDMDL
MODEL       14
REMARK 921   NORMALIZED FREE ENERGY PREDICTED BY IDOCK:   -7.47 KCAL/MOL
REMARK 922        TOTAL FREE ENERGY PREDICTED BY IDOCK:   -9.87 KCAL/MOL
REMARK 923 INTER-LIGAND FREE ENERGY PREDICTED BY IDOCK:   -9.11 KCAL/MOL
REMARK 924 INTRA-LIGAND FREE ENERGY PREDICTED BY IDOCK:   -0.75 KCAL/MOL
REMARK 927      BINDING AFFINITY PREDICTED BY RF-SCORE:    0.00 PKD
ROOT
HETATM    1  O   UNL     1      -9.995  11.169  66.485  1.00  0.00    -0.202 OA 
HETATM    2  S   UNL     1      -9.013  10.371  67.481  1.00  0.00    -0.134 S  
HETATM    3  N   UNL     2     -12.279  14.083  67.173  1.00  0.00    -0.532 NA 
HETATM    4  H1  UNL     2     -11.607  13.985  66.411  1.00  0.00     0.000 HD 
HETATM    5  H2  UNL     2     -13.276  13.918  67.032  1.00  0.00     0.000 HD 
HETATM    6  C   UNL     2     -11.786  14.441  68.369  1.00  0.00    -0.332 C  
HETATM    7  N   UNL     3     -12.278  11.205  68.251  1.00  0.00    -0.709 NA 
HETATM    8  O   UNL     1      -9.952   9.137  67.892  1.00  0.00    -0.168 OA 
HETATM    9  O   UNL     1      -7.894   9.891  66.706  1.00  0.00    -0.108 OA 
HETATM   10  O   UNL     1      -8.848  11.191  68.649  1.00  0.00    -0.159 OA 
HETATM   11  C   UNL     3     -12.022  11.049  69.569  1.00  0.00    -0.342 C  
HETATM   12  H1  UNL     3     -12.451  10.424  67.618  1.00  0.00     0.000 HD 
HETATM   13  H2  UNL     3     -12.300  12.151  67.871  1.00  0.00     0.000 HD 
HETATM   14  N   UNL     2     -10.463  14.407  68.570  1.00  0.00    -0.247 NA 
HETATM   15  N   UNL     2     -12.632  14.564  69.328  1.00  0.00    -0.547 NA 
HETATM   16  H2  UNL     2     -13.629  14.399  69.187  1.00  0.00     0.000 HD 
HETATM   17  H   UNL     2     -10.170  14.493  69.544  1.00  0.00     0.000 HD 
HETATM   18  N   UNL     3     -11.806  12.027  70.364  1.00  0.00    -0.519 NA 
HETATM   19  N   UNL     3     -11.927   9.757  69.960  1.00  0.00    -0.462 NA 
HETATM   20  H2  UNL     3     -11.828  12.973  69.984  1.00  0.00     0.000 HD 
HETATM   21  H1  UNL     2     -12.257  14.836  70.237  1.00  0.00     0.000 HD 
HETATM   22  H1  UNL     3     -11.612  11.909  71.358  1.00  0.00     0.000 HD 
HETATM   23  H   UNL     3     -11.688   9.010  69.308  1.00  0.00     0.000 HD 
ENDROOT
BRANCH  14  24
HETATM   24  C   UNL     2      -9.384  14.266  67.610  1.00  0.00    -0.201 C  
BRANCH  24  25
HETATM   25  C   UNL     2      -8.740  15.614  67.336  1.00  0.00    -0.194 A  
HETATM   26  I   UNL     2     -10.080  19.685  66.526  1.00  0.00    -0.686 I  
HETATM   27  C   UNL     2      -7.341  15.745  67.285  1.00  0.00    -0.257 A  
HETATM   28  C   UNL     2      -9.529  16.763  67.134  1.00  0.00    -0.237 A  
HETATM   29  C   UNL     2      -6.744  16.962  66.972  1.00  0.00    -0.242 A  
HETATM   30  C   UNL     2      -8.921  17.987  66.845  1.00  0.00    -0.262 A  
HETATM   31  C   UNL     2      -7.531  18.088  66.752  1.00  0.00    -0.242 A  
ENDBRANCH  24  25
ENDBRANCH  14  24
BRANCH  19  32
HETATM   32  C   UNL     3     -12.185   9.502  71.371  1.00  0.00    -0.371 C  
BRANCH  32  33
HETATM   33  C   UNL     3     -11.054   8.780  72.045  1.00  0.00    -0.441 A  
HETATM   34  C   UNL     3      -8.969   7.144  72.984  1.00  0.00    -0.161 A  
HETATM   35  C   UNL     3      -9.759   8.929  71.551  1.00  0.00    -0.372 A  
HETATM   36  I   UNL     3      -6.857   8.243  71.112  1.00  0.00    -0.072 I  
HETATM   37  C   UNL     3     -10.242   7.030  73.538  1.00  0.00    -0.371 A  
HETATM   38  C   UNL     3      -8.731   8.100  71.999  1.00  0.00    -0.164 A  
HETATM   39  C   UNL     3     -11.283   7.836  73.068  1.00  0.00    -0.380 A  
ENDBRANCH  32  33
ENDBRANCH  19  32
TORSDOF 4
ENDMDL
MODEL       15
REMARK 921   NORMALIZED FREE ENERGY PREDICTED BY IDOCK:   -7.45 KCAL/MOL
REMARK 922        TOTAL FREE ENERGY PREDICTED BY IDOCK:   -9.84 KCAL/MOL
REMARK 923 INTER-LIGAND FREE ENERGY PREDICTED BY IDOCK:   -8.99 KCAL/MOL
REMARK 924 INTRA-LIGAND FREE ENERGY PREDICTED BY IDOCK:   -0.85 KCAL/MOL
REMARK 927      BINDING AFFINITY PREDICTED BY RF-SCORE:    0.00 PKD
ROOT
HETATM    1  O   UNL     1      -8.535   9.779  70.308  1.00  0.00    -0.190 OA 
HETATM    2  S   UNL     1      -8.250   9.899  68.728  1.00  0.00    -0.121 S  
HETATM    3  N   UNL     2     -11.729   8.963  72.128  1.00  0.00    -0.362 NA 
HETATM    4  H1  UNL     2     -10.806   8.554  72.276  1.00  0.00     0.000 HD 
HETATM    5  H2  UNL     2     -12.098   9.690  72.742  1.00  0.00     0.000 HD 
HETATM    6  C   UNL     2     -12.435   8.496  71.085  1.00  0.00    -0.174 C  
HETATM    7  N   UNL     3     -10.974  11.323  70.309  1.00  0.00    -0.377 NA 
HETATM    8  O   UNL     1      -8.406  11.482  68.521  1.00  0.00    -0.148 OA 
HETATM    9  O   UNL     1      -6.878   9.514  68.496  1.00  0.00    -0.060 OA 
HETATM   10  O   UNL     1      -9.352   9.268  68.057  1.00  0.00    -0.134 OA 
HETATM   11  C   UNL     3     -11.627  11.416  69.130  1.00  0.00    -0.314 C  
HETATM   12  H1  UNL     3     -10.249  11.979  70.602  1.00  0.00     0.000 HD 
HETATM   13  H2  UNL     3     -11.217  10.558  70.938  1.00  0.00     0.000 HD 
HETATM   14  N   UNL     2     -11.827   7.731  70.172  1.00  0.00    -0.461 NA 
HETATM   15  N   UNL     2     -13.596   9.012  70.899  1.00  0.00    -0.537 NA 
HETATM   16  H2  UNL     2     -13.965   9.739  71.513  1.00  0.00     0.000 HD 
HETATM   17  H   UNL     2     -12.355   7.578  69.312  1.00  0.00     0.000 HD 
HETATM   18  N   UNL     3     -12.535  10.594  68.763  1.00  0.00    -0.690 NA 
HETATM   19  N   UNL     3     -11.175  12.408  68.329  1.00  0.00    -0.242 NA 
HETATM   20  H2  UNL     3     -12.779   9.829  69.392  1.00  0.00     0.000 HD 
HETATM   21  H1  UNL     2     -14.133   8.657  70.107  1.00  0.00     0.000 HD 
HETATM   22  H1  UNL     3     -13.029  10.664  67.873  1.00  0.00     0.000 HD 
HETATM   23  H   UNL     3     -10.231  12.785  68.413  1.00  0.00     0.000 HD 
ENDROOT
BRANCH  14  24
HETATM   24  C   UNL     2     -10.527   7.086  70.221  1.00  0.00    -0.208 C  
BRANCH  24  25
HETATM   25  C   UNL     2     -10.374   6.117  69.061  1.00  0.00    -0.263 A  
HETATM   26  I   UNL     2      -8.482   2.249  68.367  1.00  0.00    -0.135 I  
HETATM   27  C   UNL     2     -10.923   6.411  67.801  1.00  0.00    -0.425 A  
HETATM   28  C   UNL     2      -9.683   4.900  69.225  1.00  0.00    -0.258 A  
HETATM   29  C   UNL     2     -10.733   5.559  66.717  1.00  0.00    -0.329 A  
HETATM   30  C   UNL     2      -9.518   4.039  68.138  1.00  0.00    -0.158 A  
HETATM   31  C   UNL     2     -10.030   4.370  66.882  1.00  0.00    -0.210 A  
ENDBRANCH  24  25
ENDBRANCH  14  24
BRANCH  19  32
HETATM   32  C   UNL     3     -12.122  12.904  67.339  1.00  0.00    -0.197 C  
BRANCH  32  33
HETATM   33  C   UNL     3     -11.815  12.416  65.952  1.00  0.00    -0.467 A  
HETATM   34  C   UNL     3     -10.918  11.787  63.362  1.00  0.00    -0.458 A  
HETATM   35  C   UNL     3     -10.782  11.500  65.763  1.00  0.00    -0.325 A  
HETATM   36  I   UNL     3      -8.667   9.969  64.257  1.00  0.00    -0.294 I  
HETATM   37  C   UNL     3     -11.998  12.651  63.530  1.00  0.00    -0.630 A  
HETATM   38  C   UNL     3     -10.321  11.208  64.480  1.00  0.00    -0.337 A  
HETATM   39  C   UNL     3     -12.441  12.972  64.816  1.00  0.00    -0.485 A  
ENDBRANCH  32  33
ENDBRANCH  19  32
TORSDOF 4
ENDMDL
MODEL       16
REMARK 921   NORMALIZED FREE ENERGY PREDICTED BY IDOCK:   -7.42 KCAL/MOL
REMARK 922        TOTAL FREE ENERGY PREDICTED BY IDOCK:   -9.80 KCAL/MOL
REMARK 923 INTER-LIGAND FREE ENERGY PREDICTED BY IDOCK:   -9.15 KCAL/MOL
REMARK 924 INTRA-LIGAND FREE ENERGY PREDICTED BY IDOCK:   -0.65 KCAL/MOL
REMARK 927      BINDING AFFINITY PREDICTED BY RF-SCORE:    0.00 PKD
ROOT
HETATM    1  O   UNL     1     -12.896  14.276  66.180  1.00  0.00    -0.326 OA 
HETATM    2  S   UNL     1     -11.785  13.660  65.190  1.00  0.00    -0.349 S  
HETATM    3  N   UNL     2     -12.546  15.535  69.712  1.00  0.00    -0.596 NA 
HETATM    4  H1  UNL     2     -13.006  15.999  68.929  1.00  0.00     0.000 HD 
HETATM    5  H2  UNL     2     -13.077  15.034  70.425  1.00  0.00     0.000 HD 
HETATM    6  C   UNL     2     -11.206  15.617  69.759  1.00  0.00    -0.321 C  
HETATM    7  N   UNL     3     -12.136  12.739  68.503  1.00  0.00    -0.202 NA 
HETATM    8  O   UNL     1     -12.006  12.092  65.440  1.00  0.00    -0.399 OA 
HETATM    9  O   UNL     1     -12.167  13.994  63.838  1.00  0.00    -0.584 OA 
HETATM   10  O   UNL     1     -10.502  14.006  65.737  1.00  0.00    -0.289 OA 
HETATM   11  C   UNL     3     -10.876  12.249  68.515  1.00  0.00    -0.237 C  
HETATM   12  H1  UNL     3     -12.929  12.235  68.105  1.00  0.00     0.000 HD 
HETATM   13  H2  UNL     3     -12.302  13.658  68.912  1.00  0.00     0.000 HD 
HETATM   14  N   UNL     2     -10.539  16.065  68.689  1.00  0.00    -0.252 NA 
HETATM   15  N   UNL     2     -10.627  15.034  70.745  1.00  0.00    -0.523 NA 
HETATM   16  H2  UNL     2     -11.158  14.532  71.458  1.00  0.00     0.000 HD 
HETATM   17  H   UNL     2      -9.530  15.916  68.712  1.00  0.00     0.000 HD 
HETATM   18  N   UNL     3      -9.882  12.880  69.013  1.00  0.00    -0.387 NA 
HETATM   19  N   UNL     3     -10.741  11.067  67.872  1.00  0.00    -0.203 NA 
HETATM   20  H2  UNL     3     -10.047  13.799  69.423  1.00  0.00     0.000 HD 
HETATM   21  H1  UNL     2      -9.609  15.096  70.781  1.00  0.00     0.000 HD 
HETATM   22  H1  UNL     3      -8.931  12.511  69.022  1.00  0.00     0.000 HD 
HETATM   23  H   UNL     3     -11.391  10.768  67.145  1.00  0.00     0.000 HD 
ENDROOT
BRANCH  14  24
HETATM   24  C   UNL     2     -11.037  16.732  67.500  1.00  0.00    -0.035 C  
BRANCH  24  25
HETATM   25  C   UNL     2     -10.216  17.976  67.207  1.00  0.00    -0.371 A  
HETATM   26  I   UNL     2      -6.483  19.738  68.614  1.00  0.00    -0.351 I  
HETATM   27  C   UNL     2     -10.653  18.919  66.260  1.00  0.00    -0.463 A  
HETATM   28  C   UNL     2      -8.997  18.209  67.873  1.00  0.00    -0.273 A  
HETATM   29  C   UNL     2      -9.940  20.092  66.032  1.00  0.00    -0.542 A  
HETATM   30  C   UNL     2      -8.275  19.377  67.620  1.00  0.00    -0.294 A  
HETATM   31  C   UNL     2      -8.748  20.325  66.710  1.00  0.00    -0.353 A  
ENDBRANCH  24  25
ENDBRANCH  14  24
BRANCH  19  32
HETATM   32  C   UNL     3      -9.608  10.249  68.282  1.00  0.00    -0.142 C  
BRANCH  32  33
HETATM   33  C   UNL     3     -10.019   8.879  68.740  1.00  0.00    -0.195 A  
HETATM   34  C   UNL     3     -11.108   6.350  69.311  1.00  0.00    -0.437 A  
HETATM   35  C   UNL     3      -9.679   7.770  67.966  1.00  0.00    -0.176 A  
HETATM   36  I   UNL     3      -9.839   4.937  66.951  1.00  0.00    -0.262 I  
HETATM   37  C   UNL     3     -11.402   7.433  70.136  1.00  0.00    -0.200 A  
HETATM   38  C   UNL     3     -10.240   6.522  68.234  1.00  0.00    -0.172 A  
HETATM   39  C   UNL     3     -10.869   8.693  69.851  1.00  0.00    -0.210 A  
ENDBRANCH  32  33
ENDBRANCH  19  32
TORSDOF 4
ENDMDL
MODEL       17
REMARK 921   NORMALIZED FREE ENERGY PREDICTED BY IDOCK:   -7.36 KCAL/MOL
REMARK 922        TOTAL FREE ENERGY PREDICTED BY IDOCK:   -9.73 KCAL/MOL
REMARK 923 INTER-LIGAND FREE ENERGY PREDICTED BY IDOCK:   -9.05 KCAL/MOL
REMARK 924 INTRA-LIGAND FREE ENERGY PREDICTED BY IDOCK:   -0.68 KCAL/MOL
REMARK 927      BINDING AFFINITY PREDICTED BY RF-SCORE:    0.00 PKD
ROOT
HETATM    1  O   UNL     1      -9.932  11.909  66.375  1.00  0.00    -0.205 OA 
HETATM    2  S   UNL     1      -8.864  10.925  67.071  1.00  0.00    -0.142 S  
HETATM    3  N   UNL     2     -12.290  14.398  67.933  1.00  0.00    -0.599 NA 
HETATM    4  H1  UNL     2     -11.659  14.547  67.145  1.00  0.00     0.000 HD 
HETATM    5  H2  UNL     2     -13.286  14.223  67.796  1.00  0.00     0.000 HD 
HETATM    6  C   UNL     2     -11.744  14.444  69.159  1.00  0.00    -0.317 C  
HETATM    7  N   UNL     3     -12.111  11.339  68.181  1.00  0.00    -0.667 NA 
HETATM    8  O   UNL     1      -9.726   9.577  67.168  1.00  0.00    -0.156 OA 
HETATM    9  O   UNL     1      -7.771  10.735  66.146  1.00  0.00    -0.147 OA 
HETATM   10  O   UNL     1      -8.665  11.406  68.410  1.00  0.00    -0.147 OA 
HETATM   11  C   UNL     3     -11.774  10.846  69.393  1.00  0.00    -0.325 C  
HETATM   12  H1  UNL     3     -12.287  10.752  67.366  1.00  0.00     0.000 HD 
HETATM   13  H2  UNL     3     -12.192  12.351  68.076  1.00  0.00     0.000 HD 
HETATM   14  N   UNL     2     -10.412  14.429  69.285  1.00  0.00    -0.388 NA 
HETATM   15  N   UNL     2     -12.539  14.256  70.150  1.00  0.00    -0.437 NA 
HETATM   16  H2  UNL     2     -13.535  14.081  70.013  1.00  0.00     0.000 HD 
HETATM   17  H   UNL     2     -10.067  14.264  70.231  1.00  0.00     0.000 HD 
HETATM   18  N   UNL     3     -11.553  11.582  70.415  1.00  0.00    -0.503 NA 
HETATM   19  N   UNL     3     -11.604   9.504  69.411  1.00  0.00    -0.425 NA 
HETATM   20  H2  UNL     3     -11.635  12.593  70.311  1.00  0.00     0.000 HD 
HETATM   21  H1  UNL     2     -12.124  14.291  71.082  1.00  0.00     0.000 HD 
HETATM   22  H1  UNL     3     -11.298  11.210  71.330  1.00  0.00     0.000 HD 
HETATM   23  H   UNL     3     -11.373   8.975  68.570  1.00  0.00     0.000 HD 
ENDROOT
BRANCH  14  24
HETATM   24  C   UNL     2      -9.385  14.613  68.277  1.00  0.00    -0.199 C  
BRANCH  24  25
HETATM   25  C   UNL     2      -8.931  16.062  68.242  1.00  0.00    -0.183 A  
HETATM   26  I   UNL     2     -10.303  19.794  66.449  1.00  0.00    -0.528 I  
HETATM   27  C   UNL     2      -7.761  16.465  68.911  1.00  0.00    -0.230 A  
HETATM   28  C   UNL     2      -9.674  17.035  67.546  1.00  0.00    -0.251 A  
HETATM   29  C   UNL     2      -7.303  17.777  68.832  1.00  0.00    -0.245 A  
HETATM   30  C   UNL     2      -9.220  18.355  67.492  1.00  0.00    -0.272 A  
HETATM   31  C   UNL     2      -8.032  18.727  68.123  1.00  0.00    -0.317 A  
ENDBRANCH  24  25
ENDBRANCH  14  24
BRANCH  19  32
HETATM   32  C   UNL     3     -11.771   8.862  70.708  1.00  0.00    -0.230 C  
BRANCH  32  33
HETATM   33  C   UNL     3     -11.345   7.422  70.700  1.00  0.00    -0.304 A  
HETATM   34  C   UNL     3     -10.166   4.872  70.826  1.00  0.00    -0.276 A  
HETATM   35  C   UNL     3     -11.322   6.711  71.899  1.00  0.00    -0.318 A  
HETATM   36  I   UNL     3     -10.553   4.510  73.808  1.00  0.00    -0.368 I  
HETATM   37  C   UNL     3     -10.243   5.540  69.606  1.00  0.00    -0.336 A  
HETATM   38  C   UNL     3     -10.715   5.457  71.966  1.00  0.00    -0.220 A  
HETATM   39  C   UNL     3     -10.821   6.811  69.542  1.00  0.00    -0.315 A  
ENDBRANCH  32  33
ENDBRANCH  19  32
TORSDOF 4
ENDMDL
MODEL       18
REMARK 921   NORMALIZED FREE ENERGY PREDICTED BY IDOCK:   -7.32 KCAL/MOL
REMARK 922        TOTAL FREE ENERGY PREDICTED BY IDOCK:   -9.68 KCAL/MOL
REMARK 923 INTER-LIGAND FREE ENERGY PREDICTED BY IDOCK:   -9.39 KCAL/MOL
REMARK 924 INTRA-LIGAND FREE ENERGY PREDICTED BY IDOCK:   -0.29 KCAL/MOL
REMARK 927      BINDING AFFINITY PREDICTED BY RF-SCORE:    0.00 PKD
ROOT
HETATM    1  O   UNL     1     -10.629  12.661  64.973  1.00  0.00    -0.286 OA 
HETATM    2  S   UNL     1     -12.020  12.931  65.737  1.00  0.00    -0.455 S  
HETATM    3  N   UNL     2      -7.227  11.854  66.372  1.00  0.00    -0.360 NA 
HETATM    4  H1  UNL     2      -7.719  11.375  65.617  1.00  0.00     0.000 HD 
HETATM    5  H2  UNL     2      -6.489  12.533  66.184  1.00  0.00     0.000 HD 
HETATM    6  C   UNL     2      -7.599  11.545  67.625  1.00  0.00    -0.115 C  
HETATM    7  N   UNL     3      -9.006  14.343  66.667  1.00  0.00    -0.396 NA 
HETATM    8  O   UNL     1     -12.012  14.534  65.805  1.00  0.00    -0.360 OA 
HETATM    9  O   UNL     1     -13.090  12.489  64.874  1.00  0.00    -0.833 OA 
HETATM   10  O   UNL     1     -11.861  12.444  67.079  1.00  0.00    -0.481 OA 
HETATM   11  C   UNL     3      -9.491  14.601  67.902  1.00  0.00    -0.210 C  
HETATM   12  H1  UNL     3      -9.214  14.919  65.851  1.00  0.00     0.000 HD 
HETATM   13  H2  UNL     3      -8.400  13.531  66.545  1.00  0.00     0.000 HD 
HETATM   14  N   UNL     2      -8.722  10.845  67.822  1.00  0.00    -0.127 NA 
HETATM   15  N   UNL     2      -6.979  12.147  68.575  1.00  0.00    -0.084 NA 
HETATM   16  H2  UNL     2      -6.240  12.826  68.387  1.00  0.00     0.000 HD 
HETATM   17  H   UNL     2      -9.052  10.817  68.787  1.00  0.00     0.000 HD 
HETATM   18  N   UNL     3      -9.230  13.880  68.925  1.00  0.00    -0.396 NA 
HETATM   19  N   UNL     3     -10.353  15.643  67.945  1.00  0.00    -0.254 NA 
HETATM   20  H2  UNL     3      -8.624  13.069  68.804  1.00  0.00     0.000 HD 
HETATM   21  H1  UNL     2      -7.261  11.913  69.527  1.00  0.00     0.000 HD 
HETATM   22  H1  UNL     3      -9.597  14.074  69.857  1.00  0.00     0.000 HD 
HETATM   23  H   UNL     3     -10.875  15.950  67.124  1.00  0.00     0.000 HD 
ENDROOT
BRANCH  14  24
HETATM   24  C   UNL     2      -9.541  10.120  66.868  1.00  0.00    -0.177 C  
BRANCH  24  25
HETATM   25  C   UNL     2     -10.088   8.851  67.497  1.00  0.00    -0.285 A  
HETATM   26  I   UNL     2     -11.280   7.519  71.475  1.00  0.00    -0.330 I  
HETATM   27  C   UNL     2     -10.313   7.702  66.718  1.00  0.00    -0.343 A  
HETATM   28  C   UNL     2     -10.388   8.798  68.872  1.00  0.00    -0.229 A  
HETATM   29  C   UNL     2     -10.754   6.516  67.297  1.00  0.00    -0.427 A  
HETATM   30  C   UNL     2     -10.853   7.610  69.441  1.00  0.00    -0.127 A  
HETATM   31  C   UNL     2     -11.026   6.466  68.660  1.00  0.00    -0.404 A  
ENDBRANCH  24  25
ENDBRANCH  14  24
BRANCH  19  32
HETATM   32  C   UNL     3     -10.490  16.298  69.239  1.00  0.00    -0.285 C  
BRANCH  32  33
HETATM   33  C   UNL     3     -11.550  15.669  70.097  1.00  0.00    -0.366 A  
HETATM   34  C   UNL     3     -13.217  14.249  71.861  1.00  0.00    -0.456 A  
HETATM   35  C   UNL     3     -11.673  16.065  71.428  1.00  0.00    -0.536 A  
HETATM   36  I   UNL     3     -12.500  15.866  74.320  1.00  0.00    -0.352 I  
HETATM   37  C   UNL     3     -13.158  13.884  70.518  1.00  0.00    -0.056 A  
HETATM   38  C   UNL     3     -12.480  15.344  72.309  1.00  0.00    -0.375 A  
HETATM   39  C   UNL     3     -12.325  14.583  69.640  1.00  0.00    -0.284 A  
ENDBRANCH  32  33
ENDBRANCH  19  32
TORSDOF 4
ENDMDL
MODEL       19
REMARK 921   NORMALIZED FREE ENERGY PREDICTED BY IDOCK:   -7.31 KCAL/MOL
REMARK 922        TOTAL FREE ENERGY PREDICTED BY IDOCK:   -9.67 KCAL/MOL
REMARK 923 INTER-LIGAND FREE ENERGY PREDICTED BY IDOCK:   -9.08 KCAL/MOL
REMARK 924 INTRA-LIGAND FREE ENERGY PREDICTED BY IDOCK:   -0.59 KCAL/MOL
REMARK 927      BINDING AFFINITY PREDICTED BY RF-SCORE:    0.00 PKD
ROOT
HETATM    1  O   UNL     1     -12.737  13.722  65.303  1.00  0.00    -0.590 OA 
HETATM    2  S   UNL     1     -11.952  13.170  64.010  1.00  0.00    -0.479 S  
HETATM    3  N   UNL     2     -11.439  14.549  68.740  1.00  0.00    -0.277 NA 
HETATM    4  H1  UNL     2     -12.040  15.122  68.147  1.00  0.00     0.000 HD 
HETATM    5  H2  UNL     2     -11.817  13.996  69.510  1.00  0.00     0.000 HD 
HETATM    6  C   UNL     2     -10.127  14.559  68.457  1.00  0.00    -0.242 C  
HETATM    7  N   UNL     3     -11.552  11.893  67.197  1.00  0.00    -0.519 NA 
HETATM    8  O   UNL     1     -12.224  11.596  64.151  1.00  0.00    -0.211 OA 
HETATM    9  O   UNL     1     -12.626  13.675  62.836  1.00  0.00    -0.621 OA 
HETATM   10  O   UNL     1     -10.552  13.387  64.248  1.00  0.00    -0.420 OA 
HETATM   11  C   UNL     3     -10.369  11.344  66.843  1.00  0.00    -0.227 C  
HETATM   12  H1  UNL     3     -12.454  11.479  66.963  1.00  0.00     0.000 HD 
HETATM   13  H2  UNL     3     -11.542  12.767  67.723  1.00  0.00     0.000 HD 
HETATM   14  N   UNL     2      -9.709  15.093  67.303  1.00  0.00    -0.209 NA 
HETATM   15  N   UNL     2      -9.371  13.838  69.204  1.00  0.00    -0.329 NA 
HETATM   16  H2  UNL     2      -9.748  13.285  69.974  1.00  0.00     0.000 HD 
HETATM   17  H   UNL     2      -8.739  14.893  67.058  1.00  0.00     0.000 HD 
HETATM   18  N   UNL     3      -9.238  11.863  67.135  1.00  0.00    -0.178 NA 
HETATM   19  N   UNL     3     -10.486  10.238  66.073  1.00  0.00    -0.162 NA 
HETATM   20  H2  UNL     3      -9.227  12.736  67.663  1.00  0.00     0.000 HD 
HETATM   21  H1  UNL     2      -8.373  13.846  68.988  1.00  0.00     0.000 HD 
HETATM   22  H1  UNL     3      -8.344  11.449  66.869  1.00  0.00     0.000 HD 
HETATM   23  H   UNL     3     -11.315  10.056  65.507  1.00  0.00     0.000 HD 
ENDROOT
BRANCH  14  24
HETATM   24  C   UNL     2     -10.429  15.916  66.349  1.00  0.00    -0.308 C  
BRANCH  24  25
HETATM   25  C   UNL     2      -9.971  17.361  66.444  1.00  0.00    -0.322 A  
HETATM   26  I   UNL     2      -6.856  19.590  68.528  1.00  0.00    -0.362 I  
HETATM   27  C   UNL     2     -10.641  18.375  65.736  1.00  0.00    -0.236 A  
HETATM   28  C   UNL     2      -8.863  17.716  67.236  1.00  0.00    -0.240 A  
HETATM   29  C   UNL     2     -10.269  19.709  65.867  1.00  0.00    -0.536 A  
HETATM   30  C   UNL     2      -8.480  19.055  67.343  1.00  0.00    -0.277 A  
HETATM   31  C   UNL     2      -9.186  20.054  66.670  1.00  0.00    -0.484 A  
ENDBRANCH  24  25
ENDBRANCH  14  24
BRANCH  19  32
HETATM   32  C   UNL     3      -9.353   9.323  66.103  1.00  0.00    -0.212 C  
BRANCH  32  33
HETATM   33  C   UNL     3      -9.699   7.993  66.708  1.00  0.00    -0.305 A  
HETATM   34  C   UNL     3     -10.013   5.572  68.104  1.00  0.00    -0.197 A  
HETATM   35  C   UNL     3     -10.408   7.953  67.908  1.00  0.00    -0.281 A  
HETATM   36  I   UNL     3     -11.457   6.778  70.477  1.00  0.00    -0.384 I  
HETATM   37  C   UNL     3      -9.362   5.582  66.872  1.00  0.00    -0.129 A  
HETATM   38  C   UNL     3     -10.541   6.757  68.612  1.00  0.00    -0.227 A  
HETATM   39  C   UNL     3      -9.197   6.785  66.180  1.00  0.00    -0.120 A  
ENDBRANCH  32  33
ENDBRANCH  19  32
TORSDOF 4
ENDMDL
MODEL       20
REMARK 921   NORMALIZED FREE ENERGY PREDICTED BY IDOCK:   -7.20 KCAL/MOL
REMARK 922        TOTAL FREE ENERGY PREDICTED BY IDOCK:   -9.53 KCAL/MOL
REMARK 923 INTER-LIGAND FREE ENERGY PREDICTED BY IDOCK:   -8.78 KCAL/MOL
REMARK 924 INTRA-LIGAND FREE ENERGY PREDICTED BY IDOCK:   -0.75 KCAL/MOL
REMARK 927      BINDING AFFINITY PREDICTED BY RF-SCORE:    0.00 PKD
ROOT
HETATM    1  O   UNL     1     -10.990   8.484  69.177  1.00  0.00    -0.090 OA 
HETATM    2  S   UNL     1      -9.497   8.691  69.742  1.00  0.00    -0.168 S  
HETATM    3  N   UNL     2     -14.298   8.699  70.965  1.00  0.00    -0.597 NA 
HETATM    4  H1  UNL     2     -14.038   9.138  70.081  1.00  0.00     0.000 HD 
HETATM    5  H2  UNL     2     -14.851   7.843  70.995  1.00  0.00     0.000 HD 
HETATM    6  C   UNL     2     -13.875   9.305  72.086  1.00  0.00    -0.413 C  
HETATM    7  N   UNL     3     -11.913   6.795  71.329  1.00  0.00    -0.348 NA 
HETATM    8  O   UNL     1      -9.082   7.170  70.039  1.00  0.00    -0.145 OA 
HETATM    9  O   UNL     1      -8.687   9.213  68.667  1.00  0.00    -0.127 OA 
HETATM   10  O   UNL     1      -9.620   9.357  71.009  1.00  0.00    -0.268 OA 
HETATM   11  C   UNL     3     -11.236   6.883  72.495  1.00  0.00    -0.267 C  
HETATM   12  H1  UNL     3     -11.659   6.149  70.581  1.00  0.00     0.000 HD 
HETATM   13  H2  UNL     3     -12.718   7.405  71.189  1.00  0.00     0.000 HD 
HETATM   14  N   UNL     2     -12.956  10.274  72.001  1.00  0.00    -0.430 NA 
HETATM   15  N   UNL     2     -14.202   8.752  73.198  1.00  0.00    -1.172 NA 
HETATM   16  H2  UNL     2     -14.756   7.896  73.228  1.00  0.00     0.000 HD 
HETATM   17  H   UNL     2     -12.534  10.551  72.888  1.00  0.00     0.000 HD 
HETATM   18  N   UNL     3     -11.554   7.692  73.433  1.00  0.00    -0.545 NA 
HETATM   19  N   UNL     3     -10.135   6.100  72.551  1.00  0.00    -0.177 NA 
HETATM   20  H2  UNL     3     -12.359   8.302  73.294  1.00  0.00     0.000 HD 
HETATM   21  H1  UNL     2     -13.881   9.213  74.050  1.00  0.00     0.000 HD 
HETATM   22  H1  UNL     3     -11.043   7.759  74.313  1.00  0.00     0.000 HD 
HETATM   23  H   UNL     3      -9.651   5.784  71.710  1.00  0.00     0.000 HD 
ENDROOT
BRANCH  14  24
HETATM   24  C   UNL     2     -12.470  10.990  70.836  1.00  0.00    -0.410 C  
BRANCH  24  25
HETATM   25  C   UNL     2     -12.614  12.489  71.038  1.00  0.00    -0.350 A  
HETATM   26  I   UNL     2     -11.132  16.122  69.134  1.00  0.00    -0.290 I  
HETATM   27  C   UNL     2     -13.393  13.000  72.091  1.00  0.00    -0.622 A  
HETATM   28  C   UNL     2     -11.976  13.398  70.172  1.00  0.00    -0.396 A  
HETATM   29  C   UNL     2     -13.479  14.370  72.323  1.00  0.00    -0.527 A  
HETATM   30  C   UNL     2     -12.087  14.772  70.397  1.00  0.00    -0.321 A  
HETATM   31  C   UNL     2     -12.827  15.261  71.476  1.00  0.00    -0.469 A  
ENDBRANCH  24  25
ENDBRANCH  14  24
BRANCH  19  32
HETATM   32  C   UNL     3      -9.682   5.736  73.887  1.00  0.00    -0.169 C  
BRANCH  32  33
HETATM   33  C   UNL     3      -8.188   5.789  74.027  1.00  0.00    -0.108 A  
HETATM   34  C   UNL     3      -5.383   5.877  73.858  1.00  0.00    -0.032 A  
HETATM   35  C   UNL     3      -7.528   7.002  73.834  1.00  0.00    -0.100 A  
HETATM   36  I   UNL     3      -5.210   8.842  73.267  1.00  0.00    -0.072 I  
HETATM   37  C   UNL     3      -6.023   4.668  74.121  1.00  0.00    -0.030 A  
HETATM   38  C   UNL     3      -6.138   7.040  73.725  1.00  0.00    -0.062 A  
HETATM   39  C   UNL     3      -7.418   4.620  74.197  1.00  0.00    -0.078 A  
ENDBRANCH  32  33
ENDBRANCH  19  32
TORSDOF 4
ENDMDL
MODEL       21
REMARK 921   NORMALIZED FREE ENERGY PREDICTED BY IDOCK:   -7.18 KCAL/MOL
REMARK 922        TOTAL FREE ENERGY PREDICTED BY IDOCK:   -9.51 KCAL/MOL
REMARK 923 INTER-LIGAND FREE ENERGY PREDICTED BY IDOCK:   -8.79 KCAL/MOL
REMARK 924 INTRA-LIGAND FREE ENERGY PREDICTED BY IDOCK:   -0.71 KCAL/MOL
REMARK 927      BINDING AFFINITY PREDICTED BY RF-SCORE:    0.00 PKD
ROOT
HETATM    1  O   UNL     1     -10.739  12.425  66.332  1.00  0.00    -0.239 OA 
HETATM    2  S   UNL     1     -11.099  13.891  66.892  1.00  0.00    -0.308 S  
HETATM    3  N   UNL     2      -8.363   9.839  67.691  1.00  0.00    -0.114 NA 
HETATM    4  H1  UNL     2      -9.329   9.701  67.394  1.00  0.00     0.000 HD 
HETATM    5  H2  UNL     2      -7.577   9.588  67.091  1.00  0.00     0.000 HD 
HETATM    6  C   UNL     2      -8.178  10.366  68.912  1.00  0.00    -0.132 C  
HETATM    7  N   UNL     3      -7.876  12.674  66.608  1.00  0.00    -0.378 NA 
HETATM    8  O   UNL     1     -10.106  14.793  66.013  1.00  0.00    -0.276 OA 
HETATM    9  O   UNL     1     -12.466  14.179  66.528  1.00  0.00    -0.447 OA 
HETATM   10  O   UNL     1     -10.636  13.943  68.251  1.00  0.00    -0.244 OA 
HETATM   11  C   UNL     3      -7.435  13.596  67.492  1.00  0.00    -0.170 C  
HETATM   12  H1  UNL     3      -8.063  12.882  65.627  1.00  0.00     0.000 HD 
HETATM   13  H2  UNL     3      -8.031  11.721  66.939  1.00  0.00     0.000 HD 
HETATM   14  N   UNL     2      -9.218  10.904  69.560  1.00  0.00    -0.385 NA 
HETATM   15  N   UNL     2      -6.961  10.539  69.286  1.00  0.00    -0.075 NA 
HETATM   16  H2  UNL     2      -6.175  10.288  68.686  1.00  0.00     0.000 HD 
HETATM   17  H   UNL     2      -8.978  11.460  70.381  1.00  0.00     0.000 HD 
HETATM   18  N   UNL     3      -7.201  13.335  68.721  1.00  0.00    -0.127 NA 
HETATM   19  N   UNL     3      -7.346  14.845  66.982  1.00  0.00    -0.312 NA 
HETATM   20  H2  UNL     3      -7.355  12.383  69.053  1.00  0.00     0.000 HD 
HETATM   21  H1  UNL     2      -6.820  10.940  70.214  1.00  0.00     0.000 HD 
HETATM   22  H1  UNL     3      -6.868  14.031  69.389  1.00  0.00     0.000 HD 
HETATM   23  H   UNL     3      -7.895  15.143  66.176  1.00  0.00     0.000 HD 
ENDROOT
BRANCH  14  24
HETATM   24  C   UNL     2     -10.637  10.814  69.268  1.00  0.00    -0.229 C  
BRANCH  24  25
HETATM   25  C   UNL     2     -11.365  10.101  70.395  1.00  0.00    -0.401 A  
HETATM   26  I   UNL     2     -10.510   6.885  73.213  1.00  0.00    -0.401 I  
HETATM   27  C   UNL     2     -12.684  10.450  70.732  1.00  0.00    -0.460 A  
HETATM   28  C   UNL     2     -10.733   9.079  71.130  1.00  0.00    -0.358 A  
HETATM   29  C   UNL     2     -13.381   9.760  71.720  1.00  0.00    -0.506 A  
HETATM   30  C   UNL     2     -11.431   8.408  72.136  1.00  0.00    -0.372 A  
HETATM   31  C   UNL     2     -12.756   8.737  72.426  1.00  0.00    -0.433 A  
ENDBRANCH  24  25
ENDBRANCH  14  24
BRANCH  19  32
HETATM   32  C   UNL     3      -6.415  15.740  67.658  1.00  0.00    -0.164 C  
BRANCH  32  33
HETATM   33  C   UNL     3      -7.058  17.029  68.083  1.00  0.00    -0.178 A  
HETATM   34  C   UNL     3      -8.055  19.618  68.543  1.00  0.00    -0.339 A  
HETATM   35  C   UNL     3      -8.188  17.484  67.405  1.00  0.00    -0.217 A  
HETATM   36  I   UNL     3     -10.248  19.470  66.459  1.00  0.00    -0.682 I  
HETATM   37  C   UNL     3      -6.967  19.154  69.279  1.00  0.00    -0.331 A  
HETATM   38  C   UNL     3      -8.666  18.777  67.615  1.00  0.00    -0.280 A  
HETATM   39  C   UNL     3      -6.464  17.870  69.047  1.00  0.00    -0.236 A  
ENDBRANCH  32  33
ENDBRANCH  19  32
TORSDOF 4
ENDMDL
MODEL       22
REMARK 921   NORMALIZED FREE ENERGY PREDICTED BY IDOCK:   -7.16 KCAL/MOL
REMARK 922        TOTAL FREE ENERGY PREDICTED BY IDOCK:   -9.49 KCAL/MOL
REMARK 923 INTER-LIGAND FREE ENERGY PREDICTED BY IDOCK:   -8.88 KCAL/MOL
REMARK 924 INTRA-LIGAND FREE ENERGY PREDICTED BY IDOCK:   -0.61 KCAL/MOL
REMARK 927      BINDING AFFINITY PREDICTED BY RF-SCORE:    0.00 PKD
ROOT
HETATM    1  O   UNL     1     -10.799   8.471  69.340  1.00  0.00    -0.196 OA 
HETATM    2  S   UNL     1      -9.328   8.679  69.962  1.00  0.00    -0.166 S  
HETATM    3  N   UNL     2     -14.173   8.701  70.998  1.00  0.00    -0.608 NA 
HETATM    4  H1  UNL     2     -13.878   9.135  70.123  1.00  0.00     0.000 HD 
HETATM    5  H2  UNL     2     -14.728   7.845  71.012  1.00  0.00     0.000 HD 
HETATM    6  C   UNL     2     -13.792   9.313  72.132  1.00  0.00    -0.413 C  
HETATM    7  N   UNL     3     -11.806   6.795  71.464  1.00  0.00    -0.314 NA 
HETATM    8  O   UNL     1      -8.928   7.160  70.282  1.00  0.00    -0.150 OA 
HETATM    9  O   UNL     1      -8.477   9.194  68.916  1.00  0.00    -0.125 OA 
HETATM   10  O   UNL     1      -9.499   9.353  71.219  1.00  0.00    -0.224 OA 
HETATM   11  C   UNL     3     -11.175   6.889  72.655  1.00  0.00    -0.260 C  
HETATM   12  H1  UNL     3     -11.525   6.145  70.730  1.00  0.00     0.000 HD 
HETATM   13  H2  UNL     3     -12.605   7.406  71.290  1.00  0.00     0.000 HD 
HETATM   14  N   UNL     2     -12.870  10.280  72.077  1.00  0.00    -0.405 NA 
HETATM   15  N   UNL     2     -14.163   8.766  73.233  1.00  0.00    -1.147 NA 
HETATM   16  H2  UNL     2     -14.719   7.910  73.247  1.00  0.00     0.000 HD 
HETATM   17  H   UNL     2     -12.481  10.561  72.978  1.00  0.00     0.000 HD 
HETATM   18  N   UNL     3     -11.527   7.703  73.576  1.00  0.00    -0.457 NA 
HETATM   19  N   UNL     3     -10.078   6.105  72.757  1.00  0.00    -0.177 NA 
HETATM   20  H2  UNL     3     -12.326   8.314  73.403  1.00  0.00     0.000 HD 
HETATM   21  H1  UNL     2     -13.874   9.231  74.095  1.00  0.00     0.000 HD 
HETATM   22  H1  UNL     3     -11.051   7.775  74.475  1.00  0.00     0.000 HD 
HETATM   23  H   UNL     3      -9.562   5.783  71.938  1.00  0.00     0.000 HD 
ENDROOT
BRANCH  14  24
HETATM   24  C   UNL     2     -12.338  10.989  70.928  1.00  0.00    -0.402 C  
BRANCH  24  25
HETATM   25  C   UNL     2     -12.578  12.482  71.070  1.00  0.00    -0.350 A  
HETATM   26  I   UNL     2     -10.980  16.149  69.333  1.00  0.00    -0.330 I  
HETATM   27  C   UNL     2     -13.533  12.973  71.978  1.00  0.00    -0.584 A  
HETATM   28  C   UNL     2     -11.854  13.407  70.292  1.00  0.00    -0.316 A  
HETATM   29  C   UNL     2     -13.715  14.341  72.160  1.00  0.00    -0.569 A  
HETATM   30  C   UNL     2     -12.060  14.777  70.465  1.00  0.00    -0.315 A  
HETATM   31  C   UNL     2     -12.979  15.248  71.404  1.00  0.00    -0.503 A  
ENDBRANCH  24  25
ENDBRANCH  14  24
BRANCH  19  32
HETATM   32  C   UNL     3      -9.678   5.748  74.113  1.00  0.00    -0.183 C  
BRANCH  32  33
HETATM   33  C   UNL     3      -9.344   4.291  74.253  1.00  0.00    -0.119 A  
HETATM   34  C   UNL     3      -8.725   1.553  74.085  1.00  0.00    -0.054 A  
HETATM   35  C   UNL     3      -8.027   3.872  74.073  1.00  0.00    -0.083 A  
HETATM   36  I   UNL     3      -5.775   1.946  73.525  1.00  0.00     0.000 I  
HETATM   37  C   UNL     3     -10.036   1.953  74.335  1.00  0.00    -0.140 A  
HETATM   38  C   UNL     3      -7.724   2.515  73.964  1.00  0.00    -0.054 A  
HETATM   39  C   UNL     3     -10.348   3.313  74.411  1.00  0.00    -0.237 A  
ENDBRANCH  32  33
ENDBRANCH  19  32
TORSDOF 4
ENDMDL
MODEL       23
REMARK 921   NORMALIZED FREE ENERGY PREDICTED BY IDOCK:   -7.11 KCAL/MOL
REMARK 922        TOTAL FREE ENERGY PREDICTED BY IDOCK:   -9.42 KCAL/MOL
REMARK 923 INTER-LIGAND FREE ENERGY PREDICTED BY IDOCK:   -8.83 KCAL/MOL
REMARK 924 INTRA-LIGAND FREE ENERGY PREDICTED BY IDOCK:   -0.59 KCAL/MOL
REMARK 927      BINDING AFFINITY PREDICTED BY RF-SCORE:    0.00 PKD
ROOT
HETATM    1  O   UNL     1     -12.362  13.730  65.734  1.00  0.00    -0.431 OA 
HETATM    2  S   UNL     1     -11.808  13.563  64.231  1.00  0.00    -0.435 S  
HETATM    3  N   UNL     2     -10.477  14.083  68.975  1.00  0.00    -0.371 NA 
HETATM    4  H1  UNL     2     -11.251  14.656  68.639  1.00  0.00     0.000 HD 
HETATM    5  H2  UNL     2     -10.618  13.342  69.662  1.00  0.00     0.000 HD 
HETATM    6  C   UNL     2      -9.264  14.352  68.467  1.00  0.00    -0.198 C  
HETATM    7  N   UNL     3     -10.603  11.783  66.939  1.00  0.00    -0.226 NA 
HETATM    8  O   UNL     1     -11.860  11.968  64.075  1.00  0.00    -0.391 OA 
HETATM    9  O   UNL     1     -12.767  14.169  63.338  1.00  0.00    -0.767 OA 
HETATM   10  O   UNL     1     -10.424  13.947  64.253  1.00  0.00    -0.313 OA 
HETATM   11  C   UNL     3      -9.465  11.503  66.266  1.00  0.00    -0.217 C  
HETATM   12  H1  UNL     3     -11.480  11.285  66.789  1.00  0.00     0.000 HD 
HETATM   13  H2  UNL     3     -10.584  12.532  67.632  1.00  0.00     0.000 HD 
HETATM   14  N   UNL     2      -9.162  15.154  67.401  1.00  0.00    -0.190 NA 
HETATM   15  N   UNL     2      -8.289  13.630  68.890  1.00  0.00    -0.352 NA 
HETATM   16  H2  UNL     2      -8.430  12.889  69.577  1.00  0.00     0.000 HD 
HETATM   17  H   UNL     2      -8.249  15.158  66.946  1.00  0.00     0.000 HD 
HETATM   18  N   UNL     3      -8.365  12.128  66.454  1.00  0.00    -0.399 NA 
HETATM   19  N   UNL     3      -9.612  10.559  65.309  1.00  0.00    -0.227 NA 
HETATM   20  H2  UNL     3      -8.346  12.876  67.147  1.00  0.00     0.000 HD 
HETATM   21  H1  UNL     2      -7.367  13.834  68.504  1.00  0.00     0.000 HD 
HETATM   22  H1  UNL     3      -7.506  11.917  65.946  1.00  0.00     0.000 HD 
HETATM   23  H   UNL     3     -10.514  10.360  64.877  1.00  0.00     0.000 HD 
ENDROOT
BRANCH  14  24
HETATM   24  C   UNL     2     -10.157  16.019  66.795  1.00  0.00    -0.268 C  
BRANCH  24  25
HETATM   25  C   UNL     2      -9.711  17.469  66.866  1.00  0.00    -0.291 A  
HETATM   26  I   UNL     2      -6.581  19.750  68.871  1.00  0.00    -0.344 I  
HETATM   27  C   UNL     2     -10.403  18.469  66.159  1.00  0.00    -0.457 A  
HETATM   28  C   UNL     2      -8.592  17.844  67.635  1.00  0.00    -0.242 A  
HETATM   29  C   UNL     2     -10.040  19.808  66.268  1.00  0.00    -0.601 A  
HETATM   30  C   UNL     2      -8.221  19.187  67.721  1.00  0.00    -0.286 A  
HETATM   31  C   UNL     2      -8.948  20.172  67.049  1.00  0.00    -0.453 A  
ENDBRANCH  24  25
ENDBRANCH  14  24
BRANCH  19  32
HETATM   32  C   UNL     3      -8.399   9.844  64.933  1.00  0.00    -0.150 C  
BRANCH  32  33
HETATM   33  C   UNL     3      -8.375   8.434  65.450  1.00  0.00    -0.166 A  
HETATM   34  C   UNL     3      -8.139   5.961  66.767  1.00  0.00    -0.102 A  
HETATM   35  C   UNL     3      -9.332   8.033  66.382  1.00  0.00    -0.259 A  
HETATM   36  I   UNL     3     -10.555   6.339  68.554  1.00  0.00    -0.413 I  
HETATM   37  C   UNL     3      -7.213   6.316  65.789  1.00  0.00    -0.074 A  
HETATM   38  C   UNL     3      -9.200   6.818  67.053  1.00  0.00    -0.137 A  
HETATM   39  C   UNL     3      -7.323   7.548  65.138  1.00  0.00    -0.073 A  
ENDBRANCH  32  33
ENDBRANCH  19  32
TORSDOF 4
ENDMDL
MODEL       24
REMARK 921   NORMALIZED FREE ENERGY PREDICTED BY IDOCK:   -7.06 KCAL/MOL
REMARK 922        TOTAL FREE ENERGY PREDICTED BY IDOCK:   -9.36 KCAL/MOL
REMARK 923 INTER-LIGAND FREE ENERGY PREDICTED BY IDOCK:   -8.99 KCAL/MOL
REMARK 924 INTRA-LIGAND FREE ENERGY PREDICTED BY IDOCK:   -0.36 KCAL/MOL
REMARK 927      BINDING AFFINITY PREDICTED BY RF-SCORE:    0.00 PKD
ROOT
HETATM    1  O   UNL     1     -10.813  12.418  64.617  1.00  0.00    -0.284 OA 
HETATM    2  S   UNL     1     -12.108  12.721  65.526  1.00  0.00    -0.459 S  
HETATM    3  N   UNL     2      -7.386  11.225  65.624  1.00  0.00    -0.323 NA 
HETATM    4  H1  UNL     2      -7.979  10.858  64.879  1.00  0.00     0.000 HD 
HETATM    5  H2  UNL     2      -6.611  11.860  65.429  1.00  0.00     0.000 HD 
HETATM    6  C   UNL     2      -7.675  10.829  66.874  1.00  0.00    -0.130 C  
HETATM    7  N   UNL     3      -8.917  13.804  66.295  1.00  0.00    -0.465 NA 
HETATM    8  O   UNL     1     -11.958  14.304  65.731  1.00  0.00    -0.375 OA 
HETATM    9  O   UNL     1     -13.280  12.444  64.730  1.00  0.00    -0.784 OA 
HETATM   10  O   UNL     1     -11.877  12.099  66.801  1.00  0.00    -0.561 OA 
HETATM   11  C   UNL     3      -9.273  13.982  67.587  1.00  0.00    -0.194 C  
HETATM   12  H1  UNL     3      -9.144  14.468  65.555  1.00  0.00     0.000 HD 
HETATM   13  H2  UNL     3      -8.394  12.964  66.048  1.00  0.00     0.000 HD 
HETATM   14  N   UNL     2      -8.833  10.202  67.112  1.00  0.00    -0.132 NA 
HETATM   15  N   UNL     2      -6.929  11.291  67.811  1.00  0.00    -0.072 NA 
HETATM   16  H2  UNL     2      -6.154  11.926  67.617  1.00  0.00     0.000 HD 
HETATM   17  H   UNL     2      -9.082  10.109  68.097  1.00  0.00     0.000 HD 
HETATM   18  N   UNL     3      -8.989  13.150  68.515  1.00  0.00    -0.353 NA 
HETATM   19  N   UNL     3     -10.037  15.078  67.799  1.00  0.00    -0.233 NA 
HETATM   20  H2  UNL     3      -8.465  12.310  68.269  1.00  0.00     0.000 HD 
HETATM   21  H1  UNL     2      -7.149  10.990  68.761  1.00  0.00     0.000 HD 
HETATM   22  H1  UNL     3      -9.258  13.284  69.490  1.00  0.00     0.000 HD 
HETATM   23  H   UNL     3     -10.599  15.499  67.059  1.00  0.00     0.000 HD 
ENDROOT
BRANCH  14  24
HETATM   24  C   UNL     2      -9.788   9.635  66.177  1.00  0.00    -0.265 C  
BRANCH  24  25
HETATM   25  C   UNL     2      -9.760   8.118  66.248  1.00  0.00    -0.223 A  
HETATM   26  I   UNL     2      -7.279   4.895  64.673  1.00  0.00    -0.066 I  
HETATM   27  C   UNL     2     -10.742   7.414  66.968  1.00  0.00    -0.389 A  
HETATM   28  C   UNL     2      -8.747   7.383  65.601  1.00  0.00    -0.099 A  
HETATM   29  C   UNL     2     -10.761   6.022  66.986  1.00  0.00    -0.412 A  
HETATM   30  C   UNL     2      -8.760   5.987  65.644  1.00  0.00    -0.137 A  
HETATM   31  C   UNL     2      -9.770   5.304  66.324  1.00  0.00    -0.185 A  
ENDBRANCH  24  25
ENDBRANCH  14  24
BRANCH  19  32
HETATM   32  C   UNL     3     -10.009  15.617  69.152  1.00  0.00    -0.244 C  
BRANCH  32  33
HETATM   33  C   UNL     3     -11.173  15.159  69.982  1.00  0.00    -0.301 A  
HETATM   34  C   UNL     3     -13.064  14.069  71.756  1.00  0.00    -0.449 A  
HETATM   35  C   UNL     3     -11.392  15.741  71.230  1.00  0.00    -0.437 A  
HETATM   36  I   UNL     3     -12.480  15.983  74.030  1.00  0.00    -0.541 I  
HETATM   37  C   UNL     3     -12.907  13.518  70.486  1.00  0.00    -0.131 A  
HETATM   38  C   UNL     3     -12.311  15.185  72.119  1.00  0.00    -0.358 A  
HETATM   39  C   UNL     3     -11.962  14.053  69.605  1.00  0.00    -0.393 A  
ENDBRANCH  32  33
ENDBRANCH  19  32
TORSDOF 4
ENDMDL
MODEL       25
REMARK 921   NORMALIZED FREE ENERGY PREDICTED BY IDOCK:   -7.06 KCAL/MOL
REMARK 922        TOTAL FREE ENERGY PREDICTED BY IDOCK:   -9.35 KCAL/MOL
REMARK 923 INTER-LIGAND FREE ENERGY PREDICTED BY IDOCK:   -8.73 KCAL/MOL
REMARK 924 INTRA-LIGAND FREE ENERGY PREDICTED BY IDOCK:   -0.62 KCAL/MOL
REMARK 927      BINDING AFFINITY PREDICTED BY RF-SCORE:    0.00 PKD
ROOT
HETATM    1  O   UNL     1     -12.329  14.222  67.340  1.00  0.00    -0.311 OA 
HETATM    2  S   UNL     1     -12.054  13.497  65.928  1.00  0.00    -0.454 S  
HETATM    3  N   UNL     2      -9.897  15.357  69.981  1.00  0.00    -0.445 NA 
HETATM    4  H1  UNL     2     -10.665  15.889  69.573  1.00  0.00     0.000 HD 
HETATM    5  H2  UNL     2      -9.980  14.910  70.894  1.00  0.00     0.000 HD 
HETATM    6  C   UNL     2      -8.769  15.276  69.257  1.00  0.00    -0.237 C  
HETATM    7  N   UNL     3     -10.561  12.557  68.901  1.00  0.00    -0.385 NA 
HETATM    8  O   UNL     1     -12.267  11.962  66.341  1.00  0.00    -0.476 OA 
HETATM    9  O   UNL     1     -13.097  13.901  65.015  1.00  0.00    -0.749 OA 
HETATM   10  O   UNL     1     -10.659  13.673  65.634  1.00  0.00    -0.280 OA 
HETATM   11  C   UNL     3      -9.582  11.918  68.223  1.00  0.00    -0.201 C  
HETATM   12  H1  UNL     3     -11.490  12.162  69.049  1.00  0.00     0.000 HD 
HETATM   13  H2  UNL     3     -10.361  13.482  69.283  1.00  0.00     0.000 HD 
HETATM   14  N   UNL     2      -8.783  15.661  67.975  1.00  0.00    -0.166 NA 
HETATM   15  N   UNL     2      -7.801  14.606  69.771  1.00  0.00    -0.402 NA 
HETATM   16  H2  UNL     2      -7.885  14.158  70.684  1.00  0.00     0.000 HD 
HETATM   17  H   UNL     2      -7.963  15.390  67.432  1.00  0.00     0.000 HD 
HETATM   18  N   UNL     3      -8.418  12.413  68.037  1.00  0.00    -0.167 NA 
HETATM   19  N   UNL     3      -9.969  10.742  67.679  1.00  0.00    -0.170 NA 
HETATM   20  H2  UNL     3      -8.217  13.337  68.419  1.00  0.00     0.000 HD 
HETATM   21  H1  UNL     2      -6.944  14.544  69.221  1.00  0.00     0.000 HD 
HETATM   22  H1  UNL     3      -7.678  11.931  67.525  1.00  0.00     0.000 HD 
HETATM   23  H   UNL     3     -10.945  10.538  67.465  1.00  0.00     0.000 HD 
ENDROOT
BRANCH  14  24
HETATM   24  C   UNL     2      -9.790  16.407  67.244  1.00  0.00    -0.245 C  
BRANCH  24  25
HETATM   25  C   UNL     2      -9.458  17.889  67.248  1.00  0.00    -0.263 A  
HETATM   26  I   UNL     2      -6.095  20.401  68.432  1.00  0.00    -0.361 I  
HETATM   27  C   UNL     2     -10.391  18.836  66.789  1.00  0.00    -0.464 A  
HETATM   28  C   UNL     2      -8.207  18.347  67.706  1.00  0.00    -0.265 A  
HETATM   29  C   UNL     2     -10.119  20.200  66.849  1.00  0.00    -0.592 A  
HETATM   30  C   UNL     2      -7.934  19.716  67.739  1.00  0.00    -0.302 A  
HETATM   31  C   UNL     2      -8.890  20.645  67.323  1.00  0.00    -0.344 A  
ENDBRANCH  24  25
ENDBRANCH  14  24
BRANCH  19  32
HETATM   32  C   UNL     3      -8.902   9.784  67.418  1.00  0.00    -0.132 C  
BRANCH  32  33
HETATM   33  C   UNL     3      -8.910   8.633  68.383  1.00  0.00    -0.142 A  
HETATM   34  C   UNL     3      -8.880   6.778  70.496  1.00  0.00    -0.151 A  
HETATM   35  C   UNL     3     -10.079   8.337  69.082  1.00  0.00    -0.205 A  
HETATM   36  I   UNL     3     -11.784   7.154  71.268  1.00  0.00    -0.408 I  
HETATM   37  C   UNL     3      -7.719   7.011  69.762  1.00  0.00    -0.109 A  
HETATM   38  C   UNL     3     -10.058   7.436  70.147  1.00  0.00    -0.197 A  
HETATM   39  C   UNL     3      -7.728   7.938  68.716  1.00  0.00    -0.112 A  
ENDBRANCH  32  33
ENDBRANCH  19  32
TORSDOF 4
ENDMDL
MODEL       26
REMARK 921   NORMALIZED FREE ENERGY PREDICTED BY IDOCK:   -7.05 KCAL/MOL
REMARK 922        TOTAL FREE ENERGY PREDICTED BY IDOCK:   -9.34 KCAL/MOL
REMARK 923 INTER-LIGAND FREE ENERGY PREDICTED BY IDOCK:   -8.91 KCAL/MOL
REMARK 924 INTRA-LIGAND FREE ENERGY PREDICTED BY IDOCK:   -0.43 KCAL/MOL
REMARK 927      BINDING AFFINITY PREDICTED BY RF-SCORE:    0.00 PKD
ROOT
HETATM    1  O   UNL     1     -12.094  14.410  66.981  1.00  0.00    -0.418 OA 
HETATM    2  S   UNL     1     -11.803  13.574  65.635  1.00  0.00    -0.393 S  
HETATM    3  N   UNL     2      -9.743  15.433  69.740  1.00  0.00    -0.406 NA 
HETATM    4  H1  UNL     2     -10.416  16.019  69.246  1.00  0.00     0.000 HD 
HETATM    5  H2  UNL     2      -9.942  15.053  70.666  1.00  0.00     0.000 HD 
HETATM    6  C   UNL     2      -8.583  15.185  69.110  1.00  0.00    -0.218 C  
HETATM    7  N   UNL     3     -10.640  12.661  68.759  1.00  0.00    -0.351 NA 
HETATM    8  O   UNL     1     -12.216  12.100  66.110  1.00  0.00    -0.611 OA 
HETATM    9  O   UNL     1     -12.726  14.034  64.624  1.00  0.00    -0.648 OA 
HETATM   10  O   UNL     1     -10.380  13.580  65.441  1.00  0.00    -0.299 OA 
HETATM   11  C   UNL     3      -9.693  11.879  68.194  1.00  0.00    -0.194 C  
HETATM   12  H1  UNL     3     -11.616  12.378  68.856  1.00  0.00     0.000 HD 
HETATM   13  H2  UNL     3     -10.365  13.579  69.107  1.00  0.00     0.000 HD 
HETATM   14  N   UNL     2      -8.462  15.491  67.813  1.00  0.00    -0.149 NA 
HETATM   15  N   UNL     2      -7.736  14.447  69.732  1.00  0.00    -0.363 NA 
HETATM   16  H2  UNL     2      -7.935  14.067  70.659  1.00  0.00     0.000 HD 
HETATM   17  H   UNL     2      -7.642  15.100  67.349  1.00  0.00     0.000 HD 
HETATM   18  N   UNL     3      -8.471  12.233  68.073  1.00  0.00    -0.163 NA 
HETATM   19  N   UNL     3     -10.171  10.721  67.685  1.00  0.00    -0.182 NA 
HETATM   20  H2  UNL     3      -8.195  13.151  68.421  1.00  0.00     0.000 HD 
HETATM   21  H1  UNL     2      -6.855  14.259  69.254  1.00  0.00     0.000 HD 
HETATM   22  H1  UNL     3      -7.756  11.644  67.646  1.00  0.00     0.000 HD 
HETATM   23  H   UNL     3     -11.146  10.612  67.407  1.00  0.00     0.000 HD 
ENDROOT
BRANCH  14  24
HETATM   24  C   UNL     2      -9.325  16.296  66.968  1.00  0.00    -0.221 C  
BRANCH  24  25
HETATM   25  C   UNL     2      -8.919  17.759  67.038  1.00  0.00    -0.258 A  
HETATM   26  I   UNL     2      -5.847  20.125  69.034  1.00  0.00    -0.382 I  
HETATM   27  C   UNL     2      -9.640  18.739  66.334  1.00  0.00    -0.354 A  
HETATM   28  C   UNL     2      -7.809  18.163  67.804  1.00  0.00    -0.236 A  
HETATM   29  C   UNL     2      -9.315  20.088  66.442  1.00  0.00    -0.481 A  
HETATM   30  C   UNL     2      -7.474  19.517  67.888  1.00  0.00    -0.275 A  
HETATM   31  C   UNL     2      -8.230  20.481  67.220  1.00  0.00    -0.360 A  
ENDBRANCH  24  25
ENDBRANCH  14  24
BRANCH  19  32
HETATM   32  C   UNL     3      -9.204   9.639  67.558  1.00  0.00    -0.133 C  
BRANCH  32  33
HETATM   33  C   UNL     3      -9.783   8.300  67.913  1.00  0.00    -0.192 A  
HETATM   34  C   UNL     3     -10.486   5.634  68.463  1.00  0.00    -0.273 A  
HETATM   35  C   UNL     3      -9.461   7.721  69.139  1.00  0.00    -0.151 A  
HETATM   36  I   UNL     3      -9.136   5.519  71.172  1.00  0.00    -0.183 I  
HETATM   37  C   UNL     3     -10.877   6.219  67.261  1.00  0.00    -0.457 A  
HETATM   38  C   UNL     3      -9.787   6.391  69.401  1.00  0.00    -0.149 A  
HETATM   39  C   UNL     3     -10.523   7.542  66.981  1.00  0.00    -0.409 A  
ENDBRANCH  32  33
ENDBRANCH  19  32
TORSDOF 4
ENDMDL
MODEL       27
REMARK 921   NORMALIZED FREE ENERGY PREDICTED BY IDOCK:   -7.00 KCAL/MOL
REMARK 922        TOTAL FREE ENERGY PREDICTED BY IDOCK:   -9.28 KCAL/MOL
REMARK 923 INTER-LIGAND FREE ENERGY PREDICTED BY IDOCK:   -8.28 KCAL/MOL
REMARK 924 INTRA-LIGAND FREE ENERGY PREDICTED BY IDOCK:   -1.01 KCAL/MOL
REMARK 927      BINDING AFFINITY PREDICTED BY RF-SCORE:    0.00 PKD
ROOT
HETATM    1  O   UNL     1      -8.624  14.455  67.281  1.00  0.00    -0.192 OA 
HETATM    2  S   UNL     1      -8.064  13.164  68.065  1.00  0.00    -0.169 S  
HETATM    3  N   UNL     2     -11.901  14.958  65.495  1.00  0.00    -0.223 NA 
HETATM    4  H1  UNL     2     -11.461  15.578  66.176  1.00  0.00     0.000 HD 
HETATM    5  H2  UNL     2     -11.846  15.138  64.492  1.00  0.00     0.000 HD 
HETATM    6  C   UNL     2     -12.557  13.894  65.986  1.00  0.00    -0.423 C  
HETATM    7  N   UNL     3      -9.571  13.028  64.957  1.00  0.00    -0.468 NA 
HETATM    8  O   UNL     1      -7.185  12.479  66.912  1.00  0.00    -0.032 OA 
HETATM    9  O   UNL     1      -7.198  13.631  69.121  1.00  0.00    -0.087 OA 
HETATM   10  O   UNL     1      -9.190  12.307  68.313  1.00  0.00    -0.196 OA 
HETATM   11  C   UNL     3      -9.822  11.710  65.121  1.00  0.00    -0.249 C  
HETATM   12  H1  UNL     3      -8.659  13.395  64.684  1.00  0.00     0.000 HD 
HETATM   13  H2  UNL     3     -10.332  13.689  65.114  1.00  0.00     0.000 HD 
HETATM   14  N   UNL     2     -12.399  13.562  67.272  1.00  0.00    -0.304 NA 
HETATM   15  N   UNL     2     -13.111  13.114  65.129  1.00  0.00    -0.706 NA 
HETATM   16  H2  UNL     2     -13.056  13.293  64.126  1.00  0.00     0.000 HD 
HETATM   17  H   UNL     2     -12.757  12.642  67.531  1.00  0.00     0.000 HD 
HETATM   18  N   UNL     3     -10.964  11.249  65.463  1.00  0.00    -0.186 NA 
HETATM   19  N   UNL     3      -8.732  10.922  64.977  1.00  0.00    -0.331 NA 
HETATM   20  H2  UNL     3     -11.726  11.910  65.620  1.00  0.00     0.000 HD 
HETATM   21  H1  UNL     2     -13.609  12.305  65.502  1.00  0.00     0.000 HD 
HETATM   22  H1  UNL     3     -11.154  10.255  65.587  1.00  0.00     0.000 HD 
HETATM   23  H   UNL     3      -7.785  11.276  65.115  1.00  0.00     0.000 HD 
ENDROOT
BRANCH  14  24
HETATM   24  C   UNL     2     -11.795  14.316  68.356  1.00  0.00    -0.338 C  
BRANCH  24  25
HETATM   25  C   UNL     2     -12.281  13.796  69.698  1.00  0.00    -0.359 A  
HETATM   26  I   UNL     2     -12.786   9.915  71.622  1.00  0.00    -0.572 I  
HETATM   27  C   UNL     2     -12.737  14.683  70.689  1.00  0.00    -0.417 A  
HETATM   28  C   UNL     2     -12.279  12.416  69.981  1.00  0.00    -0.264 A  
HETATM   29  C   UNL     2     -13.244  14.212  71.897  1.00  0.00    -0.468 A  
HETATM   30  C   UNL     2     -12.767  11.954  71.205  1.00  0.00    -0.284 A  
HETATM   31  C   UNL     2     -13.260  12.846  72.159  1.00  0.00    -0.552 A  
ENDBRANCH  24  25
ENDBRANCH  14  24
BRANCH  19  32
HETATM   32  C   UNL     3      -8.996   9.536  64.613  1.00  0.00    -0.221 C  
BRANCH  32  33
HETATM   33  C   UNL     3      -8.577   8.568  65.682  1.00  0.00    -0.200 A  
HETATM   34  C   UNL     3      -7.869   7.077  67.958  1.00  0.00    -0.114 A  
HETATM   35  C   UNL     3      -9.555   7.923  66.438  1.00  0.00    -0.251 A  
HETATM   36  I   UNL     3     -10.708   6.406  68.773  1.00  0.00    -0.406 I  
HETATM   37  C   UNL     3      -6.875   7.657  67.173  1.00  0.00    -0.068 A  
HETATM   38  C   UNL     3      -9.205   7.205  67.582  1.00  0.00    -0.125 A  
HETATM   39  C   UNL     3      -7.224   8.405  66.045  1.00  0.00    -0.073 A  
ENDBRANCH  32  33
ENDBRANCH  19  32
TORSDOF 4
ENDMDL
MODEL       28
REMARK 921   NORMALIZED FREE ENERGY PREDICTED BY IDOCK:   -6.92 KCAL/MOL
REMARK 922        TOTAL FREE ENERGY PREDICTED BY IDOCK:   -9.18 KCAL/MOL
REMARK 923 INTER-LIGAND FREE ENERGY PREDICTED BY IDOCK:   -8.45 KCAL/MOL
REMARK 924 INTRA-LIGAND FREE ENERGY PREDICTED BY IDOCK:   -0.73 KCAL/MOL
REMARK 927      BINDING AFFINITY PREDICTED BY RF-SCORE:    0.00 PKD
ROOT
HETATM    1  O   UNL     1      -8.687   8.647  72.923  1.00  0.00    -0.384 OA 
HETATM    2  S   UNL     1      -7.594   8.344  71.780  1.00  0.00    -0.110 S  
HETATM    3  N   UNL     2     -12.419   8.143  72.888  1.00  0.00    -0.653 NA 
HETATM    4  H1  UNL     2     -11.759   7.858  73.612  1.00  0.00     0.000 HD 
HETATM    5  H2  UNL     2     -12.989   8.984  72.983  1.00  0.00     0.000 HD 
HETATM    6  C   UNL     2     -12.499   7.356  71.803  1.00  0.00    -0.336 C  
HETATM    7  N   UNL     3     -10.597   9.953  71.197  1.00  0.00    -0.272 NA 
HETATM    8  O   UNL     1      -7.470   9.791  71.101  1.00  0.00    -0.301 OA 
HETATM    9  O   UNL     1      -6.352   8.008  72.435  1.00  0.00    -0.053 OA 
HETATM   10  O   UNL     1      -8.222   7.474  70.824  1.00  0.00    -0.107 OA 
HETATM   11  C   UNL     3     -10.510   9.668  69.879  1.00  0.00    -0.253 C  
HETATM   12  H1  UNL     3     -10.084  10.714  71.641  1.00  0.00     0.000 HD 
HETATM   13  H2  UNL     3     -11.207   9.377  71.778  1.00  0.00     0.000 HD 
HETATM   14  N   UNL     2     -11.571   6.412  71.606  1.00  0.00    -0.301 NA 
HETATM   15  N   UNL     2     -13.330   7.715  70.892  1.00  0.00    -0.566 NA 
HETATM   16  H2  UNL     2     -13.900   8.556  70.987  1.00  0.00     0.000 HD 
HETATM   17  H   UNL     2     -11.572   5.989  70.678  1.00  0.00     0.000 HD 
HETATM   18  N   UNL     3     -11.154   8.714  69.322  1.00  0.00    -0.430 NA 
HETATM   19  N   UNL     3      -9.612  10.427  69.212  1.00  0.00    -0.239 NA 
HETATM   20  H2  UNL     3     -11.764   8.138  69.902  1.00  0.00     0.000 HD 
HETATM   21  H1  UNL     2     -13.392   7.117  70.067  1.00  0.00     0.000 HD 
HETATM   22  H1  UNL     3     -11.088   8.498  68.328  1.00  0.00     0.000 HD 
HETATM   23  H   UNL     3      -8.828  10.879  69.683  1.00  0.00     0.000 HD 
ENDROOT
BRANCH  14  24
HETATM   24  C   UNL     2     -10.564   5.901  72.517  1.00  0.00    -0.218 C  
BRANCH  24  25
HETATM   25  C   UNL     2     -10.200   4.471  72.155  1.00  0.00    -0.256 A  
HETATM   26  I   UNL     2      -8.878   2.319  68.599  1.00  0.00    -0.214 I  
HETATM   27  C   UNL     2     -10.271   3.447  73.115  1.00  0.00    -0.231 A  
HETATM   28  C   UNL     2      -9.777   4.142  70.852  1.00  0.00    -0.259 A  
HETATM   29  C   UNL     2     -10.001   2.124  72.776  1.00  0.00    -0.190 A  
HETATM   30  C   UNL     2      -9.484   2.816  70.527  1.00  0.00    -0.132 A  
HETATM   31  C   UNL     2      -9.606   1.804  71.481  1.00  0.00    -0.200 A  
ENDBRANCH  24  25
ENDBRANCH  14  24
BRANCH  19  32
HETATM   32  C   UNL     3      -9.835  10.560  67.778  1.00  0.00    -0.165 C  
BRANCH  32  33
HETATM   33  C   UNL     3     -10.532  11.840  67.417  1.00  0.00    -0.238 A  
HETATM   34  C   UNL     3     -12.161  14.090  66.981  1.00  0.00    -0.455 A  
HETATM   35  C   UNL     3     -10.551  12.889  68.335  1.00  0.00    -0.267 A  
HETATM   36  I   UNL     3     -11.504  15.449  69.607  1.00  0.00    -0.443 I  
HETATM   37  C   UNL     3     -12.099  13.083  66.021  1.00  0.00    -0.493 A  
HETATM   38  C   UNL     3     -11.379  13.992  68.131  1.00  0.00    -0.292 A  
HETATM   39  C   UNL     3     -11.297  11.959  66.238  1.00  0.00    -0.394 A  
ENDBRANCH  32  33
ENDBRANCH  19  32
TORSDOF 4
ENDMDL
MODEL       29
REMARK 921   NORMALIZED FREE ENERGY PREDICTED BY IDOCK:   -6.90 KCAL/MOL
REMARK 922        TOTAL FREE ENERGY PREDICTED BY IDOCK:   -9.16 KCAL/MOL
REMARK 923 INTER-LIGAND FREE ENERGY PREDICTED BY IDOCK:   -8.45 KCAL/MOL
REMARK 924 INTRA-LIGAND FREE ENERGY PREDICTED BY IDOCK:   -0.71 KCAL/MOL
REMARK 927      BINDING AFFINITY PREDICTED BY RF-SCORE:    0.00 PKD
ROOT
HETATM    1  O   UNL     1     -12.391  11.583  68.155  1.00  0.00    -0.473 OA 
HETATM    2  S   UNL     1     -11.411  11.754  69.421  1.00  0.00    -0.311 S  
HETATM    3  N   UNL     2     -11.651  11.884  64.475  1.00  0.00    -0.302 NA 
HETATM    4  H1  UNL     2     -12.154  11.134  64.949  1.00  0.00     0.000 HD 
HETATM    5  H2  UNL     2     -12.141  12.626  63.975  1.00  0.00     0.000 HD 
HETATM    6  C   UNL     2     -10.310  11.846  64.541  1.00  0.00    -0.292 C  
HETATM    7  N   UNL     3     -11.509  13.946  66.750  1.00  0.00    -0.336 NA 
HETATM    8  O   UNL     1     -11.695  13.284  69.807  1.00  0.00    -0.298 OA 
HETATM    9  O   UNL     1     -11.895  10.891  70.473  1.00  0.00    -0.313 OA 
HETATM   10  O   UNL     1     -10.066  11.680  68.921  1.00  0.00    -0.181 OA 
HETATM   11  C   UNL     3     -10.282  14.414  67.072  1.00  0.00    -0.263 C  
HETATM   12  H1  UNL     3     -12.362  14.232  67.232  1.00  0.00     0.000 HD 
HETATM   13  H2  UNL     3     -11.585  13.272  65.988  1.00  0.00     0.000 HD 
HETATM   14  N   UNL     2      -9.719  11.009  65.401  1.00  0.00    -0.219 NA 
HETATM   15  N   UNL     2      -9.677  12.790  63.944  1.00  0.00    -0.663 NA 
HETATM   16  H2  UNL     2     -10.167  13.532  63.443  1.00  0.00     0.000 HD 
HETATM   17  H   UNL     2      -8.722  11.168  65.547  1.00  0.00     0.000 HD 
HETATM   18  N   UNL     3      -9.213  14.056  66.469  1.00  0.00    -0.422 NA 
HETATM   19  N   UNL     3     -10.273  15.231  68.149  1.00  0.00    -0.228 NA 
HETATM   20  H2  UNL     3      -9.289  13.383  65.706  1.00  0.00     0.000 HD 
HETATM   21  H1  UNL     2      -8.658  12.762  63.994  1.00  0.00     0.000 HD 
HETATM   22  H1  UNL     3      -8.287  14.409  66.711  1.00  0.00     0.000 HD 
HETATM   23  H   UNL     3     -11.002  15.199  68.862  1.00  0.00     0.000 HD 
ENDROOT
BRANCH  14  24
HETATM   24  C   UNL     2     -10.286   9.907  66.158  1.00  0.00    -0.207 C  
BRANCH  24  25
HETATM   25  C   UNL     2      -9.393   8.682  66.058  1.00  0.00    -0.284 A  
HETATM   26  I   UNL     2      -9.347   4.628  67.665  1.00  0.00    -0.212 I  
HETATM   27  C   UNL     2      -8.217   8.711  65.287  1.00  0.00    -0.148 A  
HETATM   28  C   UNL     2      -9.725   7.490  66.730  1.00  0.00    -0.283 A  
HETATM   29  C   UNL     2      -7.361   7.615  65.241  1.00  0.00    -0.071 A  
HETATM   30  C   UNL     2      -8.872   6.387  66.659  1.00  0.00    -0.130 A  
HETATM   31  C   UNL     2      -7.685   6.449  65.926  1.00  0.00    -0.094 A  
ENDBRANCH  24  25
ENDBRANCH  14  24
BRANCH  19  32
HETATM   32  C   UNL     3      -9.154  16.161  68.229  1.00  0.00    -0.190 C  
BRANCH  32  33
HETATM   33  C   UNL     3      -9.418  17.448  67.501  1.00  0.00    -0.250 A  
HETATM   34  C   UNL     3      -9.714  20.047  66.470  1.00  0.00    -0.564 A  
HETATM   35  C   UNL     3      -8.391  18.041  66.768  1.00  0.00    -0.271 A  
HETATM   36  I   UNL     3      -6.910  20.244  65.342  1.00  0.00    -0.112 I  
HETATM   37  C   UNL     3     -10.775  19.443  67.140  1.00  0.00    -0.593 A  
HETATM   38  C   UNL     3      -8.529  19.339  66.280  1.00  0.00    -0.319 A  
HETATM   39  C   UNL     3     -10.629  18.154  67.661  1.00  0.00    -0.424 A  
ENDBRANCH  32  33
ENDBRANCH  19  32
TORSDOF 4
ENDMDL
MODEL       30
REMARK 921   NORMALIZED FREE ENERGY PREDICTED BY IDOCK:   -6.83 KCAL/MOL
REMARK 922        TOTAL FREE ENERGY PREDICTED BY IDOCK:   -9.07 KCAL/MOL
REMARK 923 INTER-LIGAND FREE ENERGY PREDICTED BY IDOCK:   -8.42 KCAL/MOL
REMARK 924 INTRA-LIGAND FREE ENERGY PREDICTED BY IDOCK:   -0.65 KCAL/MOL
REMARK 927      BINDING AFFINITY PREDICTED BY RF-SCORE:    0.00 PKD
ROOT
HETATM    1  O   UNL     1     -10.054  11.057  66.698  1.00  0.00    -0.206 OA 
HETATM    2  S   UNL     1      -9.086  10.178  67.638  1.00  0.00    -0.137 S  
HETATM    3  N   UNL     2     -12.256  13.984  67.572  1.00  0.00    -0.535 NA 
HETATM    4  H1  UNL     2     -11.592  13.913  66.800  1.00  0.00     0.000 HD 
HETATM    5  H2  UNL     2     -13.258  13.854  67.430  1.00  0.00     0.000 HD 
HETATM    6  C   UNL     2     -11.745  14.260  68.782  1.00  0.00    -0.343 C  
HETATM    7  N   UNL     3     -12.323  11.050  68.483  1.00  0.00    -0.724 NA 
HETATM    8  O   UNL     1     -10.054   8.947  67.985  1.00  0.00    -0.177 OA 
HETATM    9  O   UNL     1      -7.985   9.715  66.827  1.00  0.00    -0.105 OA 
HETATM   10  O   UNL     1      -8.891  10.925  68.850  1.00  0.00    -0.163 OA 
HETATM   11  C   UNL     3     -12.061  10.811  69.787  1.00  0.00    -0.318 C  
HETATM   12  H1  UNL     3     -12.520  10.311  67.807  1.00  0.00     0.000 HD 
HETATM   13  H2  UNL     3     -12.322  12.017  68.158  1.00  0.00     0.000 HD 
HETATM   14  N   UNL     2     -10.422  14.180  68.970  1.00  0.00    -0.349 NA 
HETATM   15  N   UNL     2     -12.581  14.349  69.754  1.00  0.00    -0.524 NA 
HETATM   16  H2  UNL     2     -13.583  14.219  69.612  1.00  0.00     0.000 HD 
HETATM   17  H   UNL     2     -10.120  14.202  69.944  1.00  0.00     0.000 HD 
HETATM   18  N   UNL     3     -11.814  11.736  70.635  1.00  0.00    -0.469 NA 
HETATM   19  N   UNL     3     -11.997   9.497  70.102  1.00  0.00    -0.467 NA 
HETATM   20  H2  UNL     3     -11.814  12.703  70.311  1.00  0.00     0.000 HD 
HETATM   21  H1  UNL     2     -12.193  14.558  70.674  1.00  0.00     0.000 HD 
HETATM   22  H1  UNL     3     -11.616  11.556  71.619  1.00  0.00     0.000 HD 
HETATM   23  H   UNL     3     -11.783   8.783  69.407  1.00  0.00     0.000 HD 
ENDROOT
BRANCH  14  24
HETATM   24  C   UNL     2      -9.354  14.068  67.994  1.00  0.00    -0.205 C  
BRANCH  24  25
HETATM   25  C   UNL     2      -8.322  15.160  68.211  1.00  0.00    -0.149 A  
HETATM   26  I   UNL     2      -6.583  18.414  65.885  1.00  0.00    -0.287 I  
HETATM   27  C   UNL     2      -7.645  15.276  69.438  1.00  0.00    -0.219 A  
HETATM   28  C   UNL     2      -8.023  16.084  67.190  1.00  0.00    -0.234 A  
HETATM   29  C   UNL     2      -6.653  16.234  69.624  1.00  0.00    -0.175 A  
HETATM   30  C   UNL     2      -7.043  17.058  67.394  1.00  0.00    -0.157 A  
HETATM   31  C   UNL     2      -6.348  17.128  68.603  1.00  0.00    -0.163 A  
ENDBRANCH  24  25
ENDBRANCH  14  24
BRANCH  19  32
HETATM   32  C   UNL     3     -12.252   9.168  71.498  1.00  0.00    -0.349 C  
BRANCH  32  33
HETATM   33  C   UNL     3     -11.514   7.939  71.947  1.00  0.00    -0.328 A  
HETATM   34  C   UNL     3      -9.831   5.756  72.503  1.00  0.00    -0.182 A  
HETATM   35  C   UNL     3     -10.464   8.067  72.855  1.00  0.00    -0.402 A  
HETATM   36  I   UNL     3      -7.963   7.277  74.339  1.00  0.00    -0.238 I  
HETATM   37  C   UNL     3     -10.917   5.593  71.646  1.00  0.00    -0.277 A  
HETATM   38  C   UNL     3      -9.615   6.992  73.111  1.00  0.00    -0.166 A  
HETATM   39  C   UNL     3     -11.752   6.678  71.362  1.00  0.00    -0.374 A  
ENDBRANCH  32  33
ENDBRANCH  19  32
TORSDOF 4
ENDMDL
MODEL       31
REMARK 921   NORMALIZED FREE ENERGY PREDICTED BY IDOCK:   -6.81 KCAL/MOL
REMARK 922        TOTAL FREE ENERGY PREDICTED BY IDOCK:   -9.05 KCAL/MOL
REMARK 923 INTER-LIGAND FREE ENERGY PREDICTED BY IDOCK:   -8.47 KCAL/MOL
REMARK 924 INTRA-LIGAND FREE ENERGY PREDICTED BY IDOCK:   -0.58 KCAL/MOL
REMARK 927      BINDING AFFINITY PREDICTED BY RF-SCORE:    0.00 PKD
ROOT
HETATM    1  O   UNL     1      -8.783   9.123  71.121  1.00  0.00    -0.214 OA 
HETATM    2  S   UNL     1      -8.332   9.420  69.604  1.00  0.00    -0.164 S  
HETATM    3  N   UNL     2     -12.173   8.233  72.498  1.00  0.00    -0.536 NA 
HETATM    4  H1  UNL     2     -11.284   7.770  72.686  1.00  0.00     0.000 HD 
HETATM    5  H2  UNL     2     -12.582   8.897  73.157  1.00  0.00     0.000 HD 
HETATM    6  C   UNL     2     -12.780   7.925  71.340  1.00  0.00    -0.292 C  
HETATM    7  N   UNL     3     -11.161  10.759  71.069  1.00  0.00    -0.113 NA 
HETATM    8  O   UNL     1      -8.417  11.021  69.579  1.00  0.00     0.069 OA 
HETATM    9  O   UNL     1      -6.955   9.006  69.465  1.00  0.00    -0.049 OA 
HETATM   10  O   UNL     1      -9.376   8.921  68.753  1.00  0.00    -0.137 OA 
HETATM   11  C   UNL     3     -11.685  11.020  69.850  1.00  0.00    -0.346 C  
HETATM   12  H1  UNL     3     -10.452  11.344  71.511  1.00  0.00     0.000 HD 
HETATM   13  H2  UNL     3     -11.492   9.935  71.571  1.00  0.00     0.000 HD 
HETATM   14  N   UNL     2     -12.103   7.249  70.405  1.00  0.00    -0.557 NA 
HETATM   15  N   UNL     2     -13.900   8.508  71.104  1.00  0.00    -0.590 NA 
HETATM   16  H2  UNL     2     -14.308   9.171  71.763  1.00  0.00     0.000 HD 
HETATM   17  H   UNL     2     -12.543   7.222  69.485  1.00  0.00     0.000 HD 
HETATM   18  N   UNL     3     -12.574  10.288  69.296  1.00  0.00    -0.405 NA 
HETATM   19  N   UNL     3     -11.122  12.080  69.227  1.00  0.00    -0.382 NA 
HETATM   20  H2  UNL     3     -12.905   9.464  69.798  1.00  0.00     0.000 HD 
HETATM   21  H1  UNL     2     -14.361   8.274  70.224  1.00  0.00     0.000 HD 
HETATM   22  H1  UNL     3     -12.970  10.484  68.376  1.00  0.00     0.000 HD 
HETATM   23  H   UNL     3     -10.181  12.403  69.450  1.00  0.00     0.000 HD 
ENDROOT
BRANCH  14  24
HETATM   24  C   UNL     2     -10.836   6.548  70.503  1.00  0.00    -0.271 C  
BRANCH  24  25
HETATM   25  C   UNL     2     -10.538   5.809  69.210  1.00  0.00    -0.376 A  
HETATM   26  I   UNL     2      -8.170   2.360  67.979  1.00  0.00    -0.096 I  
HETATM   27  C   UNL     2     -11.090   6.243  67.992  1.00  0.00    -0.365 A  
HETATM   28  C   UNL     2      -9.707   4.672  69.203  1.00  0.00    -0.255 A  
HETATM   29  C   UNL     2     -10.772   5.611  66.793  1.00  0.00    -0.358 A  
HETATM   30  C   UNL     2      -9.412   4.029  67.999  1.00  0.00    -0.165 A  
HETATM   31  C   UNL     2      -9.932   4.501  66.793  1.00  0.00    -0.240 A  
ENDBRANCH  24  25
ENDBRANCH  14  24
BRANCH  19  32
HETATM   32  C   UNL     3     -11.944  12.731  68.215  1.00  0.00    -0.229 C  
BRANCH  32  33
HETATM   33  C   UNL     3     -11.191  13.771  67.438  1.00  0.00    -0.330 A  
HETATM   34  C   UNL     3     -10.160  15.915  65.939  1.00  0.00    -0.376 A  
HETATM   35  C   UNL     3     -10.843  14.969  68.061  1.00  0.00    -0.270 A  
HETATM   36  I   UNL     3     -10.015  17.860  68.256  1.00  0.00    -0.421 I  
HETATM   37  C   UNL     3     -10.436  14.702  65.313  1.00  0.00    -0.420 A  
HETATM   38  C   UNL     3     -10.357  16.040  67.313  1.00  0.00    -0.295 A  
HETATM   39  C   UNL     3     -10.956  13.636  66.054  1.00  0.00    -0.288 A  
ENDBRANCH  32  33
ENDBRANCH  19  32
TORSDOF 4
ENDMDL
MODEL       32
REMARK 921   NORMALIZED FREE ENERGY PREDICTED BY IDOCK:   -6.79 KCAL/MOL
REMARK 922        TOTAL FREE ENERGY PREDICTED BY IDOCK:   -9.03 KCAL/MOL
REMARK 923 INTER-LIGAND FREE ENERGY PREDICTED BY IDOCK:   -9.00 KCAL/MOL
REMARK 924 INTRA-LIGAND FREE ENERGY PREDICTED BY IDOCK:   -0.03 KCAL/MOL
REMARK 927      BINDING AFFINITY PREDICTED BY RF-SCORE:    0.00 PKD
ROOT
HETATM    1  O   UNL     1      -8.339   9.652  70.013  1.00  0.00    -0.151 OA 
HETATM    2  S   UNL     1      -8.205   9.710  68.409  1.00  0.00    -0.106 S  
HETATM    3  N   UNL     2     -11.381   9.085  72.159  1.00  0.00    -0.320 NA 
HETATM    4  H1  UNL     2     -10.474   8.624  72.231  1.00  0.00     0.000 HD 
HETATM    5  H2  UNL     2     -11.645   9.850  72.780  1.00  0.00     0.000 HD 
HETATM    6  C   UNL     2     -12.212   8.632  71.206  1.00  0.00    -0.281 C  
HETATM    7  N   UNL     3     -10.673  11.342  70.197  1.00  0.00    -0.281 NA 
HETATM    8  O   UNL     1      -8.288  11.293  68.165  1.00  0.00    -0.129 OA 
HETATM    9  O   UNL     1      -6.887   9.235  68.059  1.00  0.00    -0.067 OA 
HETATM   10  O   UNL     1      -9.403   9.129  67.869  1.00  0.00    -0.137 OA 
HETATM   11  C   UNL     3     -11.433  11.442  69.083  1.00  0.00    -0.299 C  
HETATM   12  H1  UNL     3      -9.886  11.961  70.395  1.00  0.00     0.000 HD 
HETATM   13  H2  UNL     3     -10.897  10.611  70.872  1.00  0.00     0.000 HD 
HETATM   14  N   UNL     2     -11.742   7.806  70.264  1.00  0.00    -0.481 NA 
HETATM   15  N   UNL     2     -13.354   9.212  71.115  1.00  0.00    -0.547 NA 
HETATM   16  H2  UNL     2     -13.618   9.978  71.736  1.00  0.00     0.000 HD 
HETATM   17  H   UNL     2     -12.360   7.661  69.465  1.00  0.00     0.000 HD 
HETATM   18  N   UNL     3     -12.418  10.666  68.834  1.00  0.00    -0.730 NA 
HETATM   19  N   UNL     3     -11.005  12.380  68.209  1.00  0.00    -0.223 NA 
HETATM   20  H2  UNL     3     -12.643   9.935  69.509  1.00  0.00     0.000 HD 
HETATM   21  H1  UNL     2     -13.986   8.869  70.391  1.00  0.00     0.000 HD 
HETATM   22  H1  UNL     3     -12.992  10.741  67.994  1.00  0.00     0.000 HD 
HETATM   23  H   UNL     3     -10.037  12.701  68.189  1.00  0.00     0.000 HD 
ENDROOT
BRANCH  14  24
HETATM   24  C   UNL     2     -10.484   7.085  70.209  1.00  0.00    -0.208 C  
BRANCH  24  25
HETATM   25  C   UNL     2     -10.504   5.912  71.175  1.00  0.00    -0.291 A  
HETATM   26  I   UNL     2      -8.647   1.976  71.452  1.00  0.00    -0.120 I  
HETATM   27  C   UNL     2     -11.299   5.949  72.333  1.00  0.00    -0.358 A  
HETATM   28  C   UNL     2      -9.722   4.766  70.934  1.00  0.00    -0.260 A  
HETATM   29  C   UNL     2     -11.372   4.855  73.191  1.00  0.00    -0.395 A  
HETATM   30  C   UNL     2      -9.784   3.681  71.812  1.00  0.00    -0.163 A  
HETATM   31  C   UNL     2     -10.614   3.717  72.933  1.00  0.00    -0.229 A  
ENDBRANCH  24  25
ENDBRANCH  14  24
BRANCH  19  32
HETATM   32  C   UNL     3     -12.014  12.905  67.298  1.00  0.00    -0.309 C  
BRANCH  32  33
HETATM   33  C   UNL     3     -11.787  12.479  65.877  1.00  0.00    -0.489 A  
HETATM   34  C   UNL     3     -11.020  11.943  63.225  1.00  0.00    -0.399 A  
HETATM   35  C   UNL     3     -10.821  11.513  65.600  1.00  0.00    -0.310 A  
HETATM   36  I   UNL     3      -8.860   9.942  63.935  1.00  0.00    -0.267 I  
HETATM   37  C   UNL     3     -12.036  12.861  63.480  1.00  0.00    -0.633 A  
HETATM   38  C   UNL     3     -10.423  11.266  64.286  1.00  0.00    -0.357 A  
HETATM   39  C   UNL     3     -12.414  13.135  64.797  1.00  0.00    -0.460 A  
ENDBRANCH  32  33
ENDBRANCH  19  32
TORSDOF 4
ENDMDL
MODEL       33
REMARK 921   NORMALIZED FREE ENERGY PREDICTED BY IDOCK:   -6.76 KCAL/MOL
REMARK 922        TOTAL FREE ENERGY PREDICTED BY IDOCK:   -8.99 KCAL/MOL
REMARK 923 INTER-LIGAND FREE ENERGY PREDICTED BY IDOCK:   -8.33 KCAL/MOL
REMARK 924 INTRA-LIGAND FREE ENERGY PREDICTED BY IDOCK:   -0.66 KCAL/MOL
REMARK 927      BINDING AFFINITY PREDICTED BY RF-SCORE:    0.00 PKD
ROOT
HETATM    1  O   UNL     1     -12.401  12.494  67.616  1.00  0.00    -0.295 OA 
HETATM    2  S   UNL     1     -11.367  13.321  68.533  1.00  0.00    -0.307 S  
HETATM    3  N   UNL     2     -12.087  11.379  64.032  1.00  0.00    -0.183 NA 
HETATM    4  H1  UNL     2     -12.372  10.819  64.836  1.00  0.00     0.000 HD 
HETATM    5  H2  UNL     2     -12.769  11.764  63.378  1.00  0.00     0.000 HD 
HETATM    6  C   UNL     2     -10.769  11.584  63.878  1.00  0.00    -0.395 C  
HETATM    7  N   UNL     3     -12.178  14.184  65.285  1.00  0.00    -0.415 NA 
HETATM    8  O   UNL     1     -11.934  14.809  68.346  1.00  0.00    -0.303 OA 
HETATM    9  O   UNL     1     -11.556  12.898  69.901  1.00  0.00    -0.262 OA 
HETATM   10  O   UNL     1     -10.090  13.262  67.877  1.00  0.00    -0.223 OA 
HETATM   11  C   UNL     3     -11.056  14.931  65.189  1.00  0.00    -0.393 C  
HETATM   12  H1  UNL     3     -13.024  14.503  65.759  1.00  0.00     0.000 HD 
HETATM   13  H2  UNL     3     -12.179  13.255  64.864  1.00  0.00     0.000 HD 
HETATM   14  N   UNL     2      -9.936  11.276  64.879  1.00  0.00    -0.257 NA 
HETATM   15  N   UNL     2     -10.410  12.289  62.866  1.00  0.00    -0.438 NA 
HETATM   16  H2  UNL     2     -11.092  12.674  62.212  1.00  0.00     0.000 HD 
HETATM   17  H   UNL     2      -8.987  11.637  64.780  1.00  0.00     0.000 HD 
HETATM   18  N   UNL     3      -9.996  14.532  64.596  1.00  0.00    -0.591 NA 
HETATM   19  N   UNL     3     -11.121  16.107  65.853  1.00  0.00    -0.051 NA 
HETATM   20  H2  UNL     3      -9.996  13.604  64.174  1.00  0.00     0.000 HD 
HETATM   21  H1  UNL     2      -9.409  12.445  62.749  1.00  0.00     0.000 HD 
HETATM   22  H1  UNL     3      -9.148  15.095  64.523  1.00  0.00     0.000 HD 
HETATM   23  H   UNL     3     -11.757  16.253  66.637  1.00  0.00     0.000 HD 
ENDROOT
BRANCH  14  24
HETATM   24  C   UNL     2     -10.181  10.505  66.084  1.00  0.00    -0.236 C  
BRANCH  24  25
HETATM   25  C   UNL     2      -9.566   9.122  65.962  1.00  0.00    -0.342 A  
HETATM   26  I   UNL     2      -6.513   7.193  63.517  1.00  0.00    -0.046 I  
HETATM   27  C   UNL     2     -10.004   8.067  66.781  1.00  0.00    -0.344 A  
HETATM   28  C   UNL     2      -8.541   8.868  65.030  1.00  0.00    -0.202 A  
HETATM   29  C   UNL     2      -9.491   6.781  66.633  1.00  0.00    -0.205 A  
HETATM   30  C   UNL     2      -8.015   7.580  64.904  1.00  0.00    -0.132 A  
HETATM   31  C   UNL     2      -8.494   6.534  65.694  1.00  0.00    -0.146 A  
ENDBRANCH  24  25
ENDBRANCH  14  24
BRANCH  19  32
HETATM   32  C   UNL     3     -10.224  17.153  65.378  1.00  0.00     0.066 C  
BRANCH  32  33
HETATM   33  C   UNL     3      -9.743  18.048  66.483  1.00  0.00    -0.338 A  
HETATM   34  C   UNL     3      -8.930  19.395  68.814  1.00  0.00    -0.396 A  
HETATM   35  C   UNL     3      -8.453  17.882  66.984  1.00  0.00    -0.248 A  
HETATM   36  I   UNL     3      -6.187  18.118  68.957  1.00  0.00    -0.261 I  
HETATM   37  C   UNL     3     -10.199  19.626  68.288  1.00  0.00    -0.567 A  
HETATM   38  C   UNL     3      -8.059  18.529  68.154  1.00  0.00    -0.290 A  
HETATM   39  C   UNL     3     -10.609  18.953  67.134  1.00  0.00    -0.531 A  
ENDBRANCH  32  33
ENDBRANCH  19  32
TORSDOF 4
ENDMDL
MODEL       34
REMARK 921   NORMALIZED FREE ENERGY PREDICTED BY IDOCK:   -6.76 KCAL/MOL
REMARK 922        TOTAL FREE ENERGY PREDICTED BY IDOCK:   -8.99 KCAL/MOL
REMARK 923 INTER-LIGAND FREE ENERGY PREDICTED BY IDOCK:   -8.24 KCAL/MOL
REMARK 924 INTRA-LIGAND FREE ENERGY PREDICTED BY IDOCK:   -0.75 KCAL/MOL
REMARK 927      BINDING AFFINITY PREDICTED BY RF-SCORE:    0.00 PKD
ROOT
HETATM    1  O   UNL     1      -8.372   7.988  72.138  1.00  0.00    -0.119 OA 
HETATM    2  S   UNL     1      -7.572   8.291  70.774  1.00  0.00    -0.079 S  
HETATM    3  N   UNL     2     -11.992   7.095  72.662  1.00  0.00    -0.517 NA 
HETATM    4  H1  UNL     2     -11.173   6.630  73.054  1.00  0.00     0.000 HD 
HETATM    5  H2  UNL     2     -12.546   7.755  73.208  1.00  0.00     0.000 HD 
HETATM    6  C   UNL     2     -12.306   6.793  71.392  1.00  0.00    -0.353 C  
HETATM    7  N   UNL     3     -10.669   9.627  71.529  1.00  0.00    -0.213 NA 
HETATM    8  O   UNL     1      -7.649   9.893  70.738  1.00  0.00    -0.305 OA 
HETATM    9  O   UNL     1      -6.202   7.877  70.965  1.00  0.00    -0.034 OA 
HETATM   10  O   UNL     1      -8.383   7.798  69.696  1.00  0.00    -0.125 OA 
HETATM   11  C   UNL     3     -10.887   9.895  70.222  1.00  0.00    -0.310 C  
HETATM   12  H1  UNL     3     -10.086  10.209  72.130  1.00  0.00     0.000 HD 
HETATM   13  H2  UNL     3     -11.109   8.800  71.933  1.00  0.00     0.000 HD 
HETATM   14  N   UNL     2     -11.425   6.121  70.641  1.00  0.00    -0.317 NA 
HETATM   15  N   UNL     2     -13.337   7.378  70.898  1.00  0.00    -0.596 NA 
HETATM   16  H2  UNL     2     -13.891   8.039  71.444  1.00  0.00     0.000 HD 
HETATM   17  H   UNL     2     -11.633   6.100  69.642  1.00  0.00     0.000 HD 
HETATM   18  N   UNL     3     -11.618   9.166  69.468  1.00  0.00    -0.318 NA 
HETATM   19  N   UNL     3     -10.192  10.957  69.757  1.00  0.00    -0.438 NA 
HETATM   20  H2  UNL     3     -12.060   8.340  69.872  1.00  0.00     0.000 HD 
HETATM   21  H1  UNL     2     -13.575   7.149  69.933  1.00  0.00     0.000 HD 
HETATM   22  H1  UNL     3     -11.783   9.368  68.482  1.00  0.00     0.000 HD 
HETATM   23  H   UNL     3      -9.331  11.278  70.200  1.00  0.00     0.000 HD 
ENDROOT
BRANCH  14  24
HETATM   24  C   UNL     2     -10.218   5.418  71.035  1.00  0.00    -0.229 C  
BRANCH  24  25
HETATM   25  C   UNL     2      -9.787   4.454  69.944  1.00  0.00    -0.290 A  
HETATM   26  I   UNL     2      -9.661   4.420  65.584  1.00  0.00    -0.228 I  
HETATM   27  C   UNL     2      -9.283   3.182  70.267  1.00  0.00    -0.217 A  
HETATM   28  C   UNL     2      -9.877   4.815  68.585  1.00  0.00    -0.208 A  
HETATM   29  C   UNL     2      -8.944   2.269  69.272  1.00  0.00    -0.164 A  
HETATM   30  C   UNL     2      -9.513   3.901  67.594  1.00  0.00    -0.185 A  
HETATM   31  C   UNL     2      -9.058   2.625  67.932  1.00  0.00    -0.227 A  
ENDBRANCH  24  25
ENDBRANCH  14  24
BRANCH  19  32
HETATM   32  C   UNL     3     -10.749  11.614  68.582  1.00  0.00    -0.212 C  
BRANCH  32  33
HETATM   33  C   UNL     3     -11.090  13.055  68.831  1.00  0.00    -0.307 A  
HETATM   34  C   UNL     3     -12.120  15.652  69.152  1.00  0.00    -0.249 A  
HETATM   35  C   UNL     3     -11.799  13.399  69.981  1.00  0.00    -0.364 A  
HETATM   36  I   UNL     3     -13.525  15.096  71.776  1.00  0.00    -0.699 I  
HETATM   37  C   UNL     3     -11.354  15.344  68.029  1.00  0.00    -0.345 A  
HETATM   38  C   UNL     3     -12.331  14.679  70.127  1.00  0.00    -0.336 A  
HETATM   39  C   UNL     3     -10.847  14.052  67.863  1.00  0.00    -0.255 A  
ENDBRANCH  32  33
ENDBRANCH  19  32
TORSDOF 4
ENDMDL
MODEL       35
REMARK 921   NORMALIZED FREE ENERGY PREDICTED BY IDOCK:   -6.75 KCAL/MOL
REMARK 922        TOTAL FREE ENERGY PREDICTED BY IDOCK:   -8.97 KCAL/MOL
REMARK 923 INTER-LIGAND FREE ENERGY PREDICTED BY IDOCK:   -8.89 KCAL/MOL
REMARK 924 INTRA-LIGAND FREE ENERGY PREDICTED BY IDOCK:   -0.08 KCAL/MOL
REMARK 927      BINDING AFFINITY PREDICTED BY RF-SCORE:    0.00 PKD
ROOT
HETATM    1  O   UNL     1     -10.588  13.637  64.348  1.00  0.00    -0.423 OA 
HETATM    2  S   UNL     1     -11.893  14.581  64.317  1.00  0.00    -0.289 S  
HETATM    3  N   UNL     2      -8.372  12.678  67.238  1.00  0.00    -0.184 NA 
HETATM    4  H1  UNL     2      -8.787  12.061  66.540  1.00  0.00     0.000 HD 
HETATM    5  H2  UNL     2      -7.398  12.976  67.178  1.00  0.00     0.000 HD 
HETATM    6  C   UNL     2      -9.172  13.079  68.239  1.00  0.00    -0.191 C  
HETATM    7  N   UNL     3      -8.955  15.404  65.943  1.00  0.00    -0.421 NA 
HETATM    8  O   UNL     1     -11.236  15.974  63.872  1.00  0.00    -0.468 OA 
HETATM    9  O   UNL     1     -12.762  14.098  63.270  1.00  0.00    -0.714 OA 
HETATM   10  O   UNL     1     -12.332  14.729  65.677  1.00  0.00    -0.186 OA 
HETATM   11  C   UNL     3      -9.612  16.310  66.701  1.00  0.00    -0.246 C  
HETATM   12  H1  UNL     3      -8.668  15.582  64.980  1.00  0.00     0.000 HD 
HETATM   13  H2  UNL     3      -8.736  14.497  66.354  1.00  0.00     0.000 HD 
HETATM   14  N   UNL     2     -10.490  12.869  68.149  1.00  0.00    -0.230 NA 
HETATM   15  N   UNL     2      -8.649  13.856  69.118  1.00  0.00    -0.339 NA 
HETATM   16  H2  UNL     2      -7.675  14.154  69.058  1.00  0.00     0.000 HD 
HETATM   17  H   UNL     2     -11.057  13.368  68.835  1.00  0.00     0.000 HD 
HETATM   18  N   UNL     3      -9.972  16.088  67.908  1.00  0.00    -0.231 NA 
HETATM   19  N   UNL     3      -9.936  17.445  66.042  1.00  0.00    -0.494 NA 
HETATM   20  H2  UNL     3      -9.752  15.181  68.320  1.00  0.00     0.000 HD 
HETATM   21  H1  UNL     2      -9.257  14.161  69.879  1.00  0.00     0.000 HD 
HETATM   22  H1  UNL     3     -10.468  16.771  68.480  1.00  0.00     0.000 HD 
HETATM   23  H   UNL     3     -10.030  17.475  65.026  1.00  0.00     0.000 HD 
ENDROOT
BRANCH  14  24
HETATM   24  C   UNL     2     -11.235  12.038  67.221  1.00  0.00    -0.311 C  
BRANCH  24  25
HETATM   25  C   UNL     2     -10.600  10.662  67.117  1.00  0.00    -0.312 A  
HETATM   26  I   UNL     2      -8.160   8.483  64.233  1.00  0.00    -0.068 I  
HETATM   27  C   UNL     2     -10.766   9.716  68.144  1.00  0.00    -0.266 A  
HETATM   28  C   UNL     2      -9.828  10.306  65.995  1.00  0.00    -0.292 A  
HETATM   29  C   UNL     2     -10.242   8.431  68.029  1.00  0.00    -0.263 A  
HETATM   30  C   UNL     2      -9.286   9.022  65.898  1.00  0.00    -0.230 A  
HETATM   31  C   UNL     2      -9.500   8.080  66.906  1.00  0.00    -0.244 A  
ENDBRANCH  24  25
ENDBRANCH  14  24
BRANCH  19  32
HETATM   32  C   UNL     3     -10.142  18.624  66.873  1.00  0.00    -0.366 C  
BRANCH  32  33
HETATM   33  C   UNL     3      -8.879  19.406  67.092  1.00  0.00    -0.339 A  
HETATM   34  C   UNL     3      -6.310  20.497  67.436  1.00  0.00    -0.288 A  
HETATM   35  C   UNL     3      -8.126  19.808  65.989  1.00  0.00    -0.334 A  
HETATM   36  I   UNL     3      -5.692  20.750  64.482  1.00  0.00    -0.304 I  
HETATM   37  C   UNL     3      -7.077  20.165  68.551  1.00  0.00    -0.264 A  
HETATM   38  C   UNL     3      -6.842  20.325  66.160  1.00  0.00    -0.250 A  
HETATM   39  C   UNL     3      -8.351  19.615  68.383  1.00  0.00    -0.346 A  
ENDBRANCH  32  33
ENDBRANCH  19  32
TORSDOF 4
ENDMDL
MODEL       36
REMARK 921   NORMALIZED FREE ENERGY PREDICTED BY IDOCK:   -6.73 KCAL/MOL
REMARK 922        TOTAL FREE ENERGY PREDICTED BY IDOCK:   -8.95 KCAL/MOL
REMARK 923 INTER-LIGAND FREE ENERGY PREDICTED BY IDOCK:   -8.02 KCAL/MOL
REMARK 924 INTRA-LIGAND FREE ENERGY PREDICTED BY IDOCK:   -0.93 KCAL/MOL
REMARK 927      BINDING AFFINITY PREDICTED BY RF-SCORE:    0.00 PKD
ROOT
HETATM    1  O   UNL     1      -8.492  14.315  67.072  1.00  0.00    -0.210 OA 
HETATM    2  S   UNL     1      -8.009  13.093  68.002  1.00  0.00    -0.169 S  
HETATM    3  N   UNL     2     -11.703  14.768  65.158  1.00  0.00    -0.355 NA 
HETATM    4  H1  UNL     2     -11.250  15.437  65.781  1.00  0.00     0.000 HD 
HETATM    5  H2  UNL     2     -11.619  14.837  64.144  1.00  0.00     0.000 HD 
HETATM    6  C   UNL     2     -12.418  13.792  65.741  1.00  0.00    -0.485 C  
HETATM    7  N   UNL     3      -9.453  12.692  64.887  1.00  0.00    -0.374 NA 
HETATM    8  O   UNL     1      -7.137  12.251  66.951  1.00  0.00    -0.081 OA 
HETATM    9  O   UNL     1      -7.145  13.632  69.026  1.00  0.00    -0.110 OA 
HETATM   10  O   UNL     1      -9.178  12.316  68.309  1.00  0.00    -0.196 OA 
HETATM   11  C   UNL     3      -9.768  11.411  65.183  1.00  0.00    -0.244 C  
HETATM   12  H1  UNL     3      -8.520  12.988  64.601  1.00  0.00     0.000 HD 
HETATM   13  H2  UNL     3     -10.186  13.398  64.954  1.00  0.00     0.000 HD 
HETATM   14  N   UNL     2     -12.303  13.592  67.059  1.00  0.00    -0.371 NA 
HETATM   15  N   UNL     2     -12.988  12.949  64.957  1.00  0.00    -0.815 NA 
HETATM   16  H2  UNL     2     -12.904  13.018  63.943  1.00  0.00     0.000 HD 
HETATM   17  H   UNL     2     -12.708  12.721  67.403  1.00  0.00     0.000 HD 
HETATM   18  N   UNL     3     -10.937  11.039  65.541  1.00  0.00    -0.089 NA 
HETATM   19  N   UNL     3      -8.713  10.566  65.151  1.00  0.00    -0.182 NA 
HETATM   20  H2  UNL     3     -11.671  11.745  65.608  1.00  0.00     0.000 HD 
HETATM   21  H1  UNL     2     -13.531  12.207  65.400  1.00  0.00     0.000 HD 
HETATM   22  H1  UNL     3     -11.175  10.073  65.765  1.00  0.00     0.000 HD 
HETATM   23  H   UNL     3      -7.754  10.890  65.276  1.00  0.00     0.000 HD 
ENDROOT
BRANCH  14  24
HETATM   24  C   UNL     2     -11.688  14.430  68.072  1.00  0.00    -0.340 C  
BRANCH  24  25
HETATM   25  C   UNL     2     -12.109  13.977  69.460  1.00  0.00    -0.397 A  
HETATM   26  I   UNL     2     -12.788  15.829  73.350  1.00  0.00    -0.745 I  
HETATM   27  C   UNL     2     -12.373  12.622  69.724  1.00  0.00    -0.090 A  
HETATM   28  C   UNL     2     -12.249  14.905  70.510  1.00  0.00    -0.388 A  
HETATM   29  C   UNL     2     -12.697  12.189  71.007  1.00  0.00    -0.322 A  
HETATM   30  C   UNL     2     -12.598  14.466  71.789  1.00  0.00    -0.351 A  
HETATM   31  C   UNL     2     -12.811  13.110  72.044  1.00  0.00    -0.304 A  
ENDBRANCH  24  25
ENDBRANCH  14  24
BRANCH  19  32
HETATM   32  C   UNL     3      -9.032   9.162  64.929  1.00  0.00    -0.151 C  
BRANCH  32  33
HETATM   33  C   UNL     3      -8.639   8.289  66.086  1.00  0.00    -0.156 A  
HETATM   34  C   UNL     3      -8.000   6.993  68.498  1.00  0.00    -0.123 A  
HETATM   35  C   UNL     3      -9.633   7.671  66.843  1.00  0.00    -0.249 A  
HETATM   36  I   UNL     3     -10.855   6.295  69.229  1.00  0.00    -0.432 I  
HETATM   37  C   UNL     3      -6.986   7.544  67.718  1.00  0.00    -0.080 A  
HETATM   38  C   UNL     3      -9.319   7.051  68.052  1.00  0.00    -0.127 A  
HETATM   39  C   UNL     3      -7.301   8.196  66.522  1.00  0.00    -0.081 A  
ENDBRANCH  32  33
ENDBRANCH  19  32
TORSDOF 4
ENDMDL
MODEL       37
REMARK 921   NORMALIZED FREE ENERGY PREDICTED BY IDOCK:   -6.71 KCAL/MOL
REMARK 922        TOTAL FREE ENERGY PREDICTED BY IDOCK:   -8.92 KCAL/MOL
REMARK 923 INTER-LIGAND FREE ENERGY PREDICTED BY IDOCK:   -8.05 KCAL/MOL
REMARK 924 INTRA-LIGAND FREE ENERGY PREDICTED BY IDOCK:   -0.87 KCAL/MOL
REMARK 927      BINDING AFFINITY PREDICTED BY RF-SCORE:    0.00 PKD
ROOT
HETATM    1  O   UNL     1      -7.940   7.832  71.934  1.00  0.00    -0.093 OA 
HETATM    2  S   UNL     1      -7.652   8.306  70.423  1.00  0.00    -0.078 S  
HETATM    3  N   UNL     2     -11.051   6.337  73.441  1.00  0.00    -0.462 NA 
HETATM    4  H1  UNL     2     -10.092   6.001  73.532  1.00  0.00     0.000 HD 
HETATM    5  H2  UNL     2     -11.501   6.880  74.178  1.00  0.00     0.000 HD 
HETATM    6  C   UNL     2     -11.691   6.028  72.302  1.00  0.00    -0.284 C  
HETATM    7  N   UNL     3     -10.528   9.087  72.172  1.00  0.00    -0.260 NA 
HETATM    8  O   UNL     1      -7.971   9.873  70.541  1.00  0.00    -0.246 OA 
HETATM    9  O   UNL     1      -6.244   8.117  70.162  1.00  0.00    -0.032 OA 
HETATM   10  O   UNL     1      -8.673   7.720  69.600  1.00  0.00    -0.134 OA 
HETATM   11  C   UNL     3     -11.175   9.357  71.016  1.00  0.00    -0.342 C  
HETATM   12  H1  UNL     3      -9.881   9.738  72.617  1.00  0.00     0.000 HD 
HETATM   13  H2  UNL     3     -10.696   8.187  72.622  1.00  0.00     0.000 HD 
HETATM   14  N   UNL     2     -10.995   5.535  71.271  1.00  0.00    -0.182 NA 
HETATM   15  N   UNL     2     -12.899   6.451  72.187  1.00  0.00    -0.483 NA 
HETATM   16  H2  UNL     2     -13.349   6.994  72.925  1.00  0.00     0.000 HD 
HETATM   17  H   UNL     2     -11.495   5.512  70.381  1.00  0.00     0.000 HD 
HETATM   18  N   UNL     3     -11.986   8.542  70.458  1.00  0.00    -0.487 NA 
HETATM   19  N   UNL     3     -10.821  10.534  70.452  1.00  0.00    -0.447 NA 
HETATM   20  H2  UNL     3     -12.155   7.642  70.908  1.00  0.00     0.000 HD 
HETATM   21  H1  UNL     2     -13.386   6.217  71.322  1.00  0.00     0.000 HD 
HETATM   22  H1  UNL     3     -12.474   8.745  69.586  1.00  0.00     0.000 HD 
HETATM   23  H   UNL     3      -9.922  10.978  70.642  1.00  0.00     0.000 HD 
ENDROOT
BRANCH  14  24
HETATM   24  C   UNL     2      -9.636   5.029  71.229  1.00  0.00    -0.165 C  
BRANCH  24  25
HETATM   25  C   UNL     2      -9.475   4.036  70.090  1.00  0.00    -0.258 A  
HETATM   26  I   UNL     2      -9.525   4.147  65.731  1.00  0.00    -0.207 I  
HETATM   27  C   UNL     2      -9.261   2.672  70.352  1.00  0.00    -0.200 A  
HETATM   28  C   UNL     2      -9.532   4.461  68.749  1.00  0.00    -0.227 A  
HETATM   29  C   UNL     2      -9.176   1.745  69.317  1.00  0.00    -0.176 A  
HETATM   30  C   UNL     2      -9.423   3.529  67.715  1.00  0.00    -0.178 A  
HETATM   31  C   UNL     2      -9.256   2.171  67.994  1.00  0.00    -0.242 A  
ENDBRANCH  24  25
ENDBRANCH  14  24
BRANCH  19  32
HETATM   32  C   UNL     3     -11.803  11.127  69.553  1.00  0.00    -0.353 C  
BRANCH  32  33
HETATM   33  C   UNL     3     -11.275  11.311  68.160  1.00  0.00    -0.351 A  
HETATM   34  C   UNL     3     -10.656  11.479  65.422  1.00  0.00    -0.336 A  
HETATM   35  C   UNL     3     -11.728  12.385  67.395  1.00  0.00    -0.417 A  
HETATM   36  I   UNL     3     -12.282  13.980  64.899  1.00  0.00    -0.431 I  
HETATM   37  C   UNL     3     -10.138  10.436  66.187  1.00  0.00    -0.299 A  
HETATM   38  C   UNL     3     -11.443  12.454  66.032  1.00  0.00    -0.382 A  
HETATM   39  C   UNL     3     -10.449  10.346  67.546  1.00  0.00    -0.292 A  
ENDBRANCH  32  33
ENDBRANCH  19  32
TORSDOF 4
ENDMDL
MODEL       38
REMARK 921   NORMALIZED FREE ENERGY PREDICTED BY IDOCK:   -6.68 KCAL/MOL
REMARK 922        TOTAL FREE ENERGY PREDICTED BY IDOCK:   -8.89 KCAL/MOL
REMARK 923 INTER-LIGAND FREE ENERGY PREDICTED BY IDOCK:   -8.23 KCAL/MOL
REMARK 924 INTRA-LIGAND FREE ENERGY PREDICTED BY IDOCK:   -0.66 KCAL/MOL
REMARK 927      BINDING AFFINITY PREDICTED BY RF-SCORE:    0.00 PKD
ROOT
HETATM    1  O   UNL     1     -10.666  12.764  68.129  1.00  0.00    -0.213 OA 
HETATM    2  S   UNL     1      -9.069  12.589  68.032  1.00  0.00    -0.203 S  
HETATM    3  N   UNL     2     -13.120  13.990  65.548  1.00  0.00    -0.681 NA 
HETATM    4  H1  UNL     2     -13.190  13.151  66.124  1.00  0.00     0.000 HD 
HETATM    5  H2  UNL     2     -13.630  14.843  65.779  1.00  0.00     0.000 HD 
HETATM    6  C   UNL     2     -12.323  13.915  64.470  1.00  0.00    -0.372 C  
HETATM    7  N   UNL     3     -10.769  15.395  66.944  1.00  0.00    -0.311 NA 
HETATM    8  O   UNL     1      -8.582  13.973  68.679  1.00  0.00    -0.163 OA 
HETATM    9  O   UNL     1      -8.692  11.492  68.892  1.00  0.00    -0.090 OA 
HETATM   10  O   UNL     1      -8.730  12.625  66.636  1.00  0.00    -0.179 OA 
HETATM   11  C   UNL     3      -9.721  15.746  66.167  1.00  0.00    -0.322 C  
HETATM   12  H1  UNL     3     -10.801  15.560  67.950  1.00  0.00     0.000 HD 
HETATM   13  H2  UNL     3     -11.569  14.941  66.503  1.00  0.00     0.000 HD 
HETATM   14  N   UNL     2     -11.491  12.876  64.340  1.00  0.00    -0.337 NA 
HETATM   15  N   UNL     2     -12.235  14.972  63.744  1.00  0.00    -1.008 NA 
HETATM   16  H2  UNL     2     -12.746  15.825  63.975  1.00  0.00     0.000 HD 
HETATM   17  H   UNL     2     -10.779  12.977  63.615  1.00  0.00     0.000 HD 
HETATM   18  N   UNL     3      -9.681  15.539  64.906  1.00  0.00    -0.174 NA 
HETATM   19  N   UNL     3      -8.676  16.258  66.854  1.00  0.00    -0.190 NA 
HETATM   20  H2  UNL     3     -10.481  15.085  64.463  1.00  0.00     0.000 HD 
HETATM   21  H1  UNL     2     -11.630  14.915  62.925  1.00  0.00     0.000 HD 
HETATM   22  H1  UNL     3      -8.890  15.803  64.318  1.00  0.00     0.000 HD 
HETATM   23  H   UNL     3      -8.524  16.055  67.842  1.00  0.00     0.000 HD 
ENDROOT
BRANCH  14  24
HETATM   24  C   UNL     2     -11.448  11.626  65.076  1.00  0.00    -0.120 C  
BRANCH  24  25
HETATM   25  C   UNL     2     -10.334  10.738  64.548  1.00  0.00    -0.401 A  
HETATM   26  I   UNL     2      -7.985   7.364  66.002  1.00  0.00    -0.135 I  
HETATM   27  C   UNL     2      -9.798  10.945  63.265  1.00  0.00    -0.409 A  
HETATM   28  C   UNL     2      -9.818   9.687  65.330  1.00  0.00    -0.322 A  
HETATM   29  C   UNL     2      -8.734  10.178  62.798  1.00  0.00    -0.213 A  
HETATM   30  C   UNL     2      -8.766   8.907  64.845  1.00  0.00    -0.149 A  
HETATM   31  C   UNL     2      -8.215   9.156  63.586  1.00  0.00    -0.174 A  
ENDBRANCH  24  25
ENDBRANCH  14  24
BRANCH  19  32
HETATM   32  C   UNL     3      -7.779  17.119  66.095  1.00  0.00    -0.267 C  
BRANCH  32  33
HETATM   33  C   UNL     3      -7.217  18.241  66.920  1.00  0.00    -0.227 A  
HETATM   34  C   UNL     3      -6.506  20.281  68.720  1.00  0.00    -0.334 A  
HETATM   35  C   UNL     3      -6.509  17.944  68.083  1.00  0.00    -0.189 A  
HETATM   36  I   UNL     3      -5.277  18.441  70.788  1.00  0.00    -0.146 I  
HETATM   37  C   UNL     3      -7.151  20.603  67.528  1.00  0.00    -0.391 A  
HETATM   38  C   UNL     3      -6.180  18.953  68.988  1.00  0.00    -0.247 A  
HETATM   39  C   UNL     3      -7.513  19.591  66.635  1.00  0.00    -0.264 A  
ENDBRANCH  32  33
ENDBRANCH  19  32
TORSDOF 4
ENDMDL
MODEL       39
REMARK 921   NORMALIZED FREE ENERGY PREDICTED BY IDOCK:   -6.66 KCAL/MOL
REMARK 922        TOTAL FREE ENERGY PREDICTED BY IDOCK:   -8.86 KCAL/MOL
REMARK 923 INTER-LIGAND FREE ENERGY PREDICTED BY IDOCK:   -8.30 KCAL/MOL
REMARK 924 INTRA-LIGAND FREE ENERGY PREDICTED BY IDOCK:   -0.57 KCAL/MOL
REMARK 927      BINDING AFFINITY PREDICTED BY RF-SCORE:    0.00 PKD
ROOT
HETATM    1  O   UNL     1     -12.783  14.292  69.089  1.00  0.00     0.041 OA 
HETATM    2  S   UNL     1     -11.916  15.283  70.016  1.00  0.00    -0.365 S  
HETATM    3  N   UNL     2     -11.719  11.225  67.181  1.00  0.00    -0.502 NA 
HETATM    4  H1  UNL     2     -12.521  11.323  67.804  1.00  0.00     0.000 HD 
HETATM    5  H2  UNL     2     -11.820  11.266  66.167  1.00  0.00     0.000 HD 
HETATM    6  C   UNL     2     -10.524  11.037  67.764  1.00  0.00    -0.199 C  
HETATM    7  N   UNL     3     -10.900  14.174  66.904  1.00  0.00    -0.293 NA 
HETATM    8  O   UNL     1     -11.566  16.440  68.963  1.00  0.00    -0.276 OA 
HETATM    9  O   UNL     1     -12.790  15.807  71.039  1.00  0.00    -0.475 OA 
HETATM   10  O   UNL     1     -10.691  14.598  70.325  1.00  0.00    -0.055 OA 
HETATM   11  C   UNL     3      -9.617  14.480  67.198  1.00  0.00    -0.231 C  
HETATM   12  H1  UNL     3     -11.590  14.869  66.616  1.00  0.00     0.000 HD 
HETATM   13  H2  UNL     3     -11.194  13.200  66.973  1.00  0.00     0.000 HD 
HETATM   14  N   UNL     2     -10.398  11.233  69.082  1.00  0.00    -0.368 NA 
HETATM   15  N   UNL     2      -9.514  10.912  66.980  1.00  0.00    -0.164 NA 
HETATM   16  H2  UNL     2      -9.615  10.954  65.965  1.00  0.00     0.000 HD 
HETATM   17  H   UNL     2      -9.438  11.271  69.425  1.00  0.00     0.000 HD 
HETATM   18  N   UNL     3      -8.752  13.611  67.558  1.00  0.00    -0.185 NA 
HETATM   19  N   UNL     3      -9.348  15.805  67.163  1.00  0.00    -0.210 NA 
HETATM   20  H2  UNL     3      -9.045  12.636  67.627  1.00  0.00     0.000 HD 
HETATM   21  H1  UNL     2      -8.606  10.770  67.422  1.00  0.00     0.000 HD 
HETATM   22  H1  UNL     3      -7.784  13.841  67.780  1.00  0.00     0.000 HD 
HETATM   23  H   UNL     3     -10.075  16.510  67.287  1.00  0.00     0.000 HD 
ENDROOT
BRANCH  14  24
HETATM   24  C   UNL     2     -11.424  11.399  70.095  1.00  0.00    -0.214 C  
BRANCH  24  25
HETATM   25  C   UNL     2     -11.819  10.052  70.675  1.00  0.00    -0.411 A  
HETATM   26  I   UNL     2     -10.135   6.032  70.837  1.00  0.00    -0.283 I  
HETATM   27  C   UNL     2     -13.035   9.895  71.362  1.00  0.00    -0.504 A  
HETATM   28  C   UNL     2     -10.973   8.933  70.542  1.00  0.00    -0.280 A  
HETATM   29  C   UNL     2     -13.434   8.650  71.841  1.00  0.00    -0.433 A  
HETATM   30  C   UNL     2     -11.370   7.693  71.047  1.00  0.00    -0.272 A  
HETATM   31  C   UNL     2     -12.603   7.545  71.686  1.00  0.00    -0.376 A  
ENDBRANCH  24  25
ENDBRANCH  14  24
BRANCH  19  32
HETATM   32  C   UNL     3      -7.953  16.162  66.940  1.00  0.00    -0.244 C  
BRANCH  32  33
HETATM   33  C   UNL     3      -7.722  17.645  66.979  1.00  0.00    -0.234 A  
HETATM   34  C   UNL     3      -7.564  20.423  67.385  1.00  0.00    -0.364 A  
HETATM   35  C   UNL     3      -6.847  18.174  67.928  1.00  0.00    -0.211 A  
HETATM   36  I   UNL     3      -5.599  20.280  69.685  1.00  0.00    -0.396 I  
HETATM   37  C   UNL     3      -8.391  19.915  66.386  1.00  0.00    -0.368 A  
HETATM   38  C   UNL     3      -6.789  19.550  68.146  1.00  0.00    -0.271 A  
HETATM   39  C   UNL     3      -8.478  18.534  66.187  1.00  0.00    -0.153 A  
ENDBRANCH  32  33
ENDBRANCH  19  32
TORSDOF 4
ENDMDL
MODEL       40
REMARK 921   NORMALIZED FREE ENERGY PREDICTED BY IDOCK:   -6.65 KCAL/MOL
REMARK 922        TOTAL FREE ENERGY PREDICTED BY IDOCK:   -8.86 KCAL/MOL
REMARK 923 INTER-LIGAND FREE ENERGY PREDICTED BY IDOCK:   -8.45 KCAL/MOL
REMARK 924 INTRA-LIGAND FREE ENERGY PREDICTED BY IDOCK:   -0.41 KCAL/MOL
REMARK 927      BINDING AFFINITY PREDICTED BY RF-SCORE:    0.00 PKD
ROOT
HETATM    1  O   UNL     1      -8.610   8.332  68.267  1.00  0.00    -0.131 OA 
HETATM    2  S   UNL     1      -9.307   8.243  66.818  1.00  0.00    -0.197 S  
HETATM    3  N   UNL     2     -10.128   9.083  71.631  1.00  0.00    -0.338 NA 
HETATM    4  H1  UNL     2      -9.497   8.319  71.389  1.00  0.00     0.000 HD 
HETATM    5  H2  UNL     2      -9.794   9.926  72.099  1.00  0.00     0.000 HD 
HETATM    6  C   UNL     2     -11.420   8.925  71.302  1.00  0.00    -0.299 C  
HETATM    7  N   UNL     3      -9.892  10.787  69.084  1.00  0.00    -0.308 NA 
HETATM    8  O   UNL     1      -9.028   9.722  66.266  1.00  0.00    -0.146 OA 
HETATM    9  O   UNL     1      -8.567   7.285  66.031  1.00  0.00    -0.141 OA 
HETATM   10  O   UNL     1     -10.722   8.128  67.042  1.00  0.00    -0.321 OA 
HETATM   11  C   UNL     3     -11.045  11.103  68.453  1.00  0.00    -0.247 C  
HETATM   12  H1  UNL     3      -8.972  11.073  68.746  1.00  0.00     0.000 HD 
HETATM   13  H2  UNL     3      -9.943  10.236  69.940  1.00  0.00     0.000 HD 
HETATM   14  N   UNL     2     -11.771   7.930  70.480  1.00  0.00    -0.458 NA 
HETATM   15  N   UNL     2     -12.214   9.888  71.607  1.00  0.00    -0.401 NA 
HETATM   16  H2  UNL     2     -11.880  10.731  72.075  1.00  0.00     0.000 HD 
HETATM   17  H   UNL     2     -12.721   7.984  70.113  1.00  0.00     0.000 HD 
HETATM   18  N   UNL     3     -12.197  10.745  68.875  1.00  0.00    -0.795 NA 
HETATM   19  N   UNL     3     -10.868  11.758  67.283  1.00  0.00    -0.239 NA 
HETATM   20  H2  UNL     3     -12.250  10.194  69.732  1.00  0.00     0.000 HD 
HETATM   21  H1  UNL     2     -13.196   9.768  71.357  1.00  0.00     0.000 HD 
HETATM   22  H1  UNL     3     -13.068  10.983  68.400  1.00  0.00     0.000 HD 
HETATM   23  H   UNL     3     -10.004  11.686  66.746  1.00  0.00     0.000 HD 
ENDROOT
BRANCH  14  24
HETATM   24  C   UNL     2     -11.001   6.784  70.032  1.00  0.00    -0.295 C  
BRANCH  24  25
HETATM   25  C   UNL     2     -10.828   5.787  71.165  1.00  0.00    -0.316 A  
HETATM   26  I   UNL     2      -8.019   2.626  72.233  1.00  0.00    -0.055 I  
HETATM   27  C   UNL     2     -11.751   5.737  72.225  1.00  0.00    -0.265 A  
HETATM   28  C   UNL     2      -9.738   4.896  71.183  1.00  0.00    -0.245 A  
HETATM   29  C   UNL     2     -11.636   4.785  73.234  1.00  0.00    -0.286 A  
HETATM   30  C   UNL     2      -9.617   3.959  72.212  1.00  0.00    -0.142 A  
HETATM   31  C   UNL     2     -10.568   3.893  73.231  1.00  0.00    -0.272 A  
ENDBRANCH  24  25
ENDBRANCH  14  24
BRANCH  19  32
HETATM   32  C   UNL     3     -11.992  12.571  66.837  1.00  0.00    -0.236 C  
BRANCH  32  33
HETATM   33  C   UNL     3     -11.561  13.747  66.008  1.00  0.00    -0.361 A  
HETATM   34  C   UNL     3     -10.958  16.188  64.749  1.00  0.00    -0.330 A  
HETATM   35  C   UNL     3     -10.457  14.497  66.409  1.00  0.00    -0.295 A  
HETATM   36  I   UNL     3      -8.621  16.882  66.546  1.00  0.00    -0.312 I  
HETATM   37  C   UNL     3     -12.024  15.417  64.291  1.00  0.00    -0.198 A  
HETATM   38  C   UNL     3     -10.173  15.720  65.802  1.00  0.00    -0.370 A  
HETATM   39  C   UNL     3     -12.331  14.207  64.919  1.00  0.00    -0.446 A  
ENDBRANCH  32  33
ENDBRANCH  19  32
TORSDOF 4
ENDMDL
MODEL       41
REMARK 921   NORMALIZED FREE ENERGY PREDICTED BY IDOCK:   -6.65 KCAL/MOL
REMARK 922        TOTAL FREE ENERGY PREDICTED BY IDOCK:   -8.85 KCAL/MOL
REMARK 923 INTER-LIGAND FREE ENERGY PREDICTED BY IDOCK:   -8.00 KCAL/MOL
REMARK 924 INTRA-LIGAND FREE ENERGY PREDICTED BY IDOCK:   -0.86 KCAL/MOL
REMARK 927      BINDING AFFINITY PREDICTED BY RF-SCORE:    0.00 PKD
ROOT
HETATM    1  O   UNL     1     -12.349  15.549  68.779  1.00  0.00    -0.116 OA 
HETATM    2  S   UNL     1     -11.176  15.867  69.835  1.00  0.00    -0.373 S  
HETATM    3  N   UNL     2     -12.326  13.308  65.752  1.00  0.00    -0.451 NA 
HETATM    4  H1  UNL     2     -13.024  13.342  66.496  1.00  0.00     0.000 HD 
HETATM    5  H2  UNL     2     -12.481  13.763  64.852  1.00  0.00     0.000 HD 
HETATM    6  C   UNL     2     -11.196  12.633  66.017  1.00  0.00    -0.306 C  
HETATM    7  N   UNL     3     -10.731  15.852  66.408  1.00  0.00    -0.291 NA 
HETATM    8  O   UNL     1     -10.588  17.225  69.220  1.00  0.00    -0.319 OA 
HETATM    9  O   UNL     1     -11.795  16.141  71.111  1.00  0.00    -0.422 OA 
HETATM   10  O   UNL     1     -10.176  14.850  69.666  1.00  0.00    -0.187 OA 
HETATM   11  C   UNL     3      -9.396  15.709  66.568  1.00  0.00    -0.276 C  
HETATM   12  H1  UNL     3     -11.215  16.744  66.509  1.00  0.00     0.000 HD 
HETATM   13  H2  UNL     3     -11.281  15.025  66.174  1.00  0.00     0.000 HD 
HETATM   14  N   UNL     2     -10.930  12.266  67.275  1.00  0.00    -0.244 NA 
HETATM   15  N   UNL     2     -10.318  12.591  65.079  1.00  0.00    -0.294 NA 
HETATM   16  H2  UNL     2     -10.473  13.046  64.179  1.00  0.00     0.000 HD 
HETATM   17  H   UNL     2      -9.977  11.941  67.441  1.00  0.00     0.000 HD 
HETATM   18  N   UNL     3      -8.789  14.591  66.441  1.00  0.00    -0.475 NA 
HETATM   19  N   UNL     3      -8.767  16.839  66.962  1.00  0.00    -0.196 NA 
HETATM   20  H2  UNL     3      -9.339  13.764  66.207  1.00  0.00     0.000 HD 
HETATM   21  H1  UNL     2      -9.459  12.078  65.280  1.00  0.00     0.000 HD 
HETATM   22  H1  UNL     3      -7.782  14.483  66.562  1.00  0.00     0.000 HD 
HETATM   23  H   UNL     3      -9.255  17.590  67.450  1.00  0.00     0.000 HD 
ENDROOT
BRANCH  14  24
HETATM   24  C   UNL     2     -11.795  12.261  68.441  1.00  0.00    -0.304 C  
BRANCH  24  25
HETATM   25  C   UNL     2     -11.342  11.203  69.432  1.00  0.00    -0.352 A  
HETATM   26  I   UNL     2      -7.950   8.499  69.884  1.00  0.00    -0.120 I  
HETATM   27  C   UNL     2     -12.129  10.884  70.552  1.00  0.00    -0.464 A  
HETATM   28  C   UNL     2     -10.123  10.522  69.253  1.00  0.00    -0.244 A  
HETATM   29  C   UNL     2     -11.754   9.872  71.431  1.00  0.00    -0.449 A  
HETATM   30  C   UNL     2      -9.741   9.523  70.152  1.00  0.00    -0.246 A  
HETATM   31  C   UNL     2     -10.558   9.189  71.234  1.00  0.00    -0.399 A  
ENDBRANCH  24  25
ENDBRANCH  14  24
BRANCH  19  32
HETATM   32  C   UNL     3      -7.347  16.917  66.646  1.00  0.00    -0.263 C  
BRANCH  32  33
HETATM   33  C   UNL     3      -6.480  16.921  67.872  1.00  0.00    -0.152 A  
HETATM   34  C   UNL     3      -5.226  16.899  70.388  1.00  0.00    -0.223 A  
HETATM   35  C   UNL     3      -6.202  15.715  68.514  1.00  0.00    -0.101 A  
HETATM   36  I   UNL     3      -5.363  13.897  70.766  1.00  0.00    -0.198 I  
HETATM   37  C   UNL     3      -5.434  18.108  69.729  1.00  0.00    -0.216 A  
HETATM   38  C   UNL     3      -5.603  15.707  69.773  1.00  0.00    -0.123 A  
HETATM   39  C   UNL     3      -6.064  18.123  68.481  1.00  0.00    -0.192 A  
ENDBRANCH  32  33
ENDBRANCH  19  32
TORSDOF 4
ENDMDL
MODEL       42
REMARK 921   NORMALIZED FREE ENERGY PREDICTED BY IDOCK:   -6.63 KCAL/MOL
REMARK 922        TOTAL FREE ENERGY PREDICTED BY IDOCK:   -8.82 KCAL/MOL
REMARK 923 INTER-LIGAND FREE ENERGY PREDICTED BY IDOCK:   -7.95 KCAL/MOL
REMARK 924 INTRA-LIGAND FREE ENERGY PREDICTED BY IDOCK:   -0.87 KCAL/MOL
REMARK 927      BINDING AFFINITY PREDICTED BY RF-SCORE:    0.00 PKD
ROOT
HETATM    1  O   UNL     1     -10.066  13.618  65.814  1.00  0.00    -0.295 OA 
HETATM    2  S   UNL     1     -11.372  13.107  66.606  1.00  0.00    -0.340 S  
HETATM    3  N   UNL     2      -6.582  14.277  67.082  1.00  0.00    -0.349 NA 
HETATM    4  H1  UNL     2      -6.854  13.738  66.260  1.00  0.00     0.000 HD 
HETATM    5  H2  UNL     2      -6.248  15.238  67.006  1.00  0.00     0.000 HD 
HETATM    6  C   UNL     2      -6.685  13.658  68.269  1.00  0.00    -0.108 C  
HETATM    7  N   UNL     3      -9.273  15.600  67.758  1.00  0.00    -0.193 NA 
HETATM    8  O   UNL     1     -12.088  14.506  66.925  1.00  0.00    -0.399 OA 
HETATM    9  O   UNL     1     -12.181  12.349  65.680  1.00  0.00    -0.599 OA 
HETATM   10  O   UNL     1     -10.916  12.564  67.855  1.00  0.00    -0.211 OA 
HETATM   11  C   UNL     3      -9.737  15.428  69.016  1.00  0.00    -0.239 C  
HETATM   12  H1  UNL     3      -9.776  16.124  67.042  1.00  0.00     0.000 HD 
HETATM   13  H2  UNL     3      -8.375  15.184  67.513  1.00  0.00     0.000 HD 
HETATM   14  N   UNL     2      -7.351  12.501  68.350  1.00  0.00    -0.108 NA 
HETATM   15  N   UNL     2      -6.343  14.337  69.304  1.00  0.00    -0.103 NA 
HETATM   16  H2  UNL     2      -6.009  15.299  69.229  1.00  0.00     0.000 HD 
HETATM   17  H   UNL     2      -7.565  12.188  69.297  1.00  0.00     0.000 HD 
HETATM   18  N   UNL     3      -9.106  14.772  69.914  1.00  0.00    -0.274 NA 
HETATM   19  N   UNL     3     -10.972  15.939  69.219  1.00  0.00    -0.269 NA 
HETATM   20  H2  UNL     3      -8.208  14.356  69.669  1.00  0.00     0.000 HD 
HETATM   21  H1  UNL     2      -6.422  13.867  70.207  1.00  0.00     0.000 HD 
HETATM   22  H1  UNL     3      -9.456  14.642  70.863  1.00  0.00     0.000 HD 
HETATM   23  H   UNL     3     -11.632  16.084  68.455  1.00  0.00     0.000 HD 
ENDROOT
BRANCH  14  24
HETATM   24  C   UNL     2      -7.815  11.623  67.290  1.00  0.00    -0.157 C  
BRANCH  24  25
HETATM   25  C   UNL     2      -8.561  10.436  67.875  1.00  0.00    -0.118 A  
HETATM   26  I   UNL     2      -9.019   8.569  71.789  1.00  0.00    -0.234 I  
HETATM   27  C   UNL     2      -9.350   9.610  67.055  1.00  0.00    -0.180 A  
HETATM   28  C   UNL     2      -8.484  10.141  69.250  1.00  0.00    -0.167 A  
HETATM   29  C   UNL     2      -9.986   8.484  67.570  1.00  0.00    -0.258 A  
HETATM   30  C   UNL     2      -9.144   9.022  69.762  1.00  0.00    -0.159 A  
HETATM   31  C   UNL     2      -9.886   8.186  68.925  1.00  0.00    -0.178 A  
ENDBRANCH  24  25
ENDBRANCH  14  24
BRANCH  19  32
HETATM   32  C   UNL     3     -11.303  16.268  70.600  1.00  0.00    -0.297 C  
BRANCH  32  33
HETATM   33  C   UNL     3     -12.229  15.267  71.227  1.00  0.00    -0.408 A  
HETATM   34  C   UNL     3     -14.146  13.364  72.012  1.00  0.00    -0.313 A  
HETATM   35  C   UNL     3     -12.000  13.906  71.027  1.00  0.00    -0.262 A  
HETATM   36  I   UNL     3     -12.653  10.966  70.920  1.00  0.00    -0.425 I  
HETATM   37  C   UNL     3     -14.359  14.714  72.283  1.00  0.00    -0.503 A  
HETATM   38  C   UNL     3     -12.962  12.965  71.393  1.00  0.00    -0.270 A  
HETATM   39  C   UNL     3     -13.412  15.663  71.887  1.00  0.00    -0.537 A  
ENDBRANCH  32  33
ENDBRANCH  19  32
TORSDOF 4
ENDMDL
MODEL       43
REMARK 921   NORMALIZED FREE ENERGY PREDICTED BY IDOCK:   -6.62 KCAL/MOL
REMARK 922        TOTAL FREE ENERGY PREDICTED BY IDOCK:   -8.81 KCAL/MOL
REMARK 923 INTER-LIGAND FREE ENERGY PREDICTED BY IDOCK:   -8.25 KCAL/MOL
REMARK 924 INTRA-LIGAND FREE ENERGY PREDICTED BY IDOCK:   -0.56 KCAL/MOL
REMARK 927      BINDING AFFINITY PREDICTED BY RF-SCORE:    0.00 PKD
ROOT
HETATM    1  O   UNL     1      -8.725   9.795  67.951  1.00  0.00    -0.125 OA 
HETATM    2  S   UNL     1      -9.742  10.927  67.425  1.00  0.00    -0.169 S  
HETATM    3  N   UNL     2      -9.440   6.501  69.630  1.00  0.00    -0.145 NA 
HETATM    4  H1  UNL     2      -8.818   6.675  68.840  1.00  0.00     0.000 HD 
HETATM    5  H2  UNL     2      -9.083   6.392  70.580  1.00  0.00     0.000 HD 
HETATM    6  C   UNL     2     -10.753   6.424  69.357  1.00  0.00    -0.289 C  
HETATM    7  N   UNL     3      -9.994   9.393  70.512  1.00  0.00    -0.249 NA 
HETATM    8  O   UNL     1      -9.747  11.924  68.681  1.00  0.00    -0.184 OA 
HETATM    9  O   UNL     1      -9.129  11.579  66.292  1.00  0.00    -0.200 OA 
HETATM   10  O   UNL     1     -11.042  10.319  67.354  1.00  0.00    -0.291 OA 
HETATM   11  C   UNL     3     -11.291   9.763  70.606  1.00  0.00    -0.330 C  
HETATM   12  H1  UNL     3      -9.216  10.025  70.703  1.00  0.00     0.000 HD 
HETATM   13  H2  UNL     3      -9.783   8.434  70.236  1.00  0.00     0.000 HD 
HETATM   14  N   UNL     2     -11.198   6.813  68.157  1.00  0.00    -0.554 NA 
HETATM   15  N   UNL     2     -11.536   6.205  70.352  1.00  0.00    -0.333 NA 
HETATM   16  H2  UNL     2     -11.178   6.095  71.301  1.00  0.00     0.000 HD 
HETATM   17  H   UNL     2     -12.209   6.920  68.083  1.00  0.00     0.000 HD 
HETATM   18  N   UNL     3     -12.266   8.972  70.367  1.00  0.00    -0.451 NA 
HETATM   19  N   UNL     3     -11.468  11.074  70.890  1.00  0.00    -0.260 NA 
HETATM   20  H2  UNL     3     -12.056   8.013  70.091  1.00  0.00     0.000 HD 
HETATM   21  H1  UNL     2     -12.533   6.145  70.145  1.00  0.00     0.000 HD 
HETATM   22  H1  UNL     3     -13.245   9.251  70.437  1.00  0.00     0.000 HD 
HETATM   23  H   UNL     3     -10.758  11.775  70.680  1.00  0.00     0.000 HD 
ENDROOT
BRANCH  14  24
HETATM   24  C   UNL     2     -10.455   7.108  66.945  1.00  0.00    -0.294 C  
BRANCH  24  25
HETATM   25  C   UNL     2      -9.762   5.857  66.432  1.00  0.00    -0.168 A  
HETATM   26  I   UNL     2      -5.663   4.437  65.982  1.00  0.00    -0.024 I  
HETATM   27  C   UNL     2     -10.509   4.782  65.918  1.00  0.00    -0.313 A  
HETATM   28  C   UNL     2      -8.359   5.744  66.466  1.00  0.00    -0.111 A  
HETATM   29  C   UNL     2      -9.881   3.659  65.388  1.00  0.00    -0.085 A  
HETATM   30  C   UNL     2      -7.737   4.603  65.953  1.00  0.00    -0.094 A  
HETATM   31  C   UNL     2      -8.493   3.565  65.404  1.00  0.00    -0.107 A  
ENDBRANCH  24  25
ENDBRANCH  14  24
BRANCH  19  32
HETATM   32  C   UNL     3     -12.738  11.420  71.515  1.00  0.00    -0.357 C  
BRANCH  32  33
HETATM   33  C   UNL     3     -13.048  12.886  71.420  1.00  0.00    -0.331 A  
HETATM   34  C   UNL     3     -13.261  15.690  71.455  1.00  0.00    -0.555 A  
HETATM   35  C   UNL     3     -12.408  13.658  70.451  1.00  0.00    -0.415 A  
HETATM   36  I   UNL     3     -11.384  16.163  69.126  1.00  0.00    -0.173 I  
HETATM   37  C   UNL     3     -13.963  14.930  72.388  1.00  0.00    -0.582 A  
HETATM   38  C   UNL     3     -12.493  15.049  70.485  1.00  0.00    -0.371 A  
HETATM   39  C   UNL     3     -13.854  13.537  72.378  1.00  0.00    -0.687 A  
ENDBRANCH  32  33
ENDBRANCH  19  32
TORSDOF 4
ENDMDL
MODEL       44
REMARK 921   NORMALIZED FREE ENERGY PREDICTED BY IDOCK:   -6.62 KCAL/MOL
REMARK 922        TOTAL FREE ENERGY PREDICTED BY IDOCK:   -8.81 KCAL/MOL
REMARK 923 INTER-LIGAND FREE ENERGY PREDICTED BY IDOCK:   -8.13 KCAL/MOL
REMARK 924 INTRA-LIGAND FREE ENERGY PREDICTED BY IDOCK:   -0.68 KCAL/MOL
REMARK 927      BINDING AFFINITY PREDICTED BY RF-SCORE:    0.00 PKD
ROOT
HETATM    1  O   UNL     1      -9.786  11.826  66.187  1.00  0.00    -0.217 OA 
HETATM    2  S   UNL     1      -8.760  11.001  67.114  1.00  0.00    -0.137 S  
HETATM    3  N   UNL     2     -12.244  14.522  67.118  1.00  0.00    -0.558 NA 
HETATM    4  H1  UNL     2     -11.566  14.534  66.356  1.00  0.00     0.000 HD 
HETATM    5  H2  UNL     2     -13.229  14.311  66.956  1.00  0.00     0.000 HD 
HETATM    6  C   UNL     2     -11.776  14.798  68.346  1.00  0.00    -0.314 C  
HETATM    7  N   UNL     3     -12.071  11.563  67.932  1.00  0.00    -0.605 NA 
HETATM    8  O   UNL     1      -9.622   9.680  67.404  1.00  0.00    -0.142 OA 
HETATM    9  O   UNL     1      -7.611  10.661  66.307  1.00  0.00    -0.126 OA 
HETATM   10  O   UNL     1      -8.646  11.720  68.353  1.00  0.00    -0.160 OA 
HETATM   11  C   UNL     3     -11.808  11.303  69.232  1.00  0.00    -0.354 C  
HETATM   12  H1  UNL     3     -12.194  10.834  67.229  1.00  0.00     0.000 HD 
HETATM   13  H2  UNL     3     -12.149  12.537  67.639  1.00  0.00     0.000 HD 
HETATM   14  N   UNL     2     -10.454  14.826  68.553  1.00  0.00    -0.243 NA 
HETATM   15  N   UNL     2     -12.630  14.783  69.305  1.00  0.00    -0.562 NA 
HETATM   16  H2  UNL     2     -13.615  14.572  69.143  1.00  0.00     0.000 HD 
HETATM   17  H   UNL     2     -10.168  14.841  69.532  1.00  0.00     0.000 HD 
HETATM   18  N   UNL     3     -11.653  12.216  70.114  1.00  0.00    -0.536 NA 
HETATM   19  N   UNL     3     -11.635   9.990  69.505  1.00  0.00    -0.446 NA 
HETATM   20  H2  UNL     3     -11.732  13.191  69.821  1.00  0.00     0.000 HD 
HETATM   21  H1  UNL     2     -12.274  14.993  70.238  1.00  0.00     0.000 HD 
HETATM   22  H1  UNL     3     -11.455  12.021  71.095  1.00  0.00     0.000 HD 
HETATM   23  H   UNL     3     -11.351   9.320  68.790  1.00  0.00     0.000 HD 
ENDROOT
BRANCH  14  24
HETATM   24  C   UNL     2      -9.367  14.839  67.592  1.00  0.00    -0.195 C  
BRANCH  24  25
HETATM   25  C   UNL     2      -8.116  15.433  68.216  1.00  0.00    -0.136 A  
HETATM   26  I   UNL     2      -5.232  14.296  71.284  1.00  0.00    -0.199 I  
HETATM   27  C   UNL     2      -7.639  16.692  67.810  1.00  0.00    -0.172 A  
HETATM   28  C   UNL     2      -7.403  14.734  69.210  1.00  0.00    -0.168 A  
HETATM   29  C   UNL     2      -6.531  17.272  68.420  1.00  0.00    -0.164 A  
HETATM   30  C   UNL     2      -6.278  15.314  69.801  1.00  0.00    -0.155 A  
HETATM   31  C   UNL     2      -5.846  16.584  69.417  1.00  0.00    -0.167 A  
ENDBRANCH  24  25
ENDBRANCH  14  24
BRANCH  19  32
HETATM   32  C   UNL     3     -11.880   9.593  70.885  1.00  0.00    -0.323 C  
BRANCH  32  33
HETATM   33  C   UNL     3     -11.454   8.180  71.165  1.00  0.00    -0.304 A  
HETATM   34  C   UNL     3     -10.255   5.676  71.609  1.00  0.00    -0.261 A  
HETATM   35  C   UNL     3     -10.909   7.866  72.409  1.00  0.00    -0.378 A  
HETATM   36  I   UNL     3      -9.343   6.275  74.434  1.00  0.00    -0.285 I  
HETATM   37  C   UNL     3     -10.857   5.948  70.383  1.00  0.00    -0.378 A  
HETATM   38  C   UNL     3     -10.292   6.634  72.621  1.00  0.00    -0.196 A  
HETATM   39  C   UNL     3     -11.447   7.195  70.156  1.00  0.00    -0.245 A  
ENDBRANCH  32  33
ENDBRANCH  19  32
TORSDOF 4
ENDMDL
MODEL       45
REMARK 921   NORMALIZED FREE ENERGY PREDICTED BY IDOCK:   -6.59 KCAL/MOL
REMARK 922        TOTAL FREE ENERGY PREDICTED BY IDOCK:   -8.78 KCAL/MOL
REMARK 923 INTER-LIGAND FREE ENERGY PREDICTED BY IDOCK:   -8.08 KCAL/MOL
REMARK 924 INTRA-LIGAND FREE ENERGY PREDICTED BY IDOCK:   -0.70 KCAL/MOL
REMARK 927      BINDING AFFINITY PREDICTED BY RF-SCORE:    0.00 PKD
ROOT
HETATM    1  O   UNL     1      -8.557   8.431  71.078  1.00  0.00    -0.131 OA 
HETATM    2  S   UNL     1      -8.235   8.858  69.559  1.00  0.00    -0.110 S  
HETATM    3  N   UNL     2     -11.839   7.513  72.680  1.00  0.00    -0.550 NA 
HETATM    4  H1  UNL     2     -10.954   7.008  72.739  1.00  0.00     0.000 HD 
HETATM    5  H2  UNL     2     -12.160   8.122  73.433  1.00  0.00     0.000 HD 
HETATM    6  C   UNL     2     -12.560   7.335  71.561  1.00  0.00    -0.379 C  
HETATM    7  N   UNL     3     -10.866  10.134  71.402  1.00  0.00     0.005 NA 
HETATM    8  O   UNL     1      -8.261  10.456  69.691  1.00  0.00    -0.155 OA 
HETATM    9  O   UNL     1      -6.893   8.419  69.253  1.00  0.00    -0.045 OA 
HETATM   10  O   UNL     1      -9.371   8.474  68.768  1.00  0.00    -0.143 OA 
HETATM   11  C   UNL     3     -11.488  10.526  70.268  1.00  0.00    -0.333 C  
HETATM   12  H1  UNL     3     -10.097  10.652  71.828  1.00  0.00     0.000 HD 
HETATM   13  H2  UNL     3     -11.180   9.275  71.855  1.00  0.00     0.000 HD 
HETATM   14  N   UNL     2     -11.998   6.732  70.507  1.00  0.00    -0.530 NA 
HETATM   15  N   UNL     2     -13.674   7.970  71.487  1.00  0.00    -0.485 NA 
HETATM   16  H2  UNL     2     -13.995   8.580  72.240  1.00  0.00     0.000 HD 
HETATM   17  H   UNL     2     -12.520   6.807  69.634  1.00  0.00     0.000 HD 
HETATM   18  N   UNL     3     -12.451   9.876  69.734  1.00  0.00    -0.263 NA 
HETATM   19  N   UNL     3     -10.944  11.623  69.696  1.00  0.00    -0.466 NA 
HETATM   20  H2  UNL     3     -12.766   9.018  70.187  1.00  0.00     0.000 HD 
HETATM   21  H1  UNL     2     -14.222   7.835  70.637  1.00  0.00     0.000 HD 
HETATM   22  H1  UNL     3     -12.921  10.171  68.879  1.00  0.00     0.000 HD 
HETATM   23  H   UNL     3      -9.975  11.896  69.858  1.00  0.00     0.000 HD 
ENDROOT
BRANCH  14  24
HETATM   24  C   UNL     2     -10.754   5.988  70.421  1.00  0.00    -0.292 C  
BRANCH  24  25
HETATM   25  C   UNL     2     -10.501   5.547  68.989  1.00  0.00    -0.296 A  
HETATM   26  I   UNL     2      -8.029   2.585  66.955  1.00  0.00    -0.079 I  
HETATM   27  C   UNL     2     -11.155   6.177  67.917  1.00  0.00    -0.311 A  
HETATM   28  C   UNL     2      -9.610   4.493  68.706  1.00  0.00    -0.227 A  
HETATM   29  C   UNL     2     -10.882   5.822  66.599  1.00  0.00    -0.290 A  
HETATM   30  C   UNL     2      -9.359   4.127  67.382  1.00  0.00    -0.175 A  
HETATM   31  C   UNL     2      -9.983   4.796  66.327  1.00  0.00    -0.264 A  
ENDBRANCH  24  25
ENDBRANCH  14  24
BRANCH  19  32
HETATM   32  C   UNL     3     -11.830  12.392  68.831  1.00  0.00    -0.301 C  
BRANCH  32  33
HETATM   33  C   UNL     3     -11.426  12.328  67.386  1.00  0.00    -0.422 A  
HETATM   34  C   UNL     3     -10.285  12.343  64.816  1.00  0.00    -0.303 A  
HETATM   35  C   UNL     3     -10.692  11.234  66.930  1.00  0.00    -0.319 A  
HETATM   36  I   UNL     3      -8.878   9.676  65.096  1.00  0.00    -0.273 I  
HETATM   37  C   UNL     3     -11.074  13.414  65.230  1.00  0.00    -0.305 A  
HETATM   38  C   UNL     3     -10.105  11.253  65.666  1.00  0.00    -0.247 A  
HETATM   39  C   UNL     3     -11.636  13.413  66.509  1.00  0.00    -0.394 A  
ENDBRANCH  32  33
ENDBRANCH  19  32
TORSDOF 4
ENDMDL
MODEL       46
REMARK 921   NORMALIZED FREE ENERGY PREDICTED BY IDOCK:   -6.55 KCAL/MOL
REMARK 922        TOTAL FREE ENERGY PREDICTED BY IDOCK:   -8.73 KCAL/MOL
REMARK 923 INTER-LIGAND FREE ENERGY PREDICTED BY IDOCK:   -8.01 KCAL/MOL
REMARK 924 INTRA-LIGAND FREE ENERGY PREDICTED BY IDOCK:   -0.72 KCAL/MOL
REMARK 927      BINDING AFFINITY PREDICTED BY RF-SCORE:    0.00 PKD
ROOT
HETATM    1  O   UNL     1     -10.581  14.703  70.412  1.00  0.00     0.059 OA 
HETATM    2  S   UNL     1     -11.811  15.066  69.439  1.00  0.00    -0.326 S  
HETATM    3  N   UNL     2      -6.932  14.227  69.611  1.00  0.00    -0.302 NA 
HETATM    4  H1  UNL     2      -7.337  14.795  70.356  1.00  0.00     0.000 HD 
HETATM    5  H2  UNL     2      -6.547  13.300  69.793  1.00  0.00     0.000 HD 
HETATM    6  C   UNL     2      -6.930  14.763  68.380  1.00  0.00    -0.114 C  
HETATM    7  N   UNL     3      -9.426  12.670  68.718  1.00  0.00    -0.408 NA 
HETATM    8  O   UNL     1     -12.389  13.601  69.137  1.00  0.00    -0.285 OA 
HETATM    9  O   UNL     1     -12.775  15.817  70.208  1.00  0.00    -0.353 OA 
HETATM   10  O   UNL     1     -11.243  15.564  68.217  1.00  0.00    -0.311 OA 
HETATM   11  C   UNL     3      -9.743  12.729  67.405  1.00  0.00    -0.197 C  
HETATM   12  H1  UNL     3      -9.978  12.155  69.405  1.00  0.00     0.000 HD 
HETATM   13  H2  UNL     3      -8.594  13.166  69.038  1.00  0.00     0.000 HD 
HETATM   14  N   UNL     2      -7.656  15.861  68.141  1.00  0.00    -0.128 NA 
HETATM   15  N   UNL     2      -6.420  14.049  67.442  1.00  0.00    -0.391 NA 
HETATM   16  H2  UNL     2      -6.035  13.122  67.623  1.00  0.00     0.000 HD 
HETATM   17  H   UNL     2      -7.774  16.098  67.156  1.00  0.00     0.000 HD 
HETATM   18  N   UNL     3      -9.053  13.374  66.544  1.00  0.00    -0.433 NA 
HETATM   19  N   UNL     3     -10.909  12.117  67.095  1.00  0.00    -0.235 NA 
HETATM   20  H2  UNL     3      -8.220  13.870  66.863  1.00  0.00     0.000 HD 
HETATM   21  H1  UNL     2      -6.419  14.456  66.506  1.00  0.00     0.000 HD 
HETATM   22  H1  UNL     3      -9.292  13.419  65.554  1.00  0.00     0.000 HD 
HETATM   23  H   UNL     3     -11.645  11.970  67.785  1.00  0.00     0.000 HD 
ENDROOT
BRANCH  14  24
HETATM   24  C   UNL     2      -8.303  16.765  69.075  1.00  0.00    -0.163 C  
BRANCH  24  25
HETATM   25  C   UNL     2      -8.486  18.135  68.445  1.00  0.00    -0.311 A  
HETATM   26  I   UNL     2      -5.945  21.164  66.604  1.00  0.00    -0.348 I  
HETATM   27  C   UNL     2      -9.758  18.729  68.374  1.00  0.00    -0.421 A  
HETATM   28  C   UNL     2      -7.387  18.837  67.913  1.00  0.00    -0.259 A  
HETATM   29  C   UNL     2      -9.926  20.010  67.856  1.00  0.00    -0.558 A  
HETATM   30  C   UNL     2      -7.567  20.113  67.374  1.00  0.00    -0.299 A  
HETATM   31  C   UNL     2      -8.831  20.706  67.354  1.00  0.00    -0.331 A  
ENDBRANCH  24  25
ENDBRANCH  14  24
BRANCH  19  32
HETATM   32  C   UNL     3     -11.045  11.680  65.711  1.00  0.00    -0.256 C  
BRANCH  32  33
HETATM   33  C   UNL     3     -10.246  10.445  65.413  1.00  0.00    -0.329 A  
HETATM   34  C   UNL     3      -8.459   8.293  65.127  1.00  0.00    -0.164 A  
HETATM   35  C   UNL     3     -10.260   9.387  66.321  1.00  0.00    -0.284 A  
HETATM   36  I   UNL     3      -9.297   6.868  67.665  1.00  0.00    -0.149 I  
HETATM   37  C   UNL     3      -8.480   9.307  64.172  1.00  0.00    -0.203 A  
HETATM   38  C   UNL     3      -9.356   8.333  66.193  1.00  0.00    -0.188 A  
HETATM   39  C   UNL     3      -9.362  10.382  64.315  1.00  0.00    -0.324 A  
ENDBRANCH  32  33
ENDBRANCH  19  32
TORSDOF 4
ENDMDL
MODEL       47
REMARK 921   NORMALIZED FREE ENERGY PREDICTED BY IDOCK:   -6.51 KCAL/MOL
REMARK 922        TOTAL FREE ENERGY PREDICTED BY IDOCK:   -8.68 KCAL/MOL
REMARK 923 INTER-LIGAND FREE ENERGY PREDICTED BY IDOCK:   -8.20 KCAL/MOL
REMARK 924 INTRA-LIGAND FREE ENERGY PREDICTED BY IDOCK:   -0.48 KCAL/MOL
REMARK 927      BINDING AFFINITY PREDICTED BY RF-SCORE:    0.00 PKD
ROOT
HETATM    1  O   UNL     1      -9.985  11.495  66.111  1.00  0.00    -0.210 OA 
HETATM    2  S   UNL     1     -11.040  12.659  66.464  1.00  0.00    -0.295 S  
HETATM    3  N   UNL     2      -7.117  10.143  68.142  1.00  0.00    -0.078 NA 
HETATM    4  H1  UNL     2      -7.844   9.612  67.661  1.00  0.00     0.000 HD 
HETATM    5  H2  UNL     2      -6.185  10.260  67.742  1.00  0.00     0.000 HD 
HETATM    6  C   UNL     2      -7.447  10.678  69.328  1.00  0.00    -0.130 C  
HETATM    7  N   UNL     3      -7.630  12.933  66.960  1.00  0.00    -0.389 NA 
HETATM    8  O   UNL     1     -10.346  13.913  65.743  1.00  0.00    -0.296 OA 
HETATM    9  O   UNL     1     -12.282  12.345  65.799  1.00  0.00    -0.620 OA 
HETATM   10  O   UNL     1     -10.958  12.880  67.881  1.00  0.00    -0.227 OA 
HETATM   11  C   UNL     3      -7.825  13.941  67.840  1.00  0.00    -0.161 C  
HETATM   12  H1  UNL     3      -7.662  13.059  65.948  1.00  0.00     0.000 HD 
HETATM   13  H2  UNL     3      -7.443  12.000  67.327  1.00  0.00     0.000 HD 
HETATM   14  N   UNL     2      -8.733  10.711  69.698  1.00  0.00    -0.389 NA 
HETATM   15  N   UNL     2      -6.532  11.346  69.934  1.00  0.00    -0.206 NA 
HETATM   16  H2  UNL     2      -5.601  11.463  69.534  1.00  0.00     0.000 HD 
HETATM   17  H   UNL     2      -8.938  11.302  70.504  1.00  0.00     0.000 HD 
HETATM   18  N   UNL     3      -7.786  13.783  69.108  1.00  0.00    -0.336 NA 
HETATM   19  N   UNL     3      -8.154  15.118  67.261  1.00  0.00    -0.186 NA 
HETATM   20  H2  UNL     3      -7.597  12.851  69.475  1.00  0.00     0.000 HD 
HETATM   21  H1  UNL     2      -6.783  11.753  70.835  1.00  0.00     0.000 HD 
HETATM   22  H1  UNL     3      -7.933  14.543  69.772  1.00  0.00     0.000 HD 
HETATM   23  H   UNL     3      -8.582  15.167  66.337  1.00  0.00     0.000 HD 
ENDROOT
BRANCH  14  24
HETATM   24  C   UNL     2      -9.879  10.031  69.123  1.00  0.00    -0.205 C  
BRANCH  24  25
HETATM   25  C   UNL     2     -11.073  10.124  70.057  1.00  0.00    -0.368 A  
HETATM   26  I   UNL     2     -13.334  13.284  72.039  1.00  0.00    -0.393 I  
HETATM   27  C   UNL     2     -11.727   8.963  70.506  1.00  0.00    -0.137 A  
HETATM   28  C   UNL     2     -11.555  11.375  70.490  1.00  0.00    -0.168 A  
HETATM   29  C   UNL     2     -12.781   9.036  71.412  1.00  0.00    -0.361 A  
HETATM   30  C   UNL     2     -12.629  11.440  71.381  1.00  0.00    -0.334 A  
HETATM   31  C   UNL     2     -13.236  10.275  71.852  1.00  0.00    -0.550 A  
ENDBRANCH  24  25
ENDBRANCH  14  24
BRANCH  19  32
HETATM   32  C   UNL     3      -7.861  16.312  68.043  1.00  0.00    -0.149 C  
BRANCH  32  33
HETATM   33  C   UNL     3      -7.996  17.575  67.243  1.00  0.00    -0.222 A  
HETATM   34  C   UNL     3      -7.987  20.116  66.038  1.00  0.00    -0.236 A  
HETATM   35  C   UNL     3      -6.974  17.941  66.368  1.00  0.00    -0.284 A  
HETATM   36  I   UNL     3      -5.327  19.772  64.631  1.00  0.00    -0.277 I  
HETATM   37  C   UNL     3      -9.051  19.740  66.854  1.00  0.00    -0.431 A  
HETATM   38  C   UNL     3      -6.957  19.210  65.791  1.00  0.00    -0.275 A  
HETATM   39  C   UNL     3      -9.055  18.481  67.461  1.00  0.00    -0.289 A  
ENDBRANCH  32  33
ENDBRANCH  19  32
TORSDOF 4
ENDMDL
MODEL       48
REMARK 921   NORMALIZED FREE ENERGY PREDICTED BY IDOCK:   -6.47 KCAL/MOL
REMARK 922        TOTAL FREE ENERGY PREDICTED BY IDOCK:   -8.63 KCAL/MOL
REMARK 923 INTER-LIGAND FREE ENERGY PREDICTED BY IDOCK:   -7.77 KCAL/MOL
REMARK 924 INTRA-LIGAND FREE ENERGY PREDICTED BY IDOCK:   -0.85 KCAL/MOL
REMARK 927      BINDING AFFINITY PREDICTED BY RF-SCORE:    0.00 PKD
ROOT
HETATM    1  O   UNL     1     -11.796  11.420  67.281  1.00  0.00    -0.594 OA 
HETATM    2  S   UNL     1     -11.331  12.606  68.265  1.00  0.00    -0.321 S  
HETATM    3  N   UNL     2     -10.392  10.360  63.951  1.00  0.00    -0.446 NA 
HETATM    4  H1  UNL     2     -10.614   9.766  64.750  1.00  0.00     0.000 HD 
HETATM    5  H2  UNL     2     -11.020  10.438  63.151  1.00  0.00     0.000 HD 
HETATM    6  C   UNL     2      -9.231  11.033  64.005  1.00  0.00    -0.162 C  
HETATM    7  N   UNL     3     -11.726  12.978  64.852  1.00  0.00    -0.325 NA 
HETATM    8  O   UNL     1     -12.341  13.769  67.820  1.00  0.00    -0.251 OA 
HETATM    9  O   UNL     1     -11.628  12.198  69.618  1.00  0.00    -0.298 OA 
HETATM   10  O   UNL     1     -10.013  13.000  67.850  1.00  0.00    -0.217 OA 
HETATM   11  C   UNL     3     -10.949  14.084  64.868  1.00  0.00    -0.392 C  
HETATM   12  H1  UNL     3     -12.707  12.979  65.134  1.00  0.00     0.000 HD 
HETATM   13  H2  UNL     3     -11.312  12.099  64.542  1.00  0.00     0.000 HD 
HETATM   14  N   UNL     2      -8.562  11.096  65.162  1.00  0.00    -0.384 NA 
HETATM   15  N   UNL     2      -8.952  11.780  62.998  1.00  0.00    -0.654 NA 
HETATM   16  H2  UNL     2      -9.580  11.858  62.198  1.00  0.00     0.000 HD 
HETATM   17  H   UNL     2      -7.805  11.779  65.189  1.00  0.00     0.000 HD 
HETATM   18  N   UNL     3      -9.720  14.084  64.514  1.00  0.00    -0.475 NA 
HETATM   19  N   UNL     3     -11.561  15.177  65.377  1.00  0.00    -0.236 NA 
HETATM   20  H2  UNL     3      -9.305  13.205  64.204  1.00  0.00     0.000 HD 
HETATM   21  H1  UNL     2      -8.070  12.292  63.038  1.00  0.00     0.000 HD 
HETATM   22  H1  UNL     3      -9.133  14.918  64.527  1.00  0.00     0.000 HD 
HETATM   23  H   UNL     3     -12.351  15.108  66.018  1.00  0.00     0.000 HD 
ENDROOT
BRANCH  14  24
HETATM   24  C   UNL     2      -8.754  10.338  66.384  1.00  0.00    -0.135 C  
BRANCH  24  25
HETATM   25  C   UNL     2      -7.615  10.602  67.355  1.00  0.00    -0.095 A  
HETATM   26  I   UNL     2      -6.079   8.827  71.030  1.00  0.00    -0.062 I  
HETATM   27  C   UNL     2      -6.741  11.686  67.158  1.00  0.00    -0.142 A  
HETATM   28  C   UNL     2      -7.407   9.765  68.468  1.00  0.00    -0.074 A  
HETATM   29  C   UNL     2      -5.735  11.973  68.076  1.00  0.00    -0.055 A  
HETATM   30  C   UNL     2      -6.380  10.047  69.372  1.00  0.00    -0.046 A  
HETATM   31  C   UNL     2      -5.551  11.155  69.185  1.00  0.00    -0.040 A  
ENDBRANCH  24  25
ENDBRANCH  14  24
BRANCH  19  32
HETATM   32  C   UNL     3     -11.019  16.461  64.951  1.00  0.00    -0.263 C  
BRANCH  32  33
HETATM   33  C   UNL     3     -10.254  17.156  66.040  1.00  0.00    -0.332 A  
HETATM   34  C   UNL     3      -9.067  18.232  68.351  1.00  0.00    -0.331 A  
HETATM   35  C   UNL     3      -9.220  16.480  66.686  1.00  0.00    -0.275 A  
HETATM   36  I   UNL     3      -7.233  15.878  68.870  1.00  0.00    -0.195 I  
HETATM   37  C   UNL     3     -10.050  18.953  67.678  1.00  0.00    -0.425 A  
HETATM   38  C   UNL     3      -8.650  17.001  67.846  1.00  0.00    -0.207 A  
HETATM   39  C   UNL     3     -10.648  18.418  66.533  1.00  0.00    -0.344 A  
ENDBRANCH  32  33
ENDBRANCH  19  32
TORSDOF 4
ENDMDL
MODEL       49
REMARK 921   NORMALIZED FREE ENERGY PREDICTED BY IDOCK:   -6.37 KCAL/MOL
REMARK 922        TOTAL FREE ENERGY PREDICTED BY IDOCK:   -8.51 KCAL/MOL
REMARK 923 INTER-LIGAND FREE ENERGY PREDICTED BY IDOCK:   -7.70 KCAL/MOL
REMARK 924 INTRA-LIGAND FREE ENERGY PREDICTED BY IDOCK:   -0.81 KCAL/MOL
REMARK 927      BINDING AFFINITY PREDICTED BY RF-SCORE:    0.00 PKD
ROOT
HETATM    1  O   UNL     1      -7.430  11.011  68.678  1.00  0.00    -0.096 OA 
HETATM    2  S   UNL     1      -7.782   9.776  69.650  1.00  0.00    -0.155 S  
HETATM    3  N   UNL     2      -9.416  12.485  65.837  1.00  0.00    -0.417 NA 
HETATM    4  H1  UNL     2      -8.970  12.981  66.609  1.00  0.00     0.000 HD 
HETATM    5  H2  UNL     2      -8.987  12.434  64.913  1.00  0.00     0.000 HD 
HETATM    6  C   UNL     2     -10.596  11.900  66.100  1.00  0.00    -0.258 C  
HETATM    7  N   UNL     3      -8.174   9.698  66.217  1.00  0.00    -0.115 NA 
HETATM    8  O   UNL     1      -7.008   8.586  68.904  1.00  0.00    -0.060 OA 
HETATM    9  O   UNL     1      -7.161  10.030  70.928  1.00  0.00    -0.337 OA 
HETATM   10  O   UNL     1      -9.190   9.525  69.513  1.00  0.00    -0.165 OA 
HETATM   11  C   UNL     3      -9.032   8.659  66.324  1.00  0.00    -0.173 C  
HETATM   12  H1  UNL     3      -7.161   9.596  66.271  1.00  0.00     0.000 HD 
HETATM   13  H2  UNL     3      -8.560  10.632  66.075  1.00  0.00     0.000 HD 
HETATM   14  N   UNL     2     -11.001  11.780  67.369  1.00  0.00    -0.246 NA 
HETATM   15  N   UNL     2     -11.157  11.275  65.128  1.00  0.00    -0.144 NA 
HETATM   16  H2  UNL     2     -10.729  11.225  64.204  1.00  0.00     0.000 HD 
HETATM   17  H   UNL     2     -11.796  11.157  67.514  1.00  0.00     0.000 HD 
HETATM   18  N   UNL     3     -10.302   8.787  66.257  1.00  0.00    -0.332 NA 
HETATM   19  N   UNL     3      -8.432   7.479  66.599  1.00  0.00    -0.125 NA 
HETATM   20  H2  UNL     3     -10.689   9.720  66.114  1.00  0.00     0.000 HD 
HETATM   21  H1  UNL     2     -12.054  10.831  65.327  1.00  0.00     0.000 HD 
HETATM   22  H1  UNL     3     -10.950   8.003  66.338  1.00  0.00     0.000 HD 
HETATM   23  H   UNL     3      -7.519   7.427  67.050  1.00  0.00     0.000 HD 
ENDROOT
BRANCH  14  24
HETATM   24  C   UNL     2     -10.477  12.403  68.571  1.00  0.00    -0.228 C  
BRANCH  24  25
HETATM   25  C   UNL     2     -11.489  12.309  69.700  1.00  0.00    -0.285 A  
HETATM   26  I   UNL     2     -13.891  15.072  72.069  1.00  0.00    -0.755 I  
HETATM   27  C   UNL     2     -11.841  11.062  70.247  1.00  0.00    -0.456 A  
HETATM   28  C   UNL     2     -12.100  13.466  70.219  1.00  0.00    -0.419 A  
HETATM   29  C   UNL     2     -12.719  10.972  71.323  1.00  0.00    -0.537 A  
HETATM   30  C   UNL     2     -12.998  13.364  71.284  1.00  0.00    -0.287 A  
HETATM   31  C   UNL     2     -13.301  12.122  71.845  1.00  0.00    -0.421 A  
ENDBRANCH  24  25
ENDBRANCH  14  24
BRANCH  19  32
HETATM   32  C   UNL     3      -9.173   6.286  66.211  1.00  0.00    -0.145 C  
BRANCH  32  33
HETATM   33  C   UNL     3      -9.508   5.407  67.381  1.00  0.00    -0.127 A  
HETATM   34  C   UNL     3      -9.753   3.879  69.729  1.00  0.00    -0.227 A  
HETATM   35  C   UNL     3      -9.978   5.987  68.558  1.00  0.00    -0.173 A  
HETATM   36  I   UNL     3     -10.617   6.182  71.497  1.00  0.00    -0.324 I  
HETATM   37  C   UNL     3      -9.349   3.268  68.544  1.00  0.00    -0.237 A  
HETATM   38  C   UNL     3     -10.075   5.235  69.728  1.00  0.00    -0.264 A  
HETATM   39  C   UNL     3      -9.218   4.026  67.377  1.00  0.00    -0.190 A  
ENDBRANCH  32  33
ENDBRANCH  19  32
TORSDOF 4
ENDMDL
MODEL       50
REMARK 921   NORMALIZED FREE ENERGY PREDICTED BY IDOCK:   -6.33 KCAL/MOL
REMARK 922        TOTAL FREE ENERGY PREDICTED BY IDOCK:   -8.46 KCAL/MOL
REMARK 923 INTER-LIGAND FREE ENERGY PREDICTED BY IDOCK:   -7.71 KCAL/MOL
REMARK 924 INTRA-LIGAND FREE ENERGY PREDICTED BY IDOCK:   -0.75 KCAL/MOL
REMARK 927      BINDING AFFINITY PREDICTED BY RF-SCORE:    0.00 PKD
ROOT
HETATM    1  O   UNL     1     -12.142  11.458  67.822  1.00  0.00    -0.637 OA 
HETATM    2  S   UNL     1     -11.483  11.595  69.285  1.00  0.00    -0.325 S  
HETATM    3  N   UNL     2     -10.510  10.783  64.496  1.00  0.00    -0.339 NA 
HETATM    4  H1  UNL     2     -11.328  10.320  64.894  1.00  0.00     0.000 HD 
HETATM    5  H2  UNL     2     -10.599  11.516  63.793  1.00  0.00     0.000 HD 
HETATM    6  C   UNL     2      -9.312  10.377  64.945  1.00  0.00    -0.243 C  
HETATM    7  N   UNL     3     -10.230  13.134  66.456  1.00  0.00    -0.271 NA 
HETATM    8  O   UNL     1     -11.328  13.187  69.390  1.00  0.00    -0.258 OA 
HETATM    9  O   UNL     1     -12.455  11.138  70.251  1.00  0.00    -0.303 OA 
HETATM   10  O   UNL     1     -10.161  11.039  69.201  1.00  0.00    -0.206 OA 
HETATM   11  C   UNL     3      -9.028  13.288  67.054  1.00  0.00    -0.228 C  
HETATM   12  H1  UNL     3     -11.028  13.743  66.637  1.00  0.00     0.000 HD 
HETATM   13  H2  UNL     3     -10.345  12.371  65.789  1.00  0.00     0.000 HD 
HETATM   14  N   UNL     2      -9.247   9.598  66.031  1.00  0.00    -0.169 NA 
HETATM   15  N   UNL     2      -8.282  10.960  64.444  1.00  0.00    -0.366 NA 
HETATM   16  H2  UNL     2      -8.370  11.693  63.741  1.00  0.00     0.000 HD 
HETATM   17  H   UNL     2      -8.316   9.493  66.434  1.00  0.00     0.000 HD 
HETATM   18  N   UNL     3      -8.028  12.525  66.828  1.00  0.00    -0.399 NA 
HETATM   19  N   UNL     3      -9.000  14.269  67.985  1.00  0.00    -0.176 NA 
HETATM   20  H2  UNL     3      -8.141  11.761  66.161  1.00  0.00     0.000 HD 
HETATM   21  H1  UNL     2      -7.371  10.652  64.785  1.00  0.00     0.000 HD 
HETATM   22  H1  UNL     3      -7.120  12.640  67.280  1.00  0.00     0.000 HD 
HETATM   23  H   UNL     3      -9.844  14.591  68.459  1.00  0.00     0.000 HD 
ENDROOT
BRANCH  14  24
HETATM   24  C   UNL     2     -10.304   8.882  66.721  1.00  0.00    -0.247 C  
BRANCH  24  25
HETATM   25  C   UNL     2      -9.714   7.844  67.660  1.00  0.00    -0.196 A  
HETATM   26  I   UNL     2     -10.715   6.112  71.535  1.00  0.00    -0.335 I  
HETATM   27  C   UNL     2      -8.514   7.184  67.339  1.00  0.00    -0.122 A  
HETATM   28  C   UNL     2     -10.357   7.515  68.869  1.00  0.00    -0.220 A  
HETATM   29  C   UNL     2      -7.933   6.278  68.222  1.00  0.00    -0.108 A  
HETATM   30  C   UNL     2      -9.779   6.588  69.738  1.00  0.00    -0.158 A  
HETATM   31  C   UNL     2      -8.564   5.976  69.424  1.00  0.00    -0.122 A  
ENDBRANCH  24  25
ENDBRANCH  14  24
BRANCH  19  32
HETATM   32  C   UNL     3      -7.688  14.836  68.268  1.00  0.00    -0.120 C  
BRANCH  32  33
HETATM   33  C   UNL     3      -7.730  16.326  68.454  1.00  0.00    -0.169 A  
HETATM   34  C   UNL     3      -7.595  19.134  68.430  1.00  0.00    -0.347 A  
HETATM   35  C   UNL     3      -8.674  17.075  67.752  1.00  0.00    -0.222 A  
HETATM   36  I   UNL     3      -9.913  19.531  66.522  1.00  0.00    -0.647 I  
HETATM   37  C   UNL     3      -6.687  18.404  69.193  1.00  0.00    -0.274 A  
HETATM   38  C   UNL     3      -8.590  18.466  67.719  1.00  0.00    -0.267 A  
HETATM   39  C   UNL     3      -6.747  17.007  69.201  1.00  0.00    -0.241 A  
ENDBRANCH  32  33
ENDBRANCH  19  32
TORSDOF 4
ENDMDL
MODEL       51
REMARK 921   NORMALIZED FREE ENERGY PREDICTED BY IDOCK:   -6.30 KCAL/MOL
REMARK 922        TOTAL FREE ENERGY PREDICTED BY IDOCK:   -8.42 KCAL/MOL
REMARK 923 INTER-LIGAND FREE ENERGY PREDICTED BY IDOCK:   -7.87 KCAL/MOL
REMARK 924 INTRA-LIGAND FREE ENERGY PREDICTED BY IDOCK:   -0.54 KCAL/MOL
REMARK 927      BINDING AFFINITY PREDICTED BY RF-SCORE:    0.00 PKD
ROOT
HETATM    1  O   UNL     1     -10.915  11.955  69.978  1.00  0.00     0.119 OA 
HETATM    2  S   UNL     1     -12.256  11.203  70.457  1.00  0.00    -0.393 S  
HETATM    3  N   UNL     2      -9.100  11.786  66.683  1.00  0.00    -0.189 NA 
HETATM    4  H1  UNL     2      -9.368  12.621  67.204  1.00  0.00     0.000 HD 
HETATM    5  H2  UNL     2      -8.149  11.419  66.710  1.00  0.00     0.000 HD 
HETATM    6  C   UNL     2     -10.064  11.194  65.959  1.00  0.00    -0.244 C  
HETATM    7  N   UNL     3      -9.651   9.637  68.811  1.00  0.00    -0.149 NA 
HETATM    8  O   UNL     1     -11.628   9.942  71.223  1.00  0.00    -0.360 OA 
HETATM    9  O   UNL     1     -12.928  12.060  71.405  1.00  0.00    -0.370 OA 
HETATM   10  O   UNL     1     -12.902  10.708  69.273  1.00  0.00    -0.103 OA 
HETATM   11  C   UNL     3     -10.468   8.622  68.454  1.00  0.00    -0.176 C  
HETATM   12  H1  UNL     3      -9.235   9.722  69.739  1.00  0.00     0.000 HD 
HETATM   13  H2  UNL     3      -9.440  10.356  68.118  1.00  0.00     0.000 HD 
HETATM   14  N   UNL     2     -11.339  11.556  66.143  1.00  0.00    -0.280 NA 
HETATM   15  N   UNL     2      -9.727  10.143  65.303  1.00  0.00    -0.279 NA 
HETATM   16  H2  UNL     2      -8.776   9.776  65.329  1.00  0.00     0.000 HD 
HETATM   17  H   UNL     2     -12.031  10.939  65.718  1.00  0.00     0.000 HD 
HETATM   18  N   UNL     3     -10.990   8.516  67.291  1.00  0.00    -0.403 NA 
HETATM   19  N   UNL     3     -10.759   7.771  69.463  1.00  0.00    -0.312 NA 
HETATM   20  H2  UNL     3     -10.779   9.233  66.598  1.00  0.00     0.000 HD 
HETATM   21  H1  UNL     2     -10.459   9.692  64.752  1.00  0.00     0.000 HD 
HETATM   22  H1  UNL     3     -11.607   7.750  67.021  1.00  0.00     0.000 HD 
HETATM   23  H   UNL     3     -10.703   8.051  70.443  1.00  0.00     0.000 HD 
ENDROOT
BRANCH  14  24
HETATM   24  C   UNL     2     -11.884  12.696  66.857  1.00  0.00    -0.355 C  
BRANCH  24  25
HETATM   25  C   UNL     2     -11.562  13.985  66.121  1.00  0.00    -0.374 A  
HETATM   26  I   UNL     2      -9.131  17.538  66.822  1.00  0.00    -0.295 I  
HETATM   27  C   UNL     2     -12.136  14.259  64.867  1.00  0.00    -0.442 A  
HETATM   28  C   UNL     2     -10.676  14.930  66.674  1.00  0.00    -0.312 A  
HETATM   29  C   UNL     2     -11.897  15.465  64.214  1.00  0.00    -0.207 A  
HETATM   30  C   UNL     2     -10.423  16.128  66.001  1.00  0.00    -0.338 A  
HETATM   31  C   UNL     2     -11.039  16.403  64.779  1.00  0.00    -0.246 A  
ENDBRANCH  24  25
ENDBRANCH  14  24
BRANCH  19  32
HETATM   32  C   UNL     3     -11.159   6.428  69.065  1.00  0.00    -0.358 C  
BRANCH  32  33
HETATM   33  C   UNL     3     -10.582   5.364  69.953  1.00  0.00    -0.351 A  
HETATM   34  C   UNL     3      -9.175   3.647  71.679  1.00  0.00    -0.186 A  
HETATM   35  C   UNL     3     -10.717   5.483  71.336  1.00  0.00    -0.290 A  
HETATM   36  I   UNL     3     -10.098   4.973  74.241  1.00  0.00    -0.336 I  
HETATM   37  C   UNL     3      -9.084   3.470  70.300  1.00  0.00    -0.202 A  
HETATM   38  C   UNL     3      -9.999   4.648  72.191  1.00  0.00    -0.181 A  
HETATM   39  C   UNL     3      -9.776   4.327  69.439  1.00  0.00    -0.257 A  
ENDBRANCH  32  33
ENDBRANCH  19  32
TORSDOF 4
ENDMDL
MODEL       52
REMARK 921   NORMALIZED FREE ENERGY PREDICTED BY IDOCK:   -6.28 KCAL/MOL
REMARK 922        TOTAL FREE ENERGY PREDICTED BY IDOCK:   -8.40 KCAL/MOL
REMARK 923 INTER-LIGAND FREE ENERGY PREDICTED BY IDOCK:   -7.48 KCAL/MOL
REMARK 924 INTRA-LIGAND FREE ENERGY PREDICTED BY IDOCK:   -0.92 KCAL/MOL
REMARK 927      BINDING AFFINITY PREDICTED BY RF-SCORE:    0.00 PKD
ROOT
HETATM    1  O   UNL     1      -6.714  10.491  68.074  1.00  0.00    -0.064 OA 
HETATM    2  S   UNL     1      -7.439  10.180  69.477  1.00  0.00    -0.149 S  
HETATM    3  N   UNL     2      -8.187  10.858  64.627  1.00  0.00    -0.374 NA 
HETATM    4  H1  UNL     2      -7.527  11.482  65.092  1.00  0.00     0.000 HD 
HETATM    5  H2  UNL     2      -7.882  10.178  63.931  1.00  0.00     0.000 HD 
HETATM    6  C   UNL     2      -9.478  10.978  64.978  1.00  0.00    -0.233 C  
HETATM    7  N   UNL     3      -8.090   8.462  66.550  1.00  0.00    -0.099 NA 
HETATM    8  O   UNL     1      -7.243   8.590  69.563  1.00  0.00    -0.058 OA 
HETATM    9  O   UNL     1      -6.673  10.819  70.521  1.00  0.00    -0.312 OA 
HETATM   10  O   UNL     1      -8.841  10.430  69.287  1.00  0.00    -0.166 OA 
HETATM   11  C   UNL     3      -9.271   8.033  67.048  1.00  0.00    -0.147 C  
HETATM   12  H1  UNL     3      -7.193   8.041  66.794  1.00  0.00     0.000 HD 
HETATM   13  H2  UNL     3      -8.096   9.246  65.897  1.00  0.00     0.000 HD 
HETATM   14  N   UNL     2      -9.800  11.700  66.058  1.00  0.00    -0.222 NA 
HETATM   15  N   UNL     2     -10.309  10.193  64.393  1.00  0.00    -0.347 NA 
HETATM   16  H2  UNL     2     -10.004   9.512  63.697  1.00  0.00     0.000 HD 
HETATM   17  H   UNL     2     -10.760  11.588  66.384  1.00  0.00     0.000 HD 
HETATM   18  N   UNL     3     -10.395   8.559  66.742  1.00  0.00    -0.298 NA 
HETATM   19  N   UNL     3      -9.153   7.050  67.969  1.00  0.00    -0.128 NA 
HETATM   20  H2  UNL     3     -10.402   9.343  66.090  1.00  0.00     0.000 HD 
HETATM   21  H1  UNL     2     -11.290  10.283  64.659  1.00  0.00     0.000 HD 
HETATM   22  H1  UNL     3     -11.287   8.236  67.118  1.00  0.00     0.000 HD 
HETATM   23  H   UNL     3      -8.299   6.913  68.510  1.00  0.00     0.000 HD 
ENDROOT
BRANCH  14  24
HETATM   24  C   UNL     2      -8.987  12.618  66.834  1.00  0.00    -0.213 C  
BRANCH  24  25
HETATM   25  C   UNL     2      -9.859  13.686  67.472  1.00  0.00    -0.227 A  
HETATM   26  I   UNL     2     -12.543  13.990  70.896  1.00  0.00    -0.384 I  
HETATM   27  C   UNL     2      -9.937  14.975  66.915  1.00  0.00    -0.247 A  
HETATM   28  C   UNL     2     -10.601  13.412  68.637  1.00  0.00    -0.257 A  
HETATM   29  C   UNL     2     -10.781  15.941  67.456  1.00  0.00    -0.318 A  
HETATM   30  C   UNL     2     -11.428  14.394  69.186  1.00  0.00    -0.294 A  
HETATM   31  C   UNL     2     -11.529  15.654  68.593  1.00  0.00    -0.381 A  
ENDBRANCH  24  25
ENDBRANCH  14  24
BRANCH  19  32
HETATM   32  C   UNL     3     -10.323   6.200  68.142  1.00  0.00    -0.198 C  
BRANCH  32  33
HETATM   33  C   UNL     3     -10.835   6.200  69.554  1.00  0.00    -0.428 A  
HETATM   34  C   UNL     3     -11.497   6.503  72.270  1.00  0.00    -0.326 A  
HETATM   35  C   UNL     3     -11.711   7.205  69.962  1.00  0.00    -0.105 A  
HETATM   36  I   UNL     3     -13.190   8.986  71.891  1.00  0.00    -0.578 I  
HETATM   37  C   UNL     3     -10.676   5.451  71.870  1.00  0.00    -0.275 A  
HETATM   38  C   UNL     3     -12.018   7.371  71.312  1.00  0.00    -0.313 A  
HETATM   39  C   UNL     3     -10.339   5.302  70.522  1.00  0.00    -0.336 A  
ENDBRANCH  32  33
ENDBRANCH  19  32
TORSDOF 4
ENDMDL
MODEL       53
REMARK 921   NORMALIZED FREE ENERGY PREDICTED BY IDOCK:   -6.28 KCAL/MOL
REMARK 922        TOTAL FREE ENERGY PREDICTED BY IDOCK:   -8.40 KCAL/MOL
REMARK 923 INTER-LIGAND FREE ENERGY PREDICTED BY IDOCK:   -7.70 KCAL/MOL
REMARK 924 INTRA-LIGAND FREE ENERGY PREDICTED BY IDOCK:   -0.70 KCAL/MOL
REMARK 927      BINDING AFFINITY PREDICTED BY RF-SCORE:    0.00 PKD
ROOT
HETATM    1  O   UNL     1     -11.434   7.154  68.928  1.00  0.00     0.130 OA 
HETATM    2  S   UNL     1      -9.853   7.141  69.233  1.00  0.00    -0.163 S  
HETATM    3  N   UNL     2     -14.278   8.501  70.996  1.00  0.00    -0.622 NA 
HETATM    4  H1  UNL     2     -14.098   8.662  70.005  1.00  0.00     0.000 HD 
HETATM    5  H2  UNL     2     -14.969   7.820  71.312  1.00  0.00     0.000 HD 
HETATM    6  C   UNL     2     -13.560   9.231  71.865  1.00  0.00    -0.427 C  
HETATM    7  N   UNL     3     -12.268   6.239  71.536  1.00  0.00    -0.159 NA 
HETATM    8  O   UNL     1      -9.686   5.671  69.853  1.00  0.00    -0.153 OA 
HETATM    9  O   UNL     1      -9.159   7.214  67.969  1.00  0.00    -0.133 OA 
HETATM   10  O   UNL     1      -9.625   8.083  70.293  1.00  0.00    -0.170 OA 
HETATM   11  C   UNL     3     -11.393   6.431  72.548  1.00  0.00    -0.264 C  
HETATM   12  H1  UNL     3     -12.274   5.403  70.951  1.00  0.00     0.000 HD 
HETATM   13  H2  UNL     3     -12.955   6.968  71.346  1.00  0.00     0.000 HD 
HETATM   14  N   UNL     2     -12.504   9.925  71.424  1.00  0.00    -0.367 NA 
HETATM   15  N   UNL     2     -13.786   9.028  73.113  1.00  0.00    -1.177 NA 
HETATM   16  H2  UNL     2     -14.477   8.347  73.428  1.00  0.00     0.000 HD 
HETATM   17  H   UNL     2     -11.889  10.290  72.151  1.00  0.00     0.000 HD 
HETATM   18  N   UNL     3     -11.385   7.478  73.281  1.00  0.00    -0.614 NA 
HETATM   19  N   UNL     3     -10.467   5.452  72.665  1.00  0.00    -0.206 NA 
HETATM   20  H2  UNL     3     -12.073   8.207  73.092  1.00  0.00     0.000 HD 
HETATM   21  H1  UNL     2     -13.241   9.582  73.773  1.00  0.00     0.000 HD 
HETATM   22  H1  UNL     3     -10.725   7.623  74.045  1.00  0.00     0.000 HD 
HETATM   23  H   UNL     3     -10.205   4.857  71.879  1.00  0.00     0.000 HD 
ENDROOT
BRANCH  14  24
HETATM   24  C   UNL     2     -12.103  10.235  70.064  1.00  0.00    -0.156 C  
BRANCH  24  25
HETATM   25  C   UNL     2     -11.996  11.738  69.874  1.00  0.00    -0.405 A  
HETATM   26  I   UNL     2     -13.634  15.316  71.754  1.00  0.00    -0.664 I  
HETATM   27  C   UNL     2     -11.203  12.277  68.845  1.00  0.00    -0.323 A  
HETATM   28  C   UNL     2     -12.684  12.624  70.726  1.00  0.00    -0.213 A  
HETATM   29  C   UNL     2     -11.150  13.651  68.624  1.00  0.00    -0.299 A  
HETATM   30  C   UNL     2     -12.606  14.002  70.511  1.00  0.00    -0.329 A  
HETATM   31  C   UNL     2     -11.850  14.518  69.457  1.00  0.00    -0.374 A  
ENDBRANCH  24  25
ENDBRANCH  14  24
BRANCH  19  32
HETATM   32  C   UNL     3      -9.865   5.304  73.984  1.00  0.00    -0.176 C  
BRANCH  32  33
HETATM   33  C   UNL     3      -8.368   5.410  73.951  1.00  0.00    -0.114 A  
HETATM   34  C   UNL     3      -5.575   5.418  74.277  1.00  0.00    -0.031 A  
HETATM   35  C   UNL     3      -7.612   4.288  73.615  1.00  0.00    -0.078 A  
HETATM   36  I   UNL     3      -5.167   2.534  73.448  1.00  0.00     0.000 I  
HETATM   37  C   UNL     3      -6.307   6.570  74.552  1.00  0.00    -0.077 A  
HETATM   38  C   UNL     3      -6.230   4.284  73.801  1.00  0.00    -0.036 A  
HETATM   39  C   UNL     3      -7.697   6.567  74.398  1.00  0.00    -0.100 A  
ENDBRANCH  32  33
ENDBRANCH  19  32
TORSDOF 4
ENDMDL
MODEL       54
REMARK 921   NORMALIZED FREE ENERGY PREDICTED BY IDOCK:   -6.26 KCAL/MOL
REMARK 922        TOTAL FREE ENERGY PREDICTED BY IDOCK:   -8.37 KCAL/MOL
REMARK 923 INTER-LIGAND FREE ENERGY PREDICTED BY IDOCK:   -7.48 KCAL/MOL
REMARK 924 INTRA-LIGAND FREE ENERGY PREDICTED BY IDOCK:   -0.89 KCAL/MOL
REMARK 927      BINDING AFFINITY PREDICTED BY RF-SCORE:    0.00 PKD
ROOT
HETATM    1  O   UNL     1     -12.165  14.368  65.686  1.00  0.00    -0.384 OA 
HETATM    2  S   UNL     1     -11.270  13.172  65.083  1.00  0.00    -0.302 S  
HETATM    3  N   UNL     2     -11.992  16.049  69.051  1.00  0.00    -0.416 NA 
HETATM    4  H1  UNL     2     -12.038  16.494  68.134  1.00  0.00     0.000 HD 
HETATM    5  H2  UNL     2     -12.816  15.958  69.644  1.00  0.00     0.000 HD 
HETATM    6  C   UNL     2     -10.790  15.589  69.438  1.00  0.00    -0.261 C  
HETATM    7  N   UNL     3     -12.629  13.148  68.261  1.00  0.00     0.351 NA 
HETATM    8  O   UNL     1     -12.203  11.911  65.413  1.00  0.00    -0.377 OA 
HETATM    9  O   UNL     1     -11.194  13.357  63.652  1.00  0.00    -0.216 OA 
HETATM   10  O   UNL     1     -10.100  13.070  65.910  1.00  0.00    -0.281 OA 
HETATM   11  C   UNL     3     -11.743  12.203  68.647  1.00  0.00    -0.330 C  
HETATM   12  H1  UNL     3     -13.468  12.941  67.719  1.00  0.00     0.000 HD 
HETATM   13  H2  UNL     3     -12.449  14.117  68.524  1.00  0.00     0.000 HD 
HETATM   14  N   UNL     2      -9.800  15.507  68.542  1.00  0.00    -0.199 NA 
HETATM   15  N   UNL     2     -10.733  15.029  70.592  1.00  0.00    -0.528 NA 
HETATM   16  H2  UNL     2     -11.558  14.938  71.185  1.00  0.00     0.000 HD 
HETATM   17  H   UNL     2      -8.986  14.970  68.842  1.00  0.00     0.000 HD 
HETATM   18  N   UNL     3     -10.691  12.462  69.326  1.00  0.00    -0.445 NA 
HETATM   19  N   UNL     3     -12.021  10.966  68.177  1.00  0.00    -0.796 NA 
HETATM   20  H2  UNL     3     -10.510  13.430  69.590  1.00  0.00     0.000 HD 
HETATM   21  H1  UNL     2      -9.820  14.680  70.886  1.00  0.00     0.000 HD 
HETATM   22  H1  UNL     3     -10.022  11.749  69.618  1.00  0.00     0.000 HD 
HETATM   23  H   UNL     3     -12.581  10.818  67.337  1.00  0.00     0.000 HD 
ENDROOT
BRANCH  14  24
HETATM   24  C   UNL     2      -9.711  16.068  67.206  1.00  0.00    -0.232 C  
BRANCH  24  25
HETATM   25  C   UNL     2      -8.306  16.582  66.941  1.00  0.00    -0.245 A  
HETATM   26  I   UNL     2      -6.487  20.173  65.262  1.00  0.00    -0.319 I  
HETATM   27  C   UNL     2      -7.183  15.797  67.255  1.00  0.00    -0.254 A  
HETATM   28  C   UNL     2      -8.098  17.858  66.381  1.00  0.00    -0.296 A  
HETATM   29  C   UNL     2      -5.895  16.233  66.957  1.00  0.00    -0.019 A  
HETATM   30  C   UNL     2      -6.801  18.298  66.107  1.00  0.00    -0.256 A  
HETATM   31  C   UNL     2      -5.699  17.485  66.383  1.00  0.00    -0.243 A  
ENDBRANCH  24  25
ENDBRANCH  14  24
BRANCH  19  32
HETATM   32  C   UNL     3     -11.468   9.857  68.944  1.00  0.00     0.080 C  
BRANCH  32  33
HETATM   33  C   UNL     3     -10.543   8.996  68.134  1.00  0.00    -0.225 A  
HETATM   34  C   UNL     3      -9.147   7.326  66.354  1.00  0.00    -0.192 A  
HETATM   35  C   UNL     3      -9.958   9.520  66.982  1.00  0.00    -0.273 A  
HETATM   36  I   UNL     3      -8.582   9.480  64.301  1.00  0.00    -0.215 I  
HETATM   37  C   UNL     3      -9.666   6.800  67.535  1.00  0.00    -0.154 A  
HETATM   38  C   UNL     3      -9.288   8.686  66.087  1.00  0.00    -0.226 A  
HETATM   39  C   UNL     3     -10.367   7.626  68.418  1.00  0.00    -0.228 A  
ENDBRANCH  32  33
ENDBRANCH  19  32
TORSDOF 4
ENDMDL
MODEL       55
REMARK 921   NORMALIZED FREE ENERGY PREDICTED BY IDOCK:   -6.26 KCAL/MOL
REMARK 922        TOTAL FREE ENERGY PREDICTED BY IDOCK:   -8.37 KCAL/MOL
REMARK 923 INTER-LIGAND FREE ENERGY PREDICTED BY IDOCK:   -7.99 KCAL/MOL
REMARK 924 INTRA-LIGAND FREE ENERGY PREDICTED BY IDOCK:   -0.38 KCAL/MOL
REMARK 927      BINDING AFFINITY PREDICTED BY RF-SCORE:    0.00 PKD
ROOT
HETATM    1  O   UNL     1     -10.791   7.690  68.225  1.00  0.00    -0.102 OA 
HETATM    2  S   UNL     1      -9.415   7.093  68.812  1.00  0.00    -0.140 S  
HETATM    3  N   UNL     2     -13.235  10.093  69.785  1.00  0.00    -0.175 NA 
HETATM    4  H1  UNL     2     -12.833  10.134  68.849  1.00  0.00     0.000 HD 
HETATM    5  H2  UNL     2     -14.177   9.736  69.949  1.00  0.00     0.000 HD 
HETATM    6  C   UNL     2     -12.462  10.532  70.792  1.00  0.00    -0.378 C  
HETATM    7  N   UNL     3     -12.362   7.263  70.610  1.00  0.00    -0.579 NA 
HETATM    8  O   UNL     1      -9.930   5.696  69.406  1.00  0.00    -0.166 OA 
HETATM    9  O   UNL     1      -8.530   6.848  67.697  1.00  0.00    -0.122 OA 
HETATM   10  O   UNL     1      -9.041   7.922  69.924  1.00  0.00    -0.145 OA 
HETATM   11  C   UNL     3     -11.677   7.151  71.769  1.00  0.00    -0.290 C  
HETATM   12  H1  UNL     3     -12.579   6.468  70.008  1.00  0.00     0.000 HD 
HETATM   13  H2  UNL     3     -12.676   8.190  70.321  1.00  0.00     0.000 HD 
HETATM   14  N   UNL     2     -11.162  10.757  70.571  1.00  0.00    -0.446 NA 
HETATM   15  N   UNL     2     -12.969  10.480  71.971  1.00  0.00    -0.445 NA 
HETATM   16  H2  UNL     2     -13.911  10.123  72.135  1.00  0.00     0.000 HD 
HETATM   17  H   UNL     2     -10.596  10.893  71.409  1.00  0.00     0.000 HD 
HETATM   18  N   UNL     3     -11.404   8.147  72.523  1.00  0.00    -0.391 NA 
HETATM   19  N   UNL     3     -11.226   5.901  72.022  1.00  0.00    -0.274 NA 
HETATM   20  H2  UNL     3     -11.719   9.073  72.236  1.00  0.00     0.000 HD 
HETATM   21  H1  UNL     2     -12.382  10.813  72.737  1.00  0.00     0.000 HD 
HETATM   22  H1  UNL     3     -10.887   8.063  73.399  1.00  0.00     0.000 HD 
HETATM   23  H   UNL     3     -11.073   5.220  71.278  1.00  0.00     0.000 HD 
ENDROOT
BRANCH  14  24
HETATM   24  C   UNL     2     -10.437  10.838  69.317  1.00  0.00    -0.217 C  
BRANCH  24  25
HETATM   25  C   UNL     2     -11.003  11.949  68.449  1.00  0.00    -0.273 A  
HETATM   26  I   UNL     2     -12.027  12.507  64.247  1.00  0.00    -0.572 I  
HETATM   27  C   UNL     2     -11.320  13.202  69.003  1.00  0.00    -0.332 A  
HETATM   28  C   UNL     2     -11.227  11.747  67.073  1.00  0.00    -0.382 A  
HETATM   29  C   UNL     2     -11.779  14.246  68.204  1.00  0.00    -0.385 A  
HETATM   30  C   UNL     2     -11.711  12.793  66.283  1.00  0.00    -0.402 A  
HETATM   31  C   UNL     2     -11.977  14.044  66.842  1.00  0.00    -0.479 A  
ENDBRANCH  24  25
ENDBRANCH  14  24
BRANCH  19  32
HETATM   32  C   UNL     3     -10.972   5.590  73.422  1.00  0.00    -0.275 C  
BRANCH  32  33
HETATM   33  C   UNL     3     -10.361   4.232  73.611  1.00  0.00    -0.242 A  
HETATM   34  C   UNL     3      -9.151   1.694  73.540  1.00  0.00    -0.065 A  
HETATM   35  C   UNL     3      -8.973   4.108  73.650  1.00  0.00    -0.092 A  
HETATM   36  I   UNL     3      -6.302   2.722  73.476  1.00  0.00    -0.019 I  
HETATM   37  C   UNL     3     -10.539   1.799  73.572  1.00  0.00    -0.207 A  
HETATM   38  C   UNL     3      -8.373   2.850  73.589  1.00  0.00    -0.073 A  
HETATM   39  C   UNL     3     -11.144   3.059  73.599  1.00  0.00    -0.323 A  
ENDBRANCH  32  33
ENDBRANCH  19  32
TORSDOF 4
ENDMDL
MODEL       56
REMARK 921   NORMALIZED FREE ENERGY PREDICTED BY IDOCK:   -6.26 KCAL/MOL
REMARK 922        TOTAL FREE ENERGY PREDICTED BY IDOCK:   -8.37 KCAL/MOL
REMARK 923 INTER-LIGAND FREE ENERGY PREDICTED BY IDOCK:   -7.93 KCAL/MOL
REMARK 924 INTRA-LIGAND FREE ENERGY PREDICTED BY IDOCK:   -0.44 KCAL/MOL
REMARK 927      BINDING AFFINITY PREDICTED BY RF-SCORE:    0.00 PKD
ROOT
HETATM    1  O   UNL     1      -8.242   7.507  69.682  1.00  0.00    -0.125 OA 
HETATM    2  S   UNL     1      -8.872   7.586  68.202  1.00  0.00    -0.126 S  
HETATM    3  N   UNL     2      -9.948   7.584  73.038  1.00  0.00    -0.240 NA 
HETATM    4  H1  UNL     2      -9.240   6.925  72.714  1.00  0.00     0.000 HD 
HETATM    5  H2  UNL     2      -9.713   8.369  73.646  1.00  0.00     0.000 HD 
HETATM    6  C   UNL     2     -11.207   7.367  72.622  1.00  0.00    -0.332 C  
HETATM    7  N   UNL     3      -9.779   9.682  70.797  1.00  0.00    -0.320 NA 
HETATM    8  O   UNL     1      -8.714   9.153  67.898  1.00  0.00    -0.128 OA 
HETATM    9  O   UNL     1      -8.015   6.832  67.317  1.00  0.00    -0.111 OA 
HETATM   10  O   UNL     1     -10.277   7.314  68.332  1.00  0.00    -0.169 OA 
HETATM   11  C   UNL     3     -10.932   9.990  70.163  1.00  0.00    -0.310 C  
HETATM   12  H1  UNL     3      -8.878  10.096  70.555  1.00  0.00     0.000 HD 
HETATM   13  H2  UNL     3      -9.810   9.000  71.555  1.00  0.00     0.000 HD 
HETATM   14  N   UNL     2     -11.431   6.486  71.640  1.00  0.00    -0.283 NA 
HETATM   15  N   UNL     2     -12.099   8.197  73.029  1.00  0.00    -0.617 NA 
HETATM   16  H2  UNL     2     -11.864   8.981  73.638  1.00  0.00     0.000 HD 
HETATM   17  H   UNL     2     -12.368   6.514  71.237  1.00  0.00     0.000 HD 
HETATM   18  N   UNL     3     -12.061   9.471  70.466  1.00  0.00    -0.457 NA 
HETATM   19  N   UNL     3     -10.775  10.834  69.118  1.00  0.00    -0.213 NA 
HETATM   20  H2  UNL     3     -12.093   8.790  71.224  1.00  0.00     0.000 HD 
HETATM   21  H1  UNL     2     -13.055   8.032  72.714  1.00  0.00     0.000 HD 
HETATM   22  H1  UNL     3     -12.931   9.704  69.988  1.00  0.00     0.000 HD 
HETATM   23  H   UNL     3      -9.888  10.923  68.622  1.00  0.00     0.000 HD 
ENDROOT
BRANCH  14  24
HETATM   24  C   UNL     2     -10.539   5.497  71.063  1.00  0.00    -0.230 C  
BRANCH  24  25
HETATM   25  C   UNL     2     -10.134   4.474  72.110  1.00  0.00    -0.260 A  
HETATM   26  I   UNL     2      -6.506   2.339  73.248  1.00  0.00    -0.015 I  
HETATM   27  C   UNL     2     -11.076   3.972  73.025  1.00  0.00    -0.180 A  
HETATM   28  C   UNL     2      -8.807   4.011  72.191  1.00  0.00    -0.129 A  
HETATM   29  C   UNL     2     -10.729   2.988  73.947  1.00  0.00    -0.284 A  
HETATM   30  C   UNL     2      -8.461   3.041  73.135  1.00  0.00    -0.080 A  
HETATM   31  C   UNL     2      -9.420   2.520  74.005  1.00  0.00    -0.106 A  
ENDBRANCH  24  25
ENDBRANCH  14  24
BRANCH  19  32
HETATM   32  C   UNL     3     -11.953  11.606  68.745  1.00  0.00    -0.264 C  
BRANCH  32  33
HETATM   33  C   UNL     3     -11.876  13.034  69.201  1.00  0.00    -0.360 A  
HETATM   34  C   UNL     3     -12.160  15.715  70.000  1.00  0.00    -0.379 A  
HETATM   35  C   UNL     3     -12.211  13.349  70.517  1.00  0.00    -0.425 A  
HETATM   36  I   UNL     3     -13.043  15.093  72.830  1.00  0.00    -0.720 I  
HETATM   37  C   UNL     3     -11.757  15.419  68.700  1.00  0.00    -0.371 A  
HETATM   38  C   UNL     3     -12.377  14.678  70.906  1.00  0.00    -0.336 A  
HETATM   39  C   UNL     3     -11.622  14.088  68.297  1.00  0.00    -0.364 A  
ENDBRANCH  32  33
ENDBRANCH  19  32
TORSDOF 4
ENDMDL
MODEL       57
REMARK 921   NORMALIZED FREE ENERGY PREDICTED BY IDOCK:   -6.25 KCAL/MOL
REMARK 922        TOTAL FREE ENERGY PREDICTED BY IDOCK:   -8.36 KCAL/MOL
REMARK 923 INTER-LIGAND FREE ENERGY PREDICTED BY IDOCK:   -7.75 KCAL/MOL
REMARK 924 INTRA-LIGAND FREE ENERGY PREDICTED BY IDOCK:   -0.62 KCAL/MOL
REMARK 927      BINDING AFFINITY PREDICTED BY RF-SCORE:    0.00 PKD
ROOT
HETATM    1  O   UNL     1     -10.081  11.504  66.012  1.00  0.00    -0.217 OA 
HETATM    2  S   UNL     1     -11.190  12.629  66.320  1.00  0.00    -0.328 S  
HETATM    3  N   UNL     2      -7.358  10.131  68.222  1.00  0.00    -0.080 NA 
HETATM    4  H1  UNL     2      -8.029   9.605  67.661  1.00  0.00     0.000 HD 
HETATM    5  H2  UNL     2      -6.400  10.285  67.907  1.00  0.00     0.000 HD 
HETATM    6  C   UNL     2      -7.800  10.610  69.397  1.00  0.00    -0.121 C  
HETATM    7  N   UNL     3      -7.841  12.956  67.111  1.00  0.00    -0.353 NA 
HETATM    8  O   UNL     1     -10.470  13.926  65.710  1.00  0.00    -0.289 OA 
HETATM    9  O   UNL     1     -12.365  12.316  65.541  1.00  0.00    -0.602 OA 
HETATM   10  O   UNL     1     -11.232  12.793  67.747  1.00  0.00    -0.247 OA 
HETATM   11  C   UNL     3      -8.134  13.922  68.010  1.00  0.00    -0.154 C  
HETATM   12  H1  UNL     3      -7.792  13.123  66.106  1.00  0.00     0.000 HD 
HETATM   13  H2  UNL     3      -7.662  12.013  67.456  1.00  0.00     0.000 HD 
HETATM   14  N   UNL     2      -9.112  10.600  69.658  1.00  0.00    -0.396 NA 
HETATM   15  N   UNL     2      -6.955  11.272  70.102  1.00  0.00    -0.460 NA 
HETATM   16  H2  UNL     2      -5.997  11.426  69.787  1.00  0.00     0.000 HD 
HETATM   17  H   UNL     2      -9.398  11.153  70.466  1.00  0.00     0.000 HD 
HETATM   18  N   UNL     3      -8.196  13.714  69.270  1.00  0.00    -0.191 NA 
HETATM   19  N   UNL     3      -8.443  15.114  67.453  1.00  0.00    -0.170 NA 
HETATM   20  H2  UNL     3      -8.015  12.771  69.615  1.00  0.00     0.000 HD 
HETATM   21  H1  UNL     2      -7.290  11.636  70.995  1.00  0.00     0.000 HD 
HETATM   22  H1  UNL     3      -8.416  14.442  69.949  1.00  0.00     0.000 HD 
HETATM   23  H   UNL     3      -8.793  15.192  66.498  1.00  0.00     0.000 HD 
ENDROOT
BRANCH  14  24
HETATM   24  C   UNL     2     -10.189   9.920  68.963  1.00  0.00    -0.200 C  
BRANCH  24  25
HETATM   25  C   UNL     2     -10.592   8.662  69.714  1.00  0.00    -0.224 A  
HETATM   26  I   UNL     2      -9.862   4.376  69.381  1.00  0.00     0.107 I  
HETATM   27  C   UNL     2     -11.439   8.735  70.834  1.00  0.00    -0.330 A  
HETATM   28  C   UNL     2     -10.123   7.398  69.308  1.00  0.00    -0.186 A  
HETATM   29  C   UNL     2     -11.864   7.583  71.490  1.00  0.00    -0.324 A  
HETATM   30  C   UNL     2     -10.536   6.249  69.986  1.00  0.00    -0.248 A  
HETATM   31  C   UNL     2     -11.414   6.336  71.068  1.00  0.00    -0.370 A  
ENDBRANCH  24  25
ENDBRANCH  14  24
BRANCH  19  32
HETATM   32  C   UNL     3      -8.245  16.281  68.303  1.00  0.00    -0.173 C  
BRANCH  32  33
HETATM   33  C   UNL     3      -8.480  17.574  67.575  1.00  0.00    -0.216 A  
HETATM   34  C   UNL     3      -8.651  20.167  66.501  1.00  0.00    -0.327 A  
HETATM   35  C   UNL     3      -7.523  18.030  66.669  1.00  0.00    -0.256 A  
HETATM   36  I   UNL     3      -6.056  20.020  64.946  1.00  0.00    -0.343 I  
HETATM   37  C   UNL     3      -9.653  19.701  67.350  1.00  0.00    -0.455 A  
HETATM   38  C   UNL     3      -7.595  19.325  66.157  1.00  0.00    -0.287 A  
HETATM   39  C   UNL     3      -9.567  18.415  67.892  1.00  0.00    -0.309 A  
ENDBRANCH  32  33
ENDBRANCH  19  32
TORSDOF 4
ENDMDL
MODEL       58
REMARK 921   NORMALIZED FREE ENERGY PREDICTED BY IDOCK:   -6.25 KCAL/MOL
REMARK 922        TOTAL FREE ENERGY PREDICTED BY IDOCK:   -8.35 KCAL/MOL
REMARK 923 INTER-LIGAND FREE ENERGY PREDICTED BY IDOCK:   -7.56 KCAL/MOL
REMARK 924 INTRA-LIGAND FREE ENERGY PREDICTED BY IDOCK:   -0.80 KCAL/MOL
REMARK 927      BINDING AFFINITY PREDICTED BY RF-SCORE:    0.00 PKD
ROOT
HETATM    1  O   UNL     1      -7.501   9.115  69.469  1.00  0.00    -0.072 OA 
HETATM    2  S   UNL     1      -7.529   9.993  68.119  1.00  0.00    -0.084 S  
HETATM    3  N   UNL     2     -10.210   7.030  71.047  1.00  0.00    -0.197 NA 
HETATM    4  H1  UNL     2      -9.243   6.761  70.867  1.00  0.00     0.000 HD 
HETATM    5  H2  UNL     2     -10.523   7.321  71.973  1.00  0.00     0.000 HD 
HETATM    6  C   UNL     2     -11.053   6.980  70.002  1.00  0.00    -0.278 C  
HETATM    7  N   UNL     3     -10.028  10.050  70.506  1.00  0.00    -0.374 NA 
HETATM    8  O   UNL     1      -7.865  11.442  68.717  1.00  0.00    -0.136 OA 
HETATM    9  O   UNL     1      -6.195   9.994  67.566  1.00  0.00    -0.057 OA 
HETATM   10  O   UNL     1      -8.675   9.562  67.366  1.00  0.00    -0.125 OA 
HETATM   11  C   UNL     3     -10.896  10.561  69.605  1.00  0.00    -0.274 C  
HETATM   12  H1  UNL     3      -9.325  10.611  70.987  1.00  0.00     0.000 HD 
HETATM   13  H2  UNL     3     -10.078   9.053  70.715  1.00  0.00     0.000 HD 
HETATM   14  N   UNL     2     -10.559   6.834  68.767  1.00  0.00    -0.211 NA 
HETATM   15  N   UNL     2     -12.271   7.319  70.228  1.00  0.00    -0.548 NA 
HETATM   16  H2  UNL     2     -12.583   7.610  71.155  1.00  0.00     0.000 HD 
HETATM   17  H   UNL     2     -11.222   7.004  68.011  1.00  0.00     0.000 HD 
HETATM   18  N   UNL     3     -11.777   9.858  69.002  1.00  0.00    -0.436 NA 
HETATM   19  N   UNL     3     -10.694  11.869  69.330  1.00  0.00    -0.438 NA 
HETATM   20  H2  UNL     3     -11.828   8.861  69.211  1.00  0.00     0.000 HD 
HETATM   21  H1  UNL     2     -12.911   7.281  69.435  1.00  0.00     0.000 HD 
HETATM   22  H1  UNL     3     -12.433  10.243  68.322  1.00  0.00     0.000 HD 
HETATM   23  H   UNL     3      -9.789  12.319  69.469  1.00  0.00     0.000 HD 
ENDROOT
BRANCH  14  24
HETATM   24  C   UNL     2      -9.220   6.468  68.343  1.00  0.00    -0.121 C  
BRANCH  24  25
HETATM   25  C   UNL     2      -9.170   5.001  67.952  1.00  0.00    -0.135 A  
HETATM   26  I   UNL     2      -9.110   2.684  64.258  1.00  0.00    -0.131 I  
HETATM   27  C   UNL     2      -9.148   3.997  68.936  1.00  0.00    -0.191 A  
HETATM   28  C   UNL     2      -9.140   4.616  66.598  1.00  0.00    -0.119 A  
HETATM   29  C   UNL     2      -9.166   2.649  68.587  1.00  0.00    -0.239 A  
HETATM   30  C   UNL     2      -9.135   3.261  66.257  1.00  0.00    -0.155 A  
HETATM   31  C   UNL     2      -9.159   2.277  67.247  1.00  0.00    -0.166 A  
ENDBRANCH  24  25
ENDBRANCH  14  24
BRANCH  19  32
HETATM   32  C   UNL     3     -11.850  12.595  68.821  1.00  0.00    -0.300 C  
BRANCH  32  33
HETATM   33  C   UNL     3     -11.590  13.237  67.489  1.00  0.00    -0.388 A  
HETATM   34  C   UNL     3     -10.688  14.360  65.074  1.00  0.00    -0.440 A  
HETATM   35  C   UNL     3     -11.354  12.430  66.377  1.00  0.00    -0.392 A  
HETATM   36  I   UNL     3     -10.382  11.724  63.614  1.00  0.00    -0.536 I  
HETATM   37  C   UNL     3     -10.986  15.188  66.154  1.00  0.00    -0.331 A  
HETATM   38  C   UNL     3     -10.882  12.984  65.188  1.00  0.00    -0.300 A  
HETATM   39  C   UNL     3     -11.427  14.632  67.358  1.00  0.00    -0.384 A  
ENDBRANCH  32  33
ENDBRANCH  19  32
TORSDOF 4
ENDMDL
MODEL       59
REMARK 921   NORMALIZED FREE ENERGY PREDICTED BY IDOCK:   -6.23 KCAL/MOL
REMARK 922        TOTAL FREE ENERGY PREDICTED BY IDOCK:   -8.34 KCAL/MOL
REMARK 923 INTER-LIGAND FREE ENERGY PREDICTED BY IDOCK:   -7.60 KCAL/MOL
REMARK 924 INTRA-LIGAND FREE ENERGY PREDICTED BY IDOCK:   -0.74 KCAL/MOL
REMARK 927      BINDING AFFINITY PREDICTED BY RF-SCORE:    0.00 PKD
ROOT
HETATM    1  O   UNL     1      -9.992   8.711  66.368  1.00  0.00    -0.267 OA 
HETATM    2  S   UNL     1      -8.411   8.456  66.542  1.00  0.00    -0.117 S  
HETATM    3  N   UNL     2     -12.310  10.922  68.347  1.00  0.00    -0.655 NA 
HETATM    4  H1  UNL     2     -12.221  10.863  67.332  1.00  0.00     0.000 HD 
HETATM    5  H2  UNL     2     -13.066  10.452  68.847  1.00  0.00     0.000 HD 
HETATM    6  C   UNL     2     -11.384  11.650  68.991  1.00  0.00    -0.275 C  
HETATM    7  N   UNL     3     -10.663   8.460  69.165  1.00  0.00    -0.384 NA 
HETATM    8  O   UNL     1      -8.425   7.120  67.429  1.00  0.00    -0.121 OA 
HETATM    9  O   UNL     1      -7.865   8.166  65.237  1.00  0.00    -0.100 OA 
HETATM   10  O   UNL     1      -7.907   9.516  67.371  1.00  0.00    -0.101 OA 
HETATM   11  C   UNL     3      -9.658   8.665  70.045  1.00  0.00    -0.170 C  
HETATM   12  H1  UNL     3     -10.877   7.547  68.762  1.00  0.00     0.000 HD 
HETATM   13  H2  UNL     3     -11.234   9.258  68.889  1.00  0.00     0.000 HD 
HETATM   14  N   UNL     2     -10.284  12.041  68.337  1.00  0.00    -0.206 NA 
HETATM   15  N   UNL     2     -11.496  11.724  70.269  1.00  0.00    -0.510 NA 
HETATM   16  H2  UNL     2     -12.252  11.254  70.769  1.00  0.00     0.000 HD 
HETATM   17  H   UNL     2      -9.537  12.410  68.925  1.00  0.00     0.000 HD 
HETATM   18  N   UNL     3      -9.388   9.808  70.550  1.00  0.00    -0.350 NA 
HETATM   19  N   UNL     3      -8.903   7.568  70.281  1.00  0.00    -0.145 NA 
HETATM   20  H2  UNL     3      -9.960  10.607  70.275  1.00  0.00     0.000 HD 
HETATM   21  H1  UNL     2     -10.793  12.277  70.759  1.00  0.00     0.000 HD 
HETATM   22  H1  UNL     3      -8.630   9.963  71.215  1.00  0.00     0.000 HD 
HETATM   23  H   UNL     3      -8.838   6.800  69.612  1.00  0.00     0.000 HD 
ENDROOT
BRANCH  14  24
HETATM   24  C   UNL     2      -9.996  12.017  66.915  1.00  0.00    -0.202 C  
BRANCH  24  25
HETATM   25  C   UNL     2     -10.235  13.386  66.303  1.00  0.00    -0.298 A  
HETATM   26  I   UNL     2      -8.445  17.354  66.565  1.00  0.00    -0.251 I  
HETATM   27  C   UNL     2     -11.292  13.594  65.399  1.00  0.00    -0.311 A  
HETATM   28  C   UNL     2      -9.401  14.475  66.623  1.00  0.00    -0.301 A  
HETATM   29  C   UNL     2     -11.558  14.860  64.883  1.00  0.00    -0.395 A  
HETATM   30  C   UNL     2      -9.661  15.737  66.082  1.00  0.00    -0.332 A  
HETATM   31  C   UNL     2     -10.742  15.935  65.222  1.00  0.00    -0.442 A  
ENDBRANCH  24  25
ENDBRANCH  14  24
BRANCH  19  32
HETATM   32  C   UNL     3      -8.187   7.552  71.550  1.00  0.00    -0.103 C  
BRANCH  32  33
HETATM   33  C   UNL     3      -8.854   6.686  72.579  1.00  0.00    -0.131 A  
HETATM   34  C   UNL     3     -10.451   5.089  74.255  1.00  0.00    -0.328 A  
HETATM   35  C   UNL     3      -8.986   5.319  72.339  1.00  0.00    -0.137 A  
HETATM   36  I   UNL     3     -10.103   2.538  72.659  1.00  0.00    -0.208 I  
HETATM   37  C   UNL     3     -10.273   6.439  74.549  1.00  0.00    -0.310 A  
HETATM   38  C   UNL     3      -9.799   4.533  73.155  1.00  0.00    -0.137 A  
HETATM   39  C   UNL     3      -9.486   7.238  73.714  1.00  0.00    -0.313 A  
ENDBRANCH  32  33
ENDBRANCH  19  32
TORSDOF 4
ENDMDL
MODEL       60
REMARK 921   NORMALIZED FREE ENERGY PREDICTED BY IDOCK:   -6.23 KCAL/MOL
REMARK 922        TOTAL FREE ENERGY PREDICTED BY IDOCK:   -8.33 KCAL/MOL
REMARK 923 INTER-LIGAND FREE ENERGY PREDICTED BY IDOCK:   -7.56 KCAL/MOL
REMARK 924 INTRA-LIGAND FREE ENERGY PREDICTED BY IDOCK:   -0.77 KCAL/MOL
REMARK 927      BINDING AFFINITY PREDICTED BY RF-SCORE:    0.00 PKD
ROOT
HETATM    1  O   UNL     1     -11.299  14.229  65.246  1.00  0.00    -0.314 OA 
HETATM    2  S   UNL     1     -10.511  12.825  65.187  1.00  0.00    -0.307 S  
HETATM    3  N   UNL     2     -11.413  16.817  67.979  1.00  0.00     0.007 NA 
HETATM    4  H1  UNL     2     -11.243  16.969  66.985  1.00  0.00     0.000 HD 
HETATM    5  H2  UNL     2     -12.326  16.990  68.400  1.00  0.00     0.000 HD 
HETATM    6  C   UNL     2     -10.373  16.378  68.708  1.00  0.00    -0.275 C  
HETATM    7  N   UNL     3     -12.350  13.890  67.914  1.00  0.00    -0.453 NA 
HETATM    8  O   UNL     1     -11.667  11.820  65.663  1.00  0.00    -0.321 OA 
HETATM    9  O   UNL     1     -10.180  12.564  63.806  1.00  0.00    -0.416 OA 
HETATM   10  O   UNL     1      -9.518  12.861  66.225  1.00  0.00    -0.254 OA 
HETATM   11  C   UNL     3     -11.692  13.022  68.714  1.00  0.00    -0.324 C  
HETATM   12  H1  UNL     3     -13.113  13.614  67.296  1.00  0.00     0.000 HD 
HETATM   13  H2  UNL     3     -12.068  14.870  67.928  1.00  0.00     0.000 HD 
HETATM   14  N   UNL     2      -9.276  15.934  68.084  1.00  0.00    -0.189 NA 
HETATM   15  N   UNL     2     -10.587  16.187  69.960  1.00  0.00    -0.294 NA 
HETATM   16  H2  UNL     2     -11.501  16.360  70.380  1.00  0.00     0.000 HD 
HETATM   17  H   UNL     2      -8.613  15.434  68.676  1.00  0.00     0.000 HD 
HETATM   18  N   UNL     3     -10.735  13.367  69.489  1.00  0.00    -0.434 NA 
HETATM   19  N   UNL     3     -12.075  11.735  68.559  1.00  0.00    -0.455 NA 
HETATM   20  H2  UNL     3     -10.454  14.348  69.504  1.00  0.00     0.000 HD 
HETATM   21  H1  UNL     2      -9.798  15.854  70.513  1.00  0.00     0.000 HD 
HETATM   22  H1  UNL     3     -10.238  12.713  70.093  1.00  0.00     0.000 HD 
HETATM   23  H   UNL     3     -12.510  11.398  67.700  1.00  0.00     0.000 HD 
ENDROOT
BRANCH  14  24
HETATM   24  C   UNL     2      -8.890  16.056  66.691  1.00  0.00    -0.272 C  
BRANCH  24  25
HETATM   25  C   UNL     2      -7.590  16.832  66.568  1.00  0.00    -0.334 A  
HETATM   26  I   UNL     2      -6.195  20.418  64.515  1.00  0.00    -0.242 I  
HETATM   27  C   UNL     2      -6.427  16.393  67.226  1.00  0.00    -0.222 A  
HETATM   28  C   UNL     2      -7.521  18.010  65.799  1.00  0.00    -0.118 A  
HETATM   29  C   UNL     2      -5.216  17.062  67.069  1.00  0.00    -0.188 A  
HETATM   30  C   UNL     2      -6.308  18.688  65.666  1.00  0.00    -0.264 A  
HETATM   31  C   UNL     2      -5.153  18.212  66.289  1.00  0.00    -0.195 A  
ENDBRANCH  24  25
ENDBRANCH  14  24
BRANCH  19  32
HETATM   32  C   UNL     3     -11.829  10.859  69.697  1.00  0.00    -0.344 C  
BRANCH  32  33
HETATM   33  C   UNL     3     -10.822   9.787  69.395  1.00  0.00    -0.256 A  
HETATM   34  C   UNL     3      -8.641   8.085  68.891  1.00  0.00    -0.131 A  
HETATM   35  C   UNL     3     -10.152   9.164  70.446  1.00  0.00    -0.264 A  
HETATM   36  I   UNL     3      -7.982   7.571  71.802  1.00  0.00    -0.117 I  
HETATM   37  C   UNL     3      -9.343   8.644  67.826  1.00  0.00    -0.157 A  
HETATM   38  C   UNL     3      -9.054   8.340  70.197  1.00  0.00    -0.147 A  
HETATM   39  C   UNL     3     -10.423   9.497  68.073  1.00  0.00    -0.279 A  
ENDBRANCH  32  33
ENDBRANCH  19  32
TORSDOF 4
ENDMDL
MODEL       61
REMARK 921   NORMALIZED FREE ENERGY PREDICTED BY IDOCK:   -6.22 KCAL/MOL
REMARK 922        TOTAL FREE ENERGY PREDICTED BY IDOCK:   -8.32 KCAL/MOL
REMARK 923 INTER-LIGAND FREE ENERGY PREDICTED BY IDOCK:   -7.74 KCAL/MOL
REMARK 924 INTRA-LIGAND FREE ENERGY PREDICTED BY IDOCK:   -0.58 KCAL/MOL
REMARK 927      BINDING AFFINITY PREDICTED BY RF-SCORE:    0.00 PKD
ROOT
HETATM    1  O   UNL     1     -12.611  13.436  65.574  1.00  0.00    -0.475 OA 
HETATM    2  S   UNL     1     -11.885  14.000  64.252  1.00  0.00    -0.379 S  
HETATM    3  N   UNL     2     -11.121  12.232  68.816  1.00  0.00    -0.237 NA 
HETATM    4  H1  UNL     2     -11.889  12.892  68.691  1.00  0.00     0.000 HD 
HETATM    5  H2  UNL     2     -11.288  11.254  69.054  1.00  0.00     0.000 HD 
HETATM    6  C   UNL     2      -9.879  12.715  68.652  1.00  0.00    -0.069 C  
HETATM    7  N   UNL     3     -10.872  11.162  65.945  1.00  0.00    -0.205 NA 
HETATM    8  O   UNL     1     -11.816  12.666  63.364  1.00  0.00    -0.502 OA 
HETATM    9  O   UNL     1     -12.777  14.950  63.630  1.00  0.00    -0.689 OA 
HETATM   10  O   UNL     1     -10.540  14.336  64.626  1.00  0.00    -0.421 OA 
HETATM   11  C   UNL     3      -9.651  11.238  65.371  1.00  0.00    -0.228 C  
HETATM   12  H1  UNL     3     -11.693  10.788  65.469  1.00  0.00     0.000 HD 
HETATM   13  H2  UNL     3     -10.978  11.496  66.903  1.00  0.00     0.000 HD 
HETATM   14  N   UNL     2      -9.713  13.925  68.106  1.00  0.00    -0.216 NA 
HETATM   15  N   UNL     2      -8.912  11.885  68.809  1.00  0.00    -0.383 NA 
HETATM   16  H2  UNL     2      -9.079  10.906  69.047  1.00  0.00     0.000 HD 
HETATM   17  H   UNL     2      -8.757  14.148  67.826  1.00  0.00     0.000 HD 
HETATM   18  N   UNL     3      -8.622  11.707  65.967  1.00  0.00    -0.374 NA 
HETATM   19  N   UNL     3      -9.631  10.855  64.074  1.00  0.00    -0.254 NA 
HETATM   20  H2  UNL     3      -8.727  12.041  66.925  1.00  0.00     0.000 HD 
HETATM   21  H1  UNL     2      -7.968  12.252  68.685  1.00  0.00     0.000 HD 
HETATM   22  H1  UNL     3      -7.701  11.765  65.534  1.00  0.00     0.000 HD 
HETATM   23  H   UNL     3     -10.465  10.878  63.488  1.00  0.00     0.000 HD 
ENDROOT
BRANCH  14  24
HETATM   24  C   UNL     2     -10.689  14.969  67.852  1.00  0.00    -0.268 C  
BRANCH  24  25
HETATM   25  C   UNL     2     -10.049  16.339  67.994  1.00  0.00    -0.245 A  
HETATM   26  I   UNL     2      -6.054  17.935  68.711  1.00  0.00    -0.220 I  
HETATM   27  C   UNL     2     -10.827  17.507  67.911  1.00  0.00    -0.255 A  
HETATM   28  C   UNL     2      -8.663  16.469  68.207  1.00  0.00    -0.209 A  
HETATM   29  C   UNL     2     -10.260  18.764  68.104  1.00  0.00    -0.433 A  
HETATM   30  C   UNL     2      -8.098  17.735  68.376  1.00  0.00    -0.297 A  
HETATM   31  C   UNL     2      -8.894  18.882  68.336  1.00  0.00    -0.379 A  
ENDBRANCH  24  25
ENDBRANCH  14  24
BRANCH  19  32
HETATM   32  C   UNL     3      -8.340  10.407  63.566  1.00  0.00    -0.154 C  
BRANCH  32  33
HETATM   33  C   UNL     3      -8.195   8.913  63.592  1.00  0.00    -0.172 A  
HETATM   34  C   UNL     3      -7.512   6.190  63.748  1.00  0.00    -0.075 A  
HETATM   35  C   UNL     3      -8.210   8.248  64.817  1.00  0.00    -0.147 A  
HETATM   36  I   UNL     3      -7.718   6.000  66.764  1.00  0.00    -0.102 I  
HETATM   37  C   UNL     3      -7.560   6.822  62.508  1.00  0.00    -0.093 A  
HETATM   38  C   UNL     3      -7.846   6.904  64.897  1.00  0.00    -0.122 A  
HETATM   39  C   UNL     3      -7.891   8.178  62.428  1.00  0.00    -0.138 A  
ENDBRANCH  32  33
ENDBRANCH  19  32
TORSDOF 4
ENDMDL
MODEL       62
REMARK 921   NORMALIZED FREE ENERGY PREDICTED BY IDOCK:   -6.16 KCAL/MOL
REMARK 922        TOTAL FREE ENERGY PREDICTED BY IDOCK:   -8.24 KCAL/MOL
REMARK 923 INTER-LIGAND FREE ENERGY PREDICTED BY IDOCK:   -7.80 KCAL/MOL
REMARK 924 INTRA-LIGAND FREE ENERGY PREDICTED BY IDOCK:   -0.45 KCAL/MOL
REMARK 927      BINDING AFFINITY PREDICTED BY RF-SCORE:    0.00 PKD
ROOT
HETATM    1  O   UNL     1     -10.019   7.411  71.138  1.00  0.00    -0.185 OA 
HETATM    2  S   UNL     1     -11.171   6.290  71.043  1.00  0.00    -0.304 S  
HETATM    3  N   UNL     2      -9.277  10.306  68.846  1.00  0.00    -0.165 NA 
HETATM    4  H1  UNL     2      -9.359  10.322  69.863  1.00  0.00     0.000 HD 
HETATM    5  H2  UNL     2      -8.369  10.293  68.381  1.00  0.00     0.000 HD 
HETATM    6  C   UNL     2     -10.425  10.303  68.149  1.00  0.00    -0.190 C  
HETATM    7  N   UNL     3      -9.211   7.270  68.370  1.00  0.00    -0.138 NA 
HETATM    8  O   UNL     1     -10.369   5.106  70.318  1.00  0.00    -0.268 OA 
HETATM    9  O   UNL     1     -11.511   5.892  72.389  1.00  0.00    -0.292 OA 
HETATM   10  O   UNL     1     -12.152   6.777  70.112  1.00  0.00    -0.289 OA 
HETATM   11  C   UNL     3     -10.119   6.769  67.503  1.00  0.00    -0.170 C  
HETATM   12  H1  UNL     3      -8.535   6.691  68.869  1.00  0.00     0.000 HD 
HETATM   13  H2  UNL     3      -9.202   8.277  68.534  1.00  0.00     0.000 HD 
HETATM   14  N   UNL     2     -11.579  10.075  68.787  1.00  0.00    -0.502 NA 
HETATM   15  N   UNL     2     -10.322  10.283  66.869  1.00  0.00    -0.232 NA 
HETATM   16  H2  UNL     2      -9.414  10.270  66.405  1.00  0.00     0.000 HD 
HETATM   17  H   UNL     2     -12.379   9.887  68.183  1.00  0.00     0.000 HD 
HETATM   18  N   UNL     3     -10.966   7.494  66.877  1.00  0.00    -0.537 NA 
HETATM   19  N   UNL     3     -10.112   5.420  67.420  1.00  0.00    -0.168 NA 
HETATM   20  H2  UNL     3     -10.957   8.501  67.040  1.00  0.00     0.000 HD 
HETATM   21  H1  UNL     2     -11.195  10.281  66.340  1.00  0.00     0.000 HD 
HETATM   22  H1  UNL     3     -11.651   7.117  66.222  1.00  0.00     0.000 HD 
HETATM   23  H   UNL     3      -9.759   4.832  68.175  1.00  0.00     0.000 HD 
ENDROOT
BRANCH  14  24
HETATM   24  C   UNL     2     -11.861  10.053  70.211  1.00  0.00    -0.216 C  
BRANCH  24  25
HETATM   25  C   UNL     2     -12.277  11.433  70.689  1.00  0.00    -0.484 A  
HETATM   26  I   UNL     2     -11.471  15.572  69.575  1.00  0.00    -0.430 I  
HETATM   27  C   UNL     2     -13.141  11.583  71.788  1.00  0.00    -0.503 A  
HETATM   28  C   UNL     2     -11.811  12.593  70.039  1.00  0.00    -0.358 A  
HETATM   29  C   UNL     2     -13.477  12.844  72.272  1.00  0.00    -0.631 A  
HETATM   30  C   UNL     2     -12.172  13.854  70.517  1.00  0.00    -0.373 A  
HETATM   31  C   UNL     2     -12.994  13.984  71.638  1.00  0.00    -0.430 A  
ENDBRANCH  24  25
ENDBRANCH  14  24
BRANCH  19  32
HETATM   32  C   UNL     3     -10.641   4.858  66.184  1.00  0.00    -0.271 C  
BRANCH  32  33
HETATM   33  C   UNL     3      -9.592   4.151  65.374  1.00  0.00    -0.187 A  
HETATM   34  C   UNL     3      -7.391   3.180  63.919  1.00  0.00    -0.061 A  
HETATM   35  C   UNL     3      -8.528   3.533  66.028  1.00  0.00    -0.112 A  
HETATM   36  I   UNL     3      -5.788   2.316  66.339  1.00  0.00    -0.024 I  
HETATM   37  C   UNL     3      -8.478   3.732  63.245  1.00  0.00    -0.091 A  
HETATM   38  C   UNL     3      -7.425   3.075  65.308  1.00  0.00    -0.076 A  
HETATM   39  C   UNL     3      -9.570   4.223  63.966  1.00  0.00    -0.109 A  
ENDBRANCH  32  33
ENDBRANCH  19  32
TORSDOF 4
ENDMDL
MODEL       63
REMARK 921   NORMALIZED FREE ENERGY PREDICTED BY IDOCK:   -6.10 KCAL/MOL
REMARK 922        TOTAL FREE ENERGY PREDICTED BY IDOCK:   -8.17 KCAL/MOL
REMARK 923 INTER-LIGAND FREE ENERGY PREDICTED BY IDOCK:   -7.67 KCAL/MOL
REMARK 924 INTRA-LIGAND FREE ENERGY PREDICTED BY IDOCK:   -0.50 KCAL/MOL
REMARK 927      BINDING AFFINITY PREDICTED BY RF-SCORE:    0.00 PKD
ROOT
HETATM    1  O   UNL     1      -8.056  10.776  64.416  1.00  0.00    -0.019 OA 
HETATM    2  S   UNL     1      -9.575  10.577  63.921  1.00  0.00    -0.323 S  
HETATM    3  N   UNL     2      -6.613  10.624  67.892  1.00  0.00    -0.060 NA 
HETATM    4  H1  UNL     2      -6.265  10.160  67.052  1.00  0.00     0.000 HD 
HETATM    5  H2  UNL     2      -6.191  11.483  68.244  1.00  0.00     0.000 HD 
HETATM    6  C   UNL     2      -7.655  10.046  68.511  1.00  0.00    -0.087 C  
HETATM    7  N   UNL     3      -8.670  12.526  66.628  1.00  0.00    -0.378 NA 
HETATM    8  O   UNL     1     -10.064  12.103  63.854  1.00  0.00    -0.351 OA 
HETATM    9  O   UNL     1      -9.535  10.022  62.588  1.00  0.00    -0.292 OA 
HETATM   10  O   UNL     1     -10.285   9.945  64.998  1.00  0.00    -0.221 OA 
HETATM   11  C   UNL     3      -9.932  12.466  67.111  1.00  0.00    -0.207 C  
HETATM   12  H1  UNL     3      -8.389  13.150  65.872  1.00  0.00     0.000 HD 
HETATM   13  H2  UNL     3      -7.965  11.916  67.041  1.00  0.00     0.000 HD 
HETATM   14  N   UNL     2      -8.329   9.070  67.890  1.00  0.00    -0.117 NA 
HETATM   15  N   UNL     2      -8.093  10.630  69.568  1.00  0.00    -0.351 NA 
HETATM   16  H2  UNL     2      -7.670  11.489  69.920  1.00  0.00     0.000 HD 
HETATM   17  H   UNL     2      -9.218   8.816  68.320  1.00  0.00     0.000 HD 
HETATM   18  N   UNL     3     -10.285  11.684  68.058  1.00  0.00    -0.185 NA 
HETATM   19  N   UNL     3     -10.812  13.245  66.442  1.00  0.00    -0.286 NA 
HETATM   20  H2  UNL     3      -9.580  11.074  68.472  1.00  0.00     0.000 HD 
HETATM   21  H1  UNL     2      -8.885  10.191  70.039  1.00  0.00     0.000 HD 
HETATM   22  H1  UNL     3     -11.237  11.638  68.422  1.00  0.00     0.000 HD 
HETATM   23  H   UNL     3     -10.655  13.536  65.477  1.00  0.00     0.000 HD 
ENDROOT
BRANCH  14  24
HETATM   24  C   UNL     2      -7.982   8.321  66.697  1.00  0.00    -0.098 C  
BRANCH  24  25
HETATM   25  C   UNL     2      -8.880   7.103  66.557  1.00  0.00    -0.154 A  
HETATM   26  I   UNL     2      -8.634   3.151  64.730  1.00  0.00    -0.111 I  
HETATM   27  C   UNL     2     -10.177   7.102  67.100  1.00  0.00    -0.327 A  
HETATM   28  C   UNL     2      -8.431   5.949  65.888  1.00  0.00    -0.141 A  
HETATM   29  C   UNL     2     -11.029   6.015  66.922  1.00  0.00    -0.350 A  
HETATM   30  C   UNL     2      -9.284   4.853  65.735  1.00  0.00    -0.154 A  
HETATM   31  C   UNL     2     -10.585   4.887  66.240  1.00  0.00    -0.307 A  
ENDBRANCH  24  25
ENDBRANCH  14  24
BRANCH  19  32
HETATM   32  C   UNL     3     -12.000  13.642  67.187  1.00  0.00    -0.393 C  
BRANCH  32  33
HETATM   33  C   UNL     3     -11.673  14.462  68.402  1.00  0.00    -0.367 A  
HETATM   34  C   UNL     3     -11.436  16.196  70.603  1.00  0.00    -0.386 A  
HETATM   35  C   UNL     3     -12.279  14.150  69.619  1.00  0.00    -0.376 A  
HETATM   36  I   UNL     3     -13.242  14.601  72.438  1.00  0.00    -0.671 I  
HETATM   37  C   UNL     3     -10.768  16.488  69.416  1.00  0.00    -0.330 A  
HETATM   38  C   UNL     3     -12.182  15.023  70.701  1.00  0.00    -0.326 A  
HETATM   39  C   UNL     3     -10.890  15.632  68.318  1.00  0.00    -0.298 A  
ENDBRANCH  32  33
ENDBRANCH  19  32
TORSDOF 4
ENDMDL
MODEL       64
REMARK 921   NORMALIZED FREE ENERGY PREDICTED BY IDOCK:   -6.07 KCAL/MOL
REMARK 922        TOTAL FREE ENERGY PREDICTED BY IDOCK:   -8.14 KCAL/MOL
REMARK 923 INTER-LIGAND FREE ENERGY PREDICTED BY IDOCK:   -7.43 KCAL/MOL
REMARK 924 INTRA-LIGAND FREE ENERGY PREDICTED BY IDOCK:   -0.70 KCAL/MOL
REMARK 927      BINDING AFFINITY PREDICTED BY RF-SCORE:    0.00 PKD
ROOT
HETATM    1  O   UNL     1      -9.582  11.580  66.706  1.00  0.00    -0.181 OA 
HETATM    2  S   UNL     1     -10.901  11.957  67.550  1.00  0.00    -0.252 S  
HETATM    3  N   UNL     2      -5.950  12.151  67.523  1.00  0.00    -0.107 NA 
HETATM    4  H1  UNL     2      -6.388  11.287  67.202  1.00  0.00     0.000 HD 
HETATM    5  H2  UNL     2      -5.435  12.759  66.887  1.00  0.00     0.000 HD 
HETATM    6  C   UNL     2      -6.087  12.447  68.826  1.00  0.00    -0.069 C  
HETATM    7  N   UNL     3      -8.256  14.123  67.034  1.00  0.00    -0.374 NA 
HETATM    8  O   UNL     1     -11.290  13.358  66.873  1.00  0.00    -0.302 OA 
HETATM    9  O   UNL     1     -11.914  10.975  67.247  1.00  0.00    -0.351 OA 
HETATM   10  O   UNL     1     -10.471  12.234  68.893  1.00  0.00    -0.195 OA 
HETATM   11  C   UNL     3      -8.648  14.875  68.087  1.00  0.00    -0.159 C  
HETATM   12  H1  UNL     3      -8.696  14.175  66.115  1.00  0.00     0.000 HD 
HETATM   13  H2  UNL     3      -7.483  13.472  67.166  1.00  0.00     0.000 HD 
HETATM   14  N   UNL     2      -6.967  11.762  69.566  1.00  0.00    -0.322 NA 
HETATM   15  N   UNL     2      -5.536  13.534  69.230  1.00  0.00    -0.076 NA 
HETATM   16  H2  UNL     2      -5.020  14.143  68.594  1.00  0.00     0.000 HD 
HETATM   17  H   UNL     2      -7.167  12.161  70.483  1.00  0.00     0.000 HD 
HETATM   18  N   UNL     3      -8.099  14.811  69.239  1.00  0.00    -0.324 NA 
HETATM   19  N   UNL     3      -9.735  15.640  67.840  1.00  0.00    -0.211 NA 
HETATM   20  H2  UNL     3      -7.325  14.160  69.372  1.00  0.00     0.000 HD 
HETATM   21  H1  UNL     2      -5.640  13.760  70.220  1.00  0.00     0.000 HD 
HETATM   22  H1  UNL     3      -8.394  15.378  70.034  1.00  0.00     0.000 HD 
HETATM   23  H   UNL     3     -10.407  15.408  67.108  1.00  0.00     0.000 HD 
ENDROOT
BRANCH  14  24
HETATM   24  C   UNL     2      -7.678  10.535  69.258  1.00  0.00    -0.144 C  
BRANCH  24  25
HETATM   25  C   UNL     2      -7.701   9.618  70.469  1.00  0.00    -0.152 A  
HETATM   26  I   UNL     2     -10.689   7.364  72.707  1.00  0.00    -0.458 I  
HETATM   27  C   UNL     2      -6.520   9.334  71.177  1.00  0.00    -0.083 A  
HETATM   28  C   UNL     2      -8.904   9.029  70.906  1.00  0.00    -0.294 A  
HETATM   29  C   UNL     2      -6.542   8.547  72.325  1.00  0.00    -0.091 A  
HETATM   30  C   UNL     2      -8.913   8.222  72.045  1.00  0.00    -0.196 A  
HETATM   31  C   UNL     2      -7.739   7.988  72.763  1.00  0.00    -0.169 A  
ENDBRANCH  24  25
ENDBRANCH  14  24
BRANCH  19  32
HETATM   32  C   UNL     3      -9.886  16.818  68.684  1.00  0.00    -0.261 C  
BRANCH  32  33
HETATM   33  C   UNL     3      -9.555  18.093  67.964  1.00  0.00    -0.304 A  
HETATM   34  C   UNL     3      -8.996  20.673  66.994  1.00  0.00    -0.317 A  
HETATM   35  C   UNL     3      -8.277  18.635  68.089  1.00  0.00    -0.327 A  
HETATM   36  I   UNL     3      -6.137  20.756  67.993  1.00  0.00    -0.356 I  
HETATM   37  C   UNL     3     -10.258  20.118  66.799  1.00  0.00    -0.562 A  
HETATM   38  C   UNL     3      -8.007  19.925  67.631  1.00  0.00    -0.292 A  
HETATM   39  C   UNL     3     -10.542  18.839  67.287  1.00  0.00    -0.504 A  
ENDBRANCH  32  33
ENDBRANCH  19  32
TORSDOF 4
ENDMDL
MODEL       65
REMARK 921   NORMALIZED FREE ENERGY PREDICTED BY IDOCK:   -6.07 KCAL/MOL
REMARK 922        TOTAL FREE ENERGY PREDICTED BY IDOCK:   -8.13 KCAL/MOL
REMARK 923 INTER-LIGAND FREE ENERGY PREDICTED BY IDOCK:   -7.33 KCAL/MOL
REMARK 924 INTRA-LIGAND FREE ENERGY PREDICTED BY IDOCK:   -0.80 KCAL/MOL
REMARK 927      BINDING AFFINITY PREDICTED BY RF-SCORE:    0.00 PKD
ROOT
HETATM    1  O   UNL     1     -12.010  11.190  68.230  1.00  0.00    -0.592 OA 
HETATM    2  S   UNL     1     -11.618  12.457  69.144  1.00  0.00    -0.327 S  
HETATM    3  N   UNL     2     -10.267   9.761  65.214  1.00  0.00    -0.263 NA 
HETATM    4  H1  UNL     2     -10.605   9.257  66.034  1.00  0.00     0.000 HD 
HETATM    5  H2  UNL     2     -10.793   9.775  64.339  1.00  0.00     0.000 HD 
HETATM    6  C   UNL     2      -9.095  10.403  65.342  1.00  0.00    -0.189 C  
HETATM    7  N   UNL     3     -11.593  12.493  65.688  1.00  0.00    -0.370 NA 
HETATM    8  O   UNL     1     -12.521  13.597  68.470  1.00  0.00    -0.095 OA 
HETATM    9  O   UNL     1     -12.088  12.196  70.484  1.00  0.00    -0.364 OA 
HETATM   10  O   UNL     1     -10.245  12.769  68.856  1.00  0.00    -0.127 OA 
HETATM   11  C   UNL     3     -10.779  13.572  65.692  1.00  0.00    -0.281 C  
HETATM   12  H1  UNL     3     -12.599  12.550  65.848  1.00  0.00     0.000 HD 
HETATM   13  H2  UNL     3     -11.180  11.576  65.518  1.00  0.00     0.000 HD 
HETATM   14  N   UNL     2      -8.565  10.564  66.560  1.00  0.00    -0.134 NA 
HETATM   15  N   UNL     2      -8.669  11.037  64.309  1.00  0.00    -0.374 NA 
HETATM   16  H2  UNL     2      -9.195  11.051  63.435  1.00  0.00     0.000 HD 
HETATM   17  H   UNL     2      -7.790  11.225  66.613  1.00  0.00     0.000 HD 
HETATM   18  N   UNL     3      -9.518  13.502  65.491  1.00  0.00    -0.491 NA 
HETATM   19  N   UNL     3     -11.402  14.728  66.014  1.00  0.00    -0.343 NA 
HETATM   20  H2  UNL     3      -9.105  12.585  65.320  1.00  0.00     0.000 HD 
HETATM   21  H1  UNL     2      -7.778  11.525  64.407  1.00  0.00     0.000 HD 
HETATM   22  H1  UNL     3      -8.903  14.316  65.494  1.00  0.00     0.000 HD 
HETATM   23  H   UNL     3     -12.265  14.746  66.558  1.00  0.00     0.000 HD 
ENDROOT
BRANCH  14  24
HETATM   24  C   UNL     2      -8.929   9.938  67.818  1.00  0.00    -0.131 C  
BRANCH  24  25
HETATM   25  C   UNL     2      -8.226   8.600  67.967  1.00  0.00    -0.115 A  
HETATM   26  I   UNL     2      -9.368   4.393  68.092  1.00  0.00    -0.192 I  
HETATM   27  C   UNL     2      -6.831   8.536  68.132  1.00  0.00    -0.069 A  
HETATM   28  C   UNL     2      -8.954   7.395  67.937  1.00  0.00    -0.131 A  
HETATM   29  C   UNL     2      -6.186   7.319  68.332  1.00  0.00    -0.035 A  
HETATM   30  C   UNL     2      -8.296   6.176  68.115  1.00  0.00    -0.114 A  
HETATM   31  C   UNL     2      -6.916   6.135  68.324  1.00  0.00    -0.080 A  
ENDBRANCH  24  25
ENDBRANCH  14  24
BRANCH  19  32
HETATM   32  C   UNL     3     -10.764  15.947  65.535  1.00  0.00    -0.372 C  
BRANCH  32  33
HETATM   33  C   UNL     3     -10.418  16.894  66.647  1.00  0.00    -0.257 A  
HETATM   34  C   UNL     3      -9.404  18.444  68.763  1.00  0.00    -0.301 A  
HETATM   35  C   UNL     3      -9.541  17.949  66.396  1.00  0.00    -0.294 A  
HETATM   36  I   UNL     3      -7.586  20.149  67.043  1.00  0.00    -0.356 I  
HETATM   37  C   UNL     3     -10.332  17.439  69.024  1.00  0.00    -0.319 A  
HETATM   38  C   UNL     3      -9.019  18.700  67.449  1.00  0.00    -0.272 A  
HETATM   39  C   UNL     3     -10.833  16.662  67.975  1.00  0.00    -0.337 A  
ENDBRANCH  32  33
ENDBRANCH  19  32
TORSDOF 4
ENDMDL
MODEL       66
REMARK 921   NORMALIZED FREE ENERGY PREDICTED BY IDOCK:   -6.04 KCAL/MOL
REMARK 922        TOTAL FREE ENERGY PREDICTED BY IDOCK:   -8.10 KCAL/MOL
REMARK 923 INTER-LIGAND FREE ENERGY PREDICTED BY IDOCK:   -7.36 KCAL/MOL
REMARK 924 INTRA-LIGAND FREE ENERGY PREDICTED BY IDOCK:   -0.74 KCAL/MOL
REMARK 927      BINDING AFFINITY PREDICTED BY RF-SCORE:    0.00 PKD
ROOT
HETATM    1  O   UNL     1      -7.789  11.321  67.218  1.00  0.00    -0.127 OA 
HETATM    2  S   UNL     1      -7.516  11.768  68.741  1.00  0.00    -0.082 S  
HETATM    3  N   UNL     2     -10.709  12.083  64.966  1.00  0.00    -0.285 NA 
HETATM    4  H1  UNL     2      -9.716  12.171  64.749  1.00  0.00     0.000 HD 
HETATM    5  H2  UNL     2     -11.258  11.282  64.651  1.00  0.00     0.000 HD 
HETATM    6  C   UNL     2     -11.259  13.074  65.687  1.00  0.00    -0.283 C  
HETATM    7  N   UNL     3     -10.535  10.523  67.609  1.00  0.00    -0.217 NA 
HETATM    8  O   UNL     1      -8.058  10.480  69.527  1.00  0.00    -0.154 OA 
HETATM    9  O   UNL     1      -6.088  11.879  68.919  1.00  0.00    -0.055 OA 
HETATM   10  O   UNL     1      -8.415  12.853  69.024  1.00  0.00     0.218 OA 
HETATM   11  C   UNL     3     -11.172  11.058  68.675  1.00  0.00    -0.263 C  
HETATM   12  H1  UNL     3     -10.003   9.654  67.653  1.00  0.00     0.000 HD 
HETATM   13  H2  UNL     3     -10.591  11.013  66.716  1.00  0.00     0.000 HD 
HETATM   14  N   UNL     2     -10.464  13.970  66.283  1.00  0.00    -0.282 NA 
HETATM   15  N   UNL     2     -12.509  12.963  65.960  1.00  0.00    -0.491 NA 
HETATM   16  H2  UNL     2     -13.057  12.162  65.645  1.00  0.00     0.000 HD 
HETATM   17  H   UNL     2     -10.923  14.569  66.970  1.00  0.00     0.000 HD 
HETATM   18  N   UNL     3     -11.839  12.147  68.621  1.00  0.00    -0.318 NA 
HETATM   19  N   UNL     3     -10.967  10.385  69.830  1.00  0.00    -0.273 NA 
HETATM   20  H2  UNL     3     -11.896  12.637  67.728  1.00  0.00     0.000 HD 
HETATM   21  H1  UNL     2     -12.926  13.716  66.507  1.00  0.00     0.000 HD 
HETATM   22  H1  UNL     3     -12.320  12.551  69.425  1.00  0.00     0.000 HD 
HETATM   23  H   UNL     3     -10.148   9.795  69.976  1.00  0.00     0.000 HD 
ENDROOT
BRANCH  14  24
HETATM   24  C   UNL     2      -9.046  14.218  66.097  1.00  0.00     0.023 C  
BRANCH  24  25
HETATM   25  C   UNL     2      -8.657  15.554  66.708  1.00  0.00    -0.307 A  
HETATM   26  I   UNL     2     -10.389  19.545  67.014  1.00  0.00    -0.641 I  
HETATM   27  C   UNL     2      -7.431  15.708  67.377  1.00  0.00    -0.235 A  
HETATM   28  C   UNL     2      -9.519  16.664  66.622  1.00  0.00    -0.271 A  
HETATM   29  C   UNL     2      -7.039  16.944  67.884  1.00  0.00    -0.162 A  
HETATM   30  C   UNL     2      -9.129  17.895  67.154  1.00  0.00    -0.251 A  
HETATM   31  C   UNL     2      -7.887  18.041  67.775  1.00  0.00    -0.223 A  
ENDBRANCH  24  25
ENDBRANCH  14  24
BRANCH  19  32
HETATM   32  C   UNL     3     -11.990  10.557  70.853  1.00  0.00    -0.377 C  
BRANCH  32  33
HETATM   33  C   UNL     3     -12.510   9.250  71.378  1.00  0.00    -0.418 A  
HETATM   34  C   UNL     3     -13.404   6.649  71.965  1.00  0.00    -0.003 A  
HETATM   35  C   UNL     3     -11.605   8.257  71.752  1.00  0.00    -0.356 A  
HETATM   36  I   UNL     3     -10.646   5.476  72.404  1.00  0.00    -0.303 I  
HETATM   37  C   UNL     3     -14.327   7.647  71.661  1.00  0.00    -0.613 A  
HETATM   38  C   UNL     3     -12.046   6.961  72.018  1.00  0.00    -0.296 A  
HETATM   39  C   UNL     3     -13.885   8.939  71.361  1.00  0.00    -0.312 A  
ENDBRANCH  32  33
ENDBRANCH  19  32
TORSDOF 4
ENDMDL
MODEL       67
REMARK 921   NORMALIZED FREE ENERGY PREDICTED BY IDOCK:   -6.04 KCAL/MOL
REMARK 922        TOTAL FREE ENERGY PREDICTED BY IDOCK:   -8.09 KCAL/MOL
REMARK 923 INTER-LIGAND FREE ENERGY PREDICTED BY IDOCK:   -7.44 KCAL/MOL
REMARK 924 INTRA-LIGAND FREE ENERGY PREDICTED BY IDOCK:   -0.66 KCAL/MOL
REMARK 927      BINDING AFFINITY PREDICTED BY RF-SCORE:    0.00 PKD
ROOT
HETATM    1  O   UNL     1      -8.540   7.104  67.681  1.00  0.00    -0.122 OA 
HETATM    2  S   UNL     1     -10.122   6.955  67.945  1.00  0.00    -0.174 S  
HETATM    3  N   UNL     2      -6.073   9.554  69.126  1.00  0.00    -0.041 NA 
HETATM    4  H1  UNL     2      -5.976   8.541  69.058  1.00  0.00     0.000 HD 
HETATM    5  H2  UNL     2      -5.619  10.183  68.463  1.00  0.00     0.000 HD 
HETATM    6  C   UNL     2      -6.828  10.020  70.134  1.00  0.00    -0.137 C  
HETATM    7  N   UNL     3      -8.543   9.971  67.344  1.00  0.00    -0.125 NA 
HETATM    8  O   UNL     1     -10.705   7.795  66.709  1.00  0.00    -0.311 OA 
HETATM    9  O   UNL     1     -10.465   5.562  67.789  1.00  0.00    -0.205 OA 
HETATM   10  O   UNL     1     -10.415   7.693  69.142  1.00  0.00    -0.215 OA 
HETATM   11  C   UNL     3      -9.582  10.640  67.891  1.00  0.00    -0.162 C  
HETATM   12  H1  UNL     3      -8.554   9.597  66.395  1.00  0.00     0.000 HD 
HETATM   13  H2  UNL     3      -7.705   9.833  67.910  1.00  0.00     0.000 HD 
HETATM   14  N   UNL     2      -7.597   9.171  70.825  1.00  0.00    -0.123 NA 
HETATM   15  N   UNL     2      -6.949  11.296  70.221  1.00  0.00    -0.442 NA 
HETATM   16  H2  UNL     2      -6.495  11.924  69.557  1.00  0.00     0.000 HD 
HETATM   17  H   UNL     2      -8.288   9.609  71.435  1.00  0.00     0.000 HD 
HETATM   18  N   UNL     3      -9.568  11.109  69.080  1.00  0.00    -0.408 NA 
HETATM   19  N   UNL     3     -10.677  10.695  67.099  1.00  0.00    -0.268 NA 
HETATM   20  H2  UNL     3      -8.731  10.971  69.646  1.00  0.00     0.000 HD 
HETATM   21  H1  UNL     2      -7.523  11.651  70.987  1.00  0.00     0.000 HD 
HETATM   22  H1  UNL     3     -10.353  11.614  69.494  1.00  0.00     0.000 HD 
HETATM   23  H   UNL     3     -10.850  10.008  66.365  1.00  0.00     0.000 HD 
ENDROOT
BRANCH  14  24
HETATM   24  C   UNL     2      -7.595   7.720  70.836  1.00  0.00    -0.079 C  
BRANCH  24  25
HETATM   25  C   UNL     2      -8.673   7.196  71.769  1.00  0.00    -0.121 A  
HETATM   26  I   UNL     2     -10.132   3.305  73.093  1.00  0.00    -0.260 I  
HETATM   27  C   UNL     2      -9.522   8.082  72.455  1.00  0.00    -0.279 A  
HETATM   28  C   UNL     2      -8.842   5.813  71.972  1.00  0.00    -0.138 A  
HETATM   29  C   UNL     2     -10.553   7.611  73.262  1.00  0.00    -0.411 A  
HETATM   30  C   UNL     2      -9.864   5.348  72.803  1.00  0.00    -0.157 A  
HETATM   31  C   UNL     2     -10.727   6.242  73.440  1.00  0.00    -0.281 A  
ENDBRANCH  24  25
ENDBRANCH  14  24
BRANCH  19  32
HETATM   32  C   UNL     3     -11.594  11.796  67.361  1.00  0.00    -0.280 C  
BRANCH  32  33
HETATM   33  C   UNL     3     -11.419  12.936  66.399  1.00  0.00    -0.389 A  
HETATM   34  C   UNL     3     -11.294  15.307  64.893  1.00  0.00    -0.387 A  
HETATM   35  C   UNL     3     -10.396  13.859  66.614  1.00  0.00    -0.278 A  
HETATM   36  I   UNL     3      -8.910  16.468  66.356  1.00  0.00    -0.319 I  
HETATM   37  C   UNL     3     -12.281  14.363  64.618  1.00  0.00    -0.479 A  
HETATM   38  C   UNL     3     -10.350  15.046  65.884  1.00  0.00    -0.313 A  
HETATM   39  C   UNL     3     -12.351  13.187  65.370  1.00  0.00    -0.532 A  
ENDBRANCH  32  33
ENDBRANCH  19  32
TORSDOF 4
ENDMDL
MODEL       68
REMARK 921   NORMALIZED FREE ENERGY PREDICTED BY IDOCK:   -6.01 KCAL/MOL
REMARK 922        TOTAL FREE ENERGY PREDICTED BY IDOCK:   -8.06 KCAL/MOL
REMARK 923 INTER-LIGAND FREE ENERGY PREDICTED BY IDOCK:   -7.14 KCAL/MOL
REMARK 924 INTRA-LIGAND FREE ENERGY PREDICTED BY IDOCK:   -0.92 KCAL/MOL
REMARK 927      BINDING AFFINITY PREDICTED BY RF-SCORE:    0.00 PKD
ROOT
HETATM    1  O   UNL     1      -9.214   6.622  68.126  1.00  0.00    -0.120 OA 
HETATM    2  S   UNL     1     -10.363   7.544  67.475  1.00  0.00    -0.273 S  
HETATM    3  N   UNL     2      -6.929   7.313  71.038  1.00  0.00    -0.059 NA 
HETATM    4  H1  UNL     2      -7.488   6.476  70.870  1.00  0.00     0.000 HD 
HETATM    5  H2  UNL     2      -5.930   7.341  70.832  1.00  0.00     0.000 HD 
HETATM    6  C   UNL     2      -7.574   8.376  71.545  1.00  0.00    -0.101 C  
HETATM    7  N   UNL     3      -7.210   8.692  68.306  1.00  0.00    -0.084 NA 
HETATM    8  O   UNL     1      -9.548   8.223  66.273  1.00  0.00    -0.220 OA 
HETATM    9  O   UNL     1     -11.379   6.669  66.938  1.00  0.00    -0.333 OA 
HETATM   10  O   UNL     1     -10.660   8.576  68.429  1.00  0.00    -0.193 OA 
HETATM   11  C   UNL     3      -7.660   9.966  68.310  1.00  0.00    -0.080 C  
HETATM   12  H1  UNL     3      -6.982   8.181  67.452  1.00  0.00     0.000 HD 
HETATM   13  H2  UNL     3      -7.093   8.216  69.200  1.00  0.00     0.000 HD 
HETATM   14  N   UNL     2      -8.912   8.381  71.570  1.00  0.00    -0.175 NA 
HETATM   15  N   UNL     2      -6.870   9.429  71.757  1.00  0.00    -0.304 NA 
HETATM   16  H2  UNL     2      -5.871   9.457  71.550  1.00  0.00     0.000 HD 
HETATM   17  H   UNL     2      -9.339   9.284  71.776  1.00  0.00     0.000 HD 
HETATM   18  N   UNL     3      -7.946  10.606  69.379  1.00  0.00    -0.291 NA 
HETATM   19  N   UNL     3      -7.867  10.479  67.076  1.00  0.00    -0.112 NA 
HETATM   20  H2  UNL     3      -7.829  10.132  70.275  1.00  0.00     0.000 HD 
HETATM   21  H1  UNL     2      -7.360  10.237  72.142  1.00  0.00     0.000 HD 
HETATM   22  H1  UNL     3      -8.286  11.568  69.383  1.00  0.00     0.000 HD 
HETATM   23  H   UNL     3      -8.041   9.886  66.264  1.00  0.00     0.000 HD 
ENDROOT
BRANCH  14  24
HETATM   24  C   UNL     2      -9.846   7.293  71.348  1.00  0.00    -0.186 C  
BRANCH  24  25
HETATM   25  C   UNL     2     -11.276   7.798  71.429  1.00  0.00    -0.276 A  
HETATM   26  I   UNL     2     -13.285  11.662  71.670  1.00  0.00     0.232 I  
HETATM   27  C   UNL     2     -12.355   6.898  71.458  1.00  0.00    -0.420 A  
HETATM   28  C   UNL     2     -11.552   9.179  71.472  1.00  0.00    -0.439 A  
HETATM   29  C   UNL     2     -13.665   7.349  71.597  1.00  0.00    -0.468 A  
HETATM   30  C   UNL     2     -12.871   9.624  71.587  1.00  0.00    -0.405 A  
HETATM   31  C   UNL     2     -13.927   8.714  71.661  1.00  0.00    -0.459 A  
ENDBRANCH  24  25
ENDBRANCH  14  24
BRANCH  19  32
HETATM   32  C   UNL     3      -7.826  11.932  66.979  1.00  0.00    -0.152 C  
BRANCH  32  33
HETATM   33  C   UNL     3      -9.190  12.540  66.824  1.00  0.00    -0.217 A  
HETATM   34  C   UNL     3     -11.868  13.399  66.834  1.00  0.00    -0.453 A  
HETATM   35  C   UNL     3      -9.630  13.477  67.758  1.00  0.00    -0.219 A  
HETATM   36  I   UNL     3     -11.613  15.148  69.294  1.00  0.00    -0.394 I  
HETATM   37  C   UNL     3     -11.427  12.516  65.851  1.00  0.00    -0.417 A  
HETATM   38  C   UNL     3     -10.964  13.883  67.779  1.00  0.00    -0.256 A  
HETATM   39  C   UNL     3     -10.099  12.081  65.847  1.00  0.00    -0.264 A  
ENDBRANCH  32  33
ENDBRANCH  19  32
TORSDOF 4
ENDMDL
MODEL       69
REMARK 921   NORMALIZED FREE ENERGY PREDICTED BY IDOCK:   -5.99 KCAL/MOL
REMARK 922        TOTAL FREE ENERGY PREDICTED BY IDOCK:   -8.04 KCAL/MOL
REMARK 923 INTER-LIGAND FREE ENERGY PREDICTED BY IDOCK:   -7.44 KCAL/MOL
REMARK 924 INTRA-LIGAND FREE ENERGY PREDICTED BY IDOCK:   -0.60 KCAL/MOL
REMARK 927      BINDING AFFINITY PREDICTED BY RF-SCORE:    0.00 PKD
ROOT
HETATM    1  O   UNL     1      -8.478  10.242  64.776  1.00  0.00    -0.163 OA 
HETATM    2  S   UNL     1      -9.589  10.679  63.695  1.00  0.00    -0.338 S  
HETATM    3  N   UNL     2      -8.640  10.253  68.538  1.00  0.00    -0.120 NA 
HETATM    4  H1  UNL     2      -8.327   9.495  67.931  1.00  0.00     0.000 HD 
HETATM    5  H2  UNL     2      -7.977  10.864  69.017  1.00  0.00     0.000 HD 
HETATM    6  C   UNL     2      -9.967  10.406  68.677  1.00  0.00    -0.177 C  
HETATM    7  N   UNL     3      -8.787  12.543  66.493  1.00  0.00    -0.395 NA 
HETATM    8  O   UNL     1      -9.134  12.188  63.399  1.00  0.00     0.075 OA 
HETATM    9  O   UNL     1      -9.393   9.874  62.512  1.00  0.00    -0.291 OA 
HETATM   10  O   UNL     1     -10.846  10.737  64.389  1.00  0.00    -0.226 OA 
HETATM   11  C   UNL     3      -9.961  13.206  66.405  1.00  0.00    -0.282 C  
HETATM   12  H1  UNL     3      -7.976  12.758  65.911  1.00  0.00     0.000 HD 
HETATM   13  H2  UNL     3      -8.707  11.788  67.175  1.00  0.00     0.000 HD 
HETATM   14  N   UNL     2     -10.792   9.753  67.851  1.00  0.00    -0.397 NA 
HETATM   15  N   UNL     2     -10.359  11.360  69.442  1.00  0.00    -0.435 NA 
HETATM   16  H2  UNL     2      -9.697  11.971  69.921  1.00  0.00     0.000 HD 
HETATM   17  H   UNL     2     -11.764  10.062  67.874  1.00  0.00     0.000 HD 
HETATM   18  N   UNL     3     -10.976  12.937  67.133  1.00  0.00    -0.256 NA 
HETATM   19  N   UNL     3      -9.998  14.126  65.414  1.00  0.00    -0.522 NA 
HETATM   20  H2  UNL     3     -10.897  12.183  67.816  1.00  0.00     0.000 HD 
HETATM   21  H1  UNL     2     -11.368  11.477  69.547  1.00  0.00     0.000 HD 
HETATM   22  H1  UNL     3     -11.863  13.437  67.067  1.00  0.00     0.000 HD 
HETATM   23  H   UNL     3      -9.390  14.069  64.598  1.00  0.00     0.000 HD 
ENDROOT
BRANCH  14  24
HETATM   24  C   UNL     2     -10.511   8.670  66.926  1.00  0.00    -0.258 C  
BRANCH  24  25
HETATM   25  C   UNL     2     -10.196   7.393  67.687  1.00  0.00    -0.261 A  
HETATM   26  I   UNL     2      -7.074   4.348  67.653  1.00  0.00    -0.066 I  
HETATM   27  C   UNL     2     -11.056   6.928  68.697  1.00  0.00    -0.152 A  
HETATM   28  C   UNL     2      -9.033   6.652  67.401  1.00  0.00    -0.114 A  
HETATM   29  C   UNL     2     -10.808   5.727  69.355  1.00  0.00    -0.393 A  
HETATM   30  C   UNL     2      -8.780   5.459  68.083  1.00  0.00    -0.105 A  
HETATM   31  C   UNL     2      -9.669   4.989  69.051  1.00  0.00    -0.238 A  
ENDBRANCH  24  25
ENDBRANCH  14  24
BRANCH  19  32
HETATM   32  C   UNL     3     -10.963  15.204  65.587  1.00  0.00    -0.355 C  
BRANCH  32  33
HETATM   33  C   UNL     3     -10.459  16.293  66.489  1.00  0.00    -0.290 A  
HETATM   34  C   UNL     3      -9.189  18.065  68.264  1.00  0.00    -0.298 A  
HETATM   35  C   UNL     3      -9.432  17.125  66.046  1.00  0.00    -0.167 A  
HETATM   36  I   UNL     3      -7.149  19.079  66.269  1.00  0.00    -0.301 I  
HETATM   37  C   UNL     3     -10.260  17.292  68.706  1.00  0.00    -0.353 A  
HETATM   38  C   UNL     3      -8.786  17.985  66.933  1.00  0.00    -0.251 A  
HETATM   39  C   UNL     3     -10.889  16.404  67.828  1.00  0.00    -0.306 A  
ENDBRANCH  32  33
ENDBRANCH  19  32
TORSDOF 4
ENDMDL
MODEL       70
REMARK 921   NORMALIZED FREE ENERGY PREDICTED BY IDOCK:   -5.98 KCAL/MOL
REMARK 922        TOTAL FREE ENERGY PREDICTED BY IDOCK:   -8.02 KCAL/MOL
REMARK 923 INTER-LIGAND FREE ENERGY PREDICTED BY IDOCK:   -7.30 KCAL/MOL
REMARK 924 INTRA-LIGAND FREE ENERGY PREDICTED BY IDOCK:   -0.73 KCAL/MOL
REMARK 927      BINDING AFFINITY PREDICTED BY RF-SCORE:    0.00 PKD
ROOT
HETATM    1  O   UNL     1     -12.337  12.181  65.631  1.00  0.00    -0.560 OA 
HETATM    2  S   UNL     1     -11.076  12.539  64.695  1.00  0.00    -0.325 S  
HETATM    3  N   UNL     2     -12.431  11.082  69.232  1.00  0.00    -0.574 NA 
HETATM    4  H1  UNL     2     -12.983  11.817  68.791  1.00  0.00     0.000 HD 
HETATM    5  H2  UNL     2     -12.818  10.155  69.411  1.00  0.00     0.000 HD 
HETATM    6  C   UNL     2     -11.168  11.395  69.565  1.00  0.00    -0.256 C  
HETATM    7  N   UNL     3     -11.233   9.752  66.733  1.00  0.00     0.112 NA 
HETATM    8  O   UNL     1     -10.859  11.137  63.948  1.00  0.00    -0.380 OA 
HETATM    9  O   UNL     1     -11.504  13.535  63.741  1.00  0.00    -0.313 OA 
HETATM   10  O   UNL     1      -9.952  12.740  65.567  1.00  0.00    -0.271 OA 
HETATM   11  C   UNL     3      -9.888   9.630  66.694  1.00  0.00    -0.224 C  
HETATM   12  H1  UNL     3     -11.846   9.441  65.979  1.00  0.00     0.000 HD 
HETATM   13  H2  UNL     3     -11.657  10.176  67.558  1.00  0.00     0.000 HD 
HETATM   14  N   UNL     2     -10.627  12.525  69.097  1.00  0.00    -0.438 NA 
HETATM   15  N   UNL     2     -10.473  10.469  70.120  1.00  0.00    -0.449 NA 
HETATM   16  H2  UNL     2     -10.860   9.542  70.300  1.00  0.00     0.000 HD 
HETATM   17  H   UNL     2      -9.617  12.606  69.217  1.00  0.00     0.000 HD 
HETATM   18  N   UNL     3      -9.119  10.019  67.638  1.00  0.00    -0.134 NA 
HETATM   19  N   UNL     3      -9.416   9.139  65.525  1.00  0.00    -0.398 NA 
HETATM   20  H2  UNL     3      -9.542  10.442  68.464  1.00  0.00     0.000 HD 
HETATM   21  H1  UNL     2      -9.513  10.707  70.374  1.00  0.00     0.000 HD 
HETATM   22  H1  UNL     3      -8.104   9.927  67.609  1.00  0.00     0.000 HD 
HETATM   23  H   UNL     3      -9.940   9.214  64.654  1.00  0.00     0.000 HD 
ENDROOT
BRANCH  14  24
HETATM   24  C   UNL     2     -11.263  13.655  68.443  1.00  0.00    -0.276 C  
BRANCH  24  25
HETATM   25  C   UNL     2     -10.337  14.859  68.447  1.00  0.00    -0.233 A  
HETATM   26  I   UNL     2     -10.493  19.009  67.116  1.00  0.00    -0.530 I  
HETATM   27  C   UNL     2      -9.038  14.764  68.978  1.00  0.00    -0.136 A  
HETATM   28  C   UNL     2     -10.760  16.097  67.926  1.00  0.00    -0.321 A  
HETATM   29  C   UNL     2      -8.161  15.844  68.929  1.00  0.00    -0.214 A  
HETATM   30  C   UNL     2      -9.881  17.182  67.902  1.00  0.00    -0.283 A  
HETATM   31  C   UNL     2      -8.580  17.057  68.391  1.00  0.00    -0.243 A  
ENDBRANCH  24  25
ENDBRANCH  14  24
BRANCH  19  32
HETATM   32  C   UNL     3      -8.109   8.497  65.590  1.00  0.00    -0.119 C  
BRANCH  32  33
HETATM   33  C   UNL     3      -8.201   7.028  65.887  1.00  0.00    -0.133 A  
HETATM   34  C   UNL     3      -7.943   4.289  66.468  1.00  0.00    -0.098 A  
HETATM   35  C   UNL     3      -8.094   6.590  67.206  1.00  0.00    -0.113 A  
HETATM   36  I   UNL     3      -7.613   4.646  69.458  1.00  0.00    -0.054 I  
HETATM   37  C   UNL     3      -8.119   4.703  65.150  1.00  0.00    -0.104 A  
HETATM   38  C   UNL     3      -7.941   5.234  67.492  1.00  0.00    -0.100 A  
HETATM   39  C   UNL     3      -8.240   6.065  64.857  1.00  0.00    -0.130 A  
ENDBRANCH  32  33
ENDBRANCH  19  32
TORSDOF 4
ENDMDL
MODEL       71
REMARK 921   NORMALIZED FREE ENERGY PREDICTED BY IDOCK:   -5.94 KCAL/MOL
REMARK 922        TOTAL FREE ENERGY PREDICTED BY IDOCK:   -7.97 KCAL/MOL
REMARK 923 INTER-LIGAND FREE ENERGY PREDICTED BY IDOCK:   -7.34 KCAL/MOL
REMARK 924 INTRA-LIGAND FREE ENERGY PREDICTED BY IDOCK:   -0.63 KCAL/MOL
REMARK 927      BINDING AFFINITY PREDICTED BY RF-SCORE:    0.00 PKD
ROOT
HETATM    1  O   UNL     1      -6.644  10.097  67.066  1.00  0.00    -0.071 OA 
HETATM    2  S   UNL     1      -7.804  10.298  68.165  1.00  0.00    -0.105 S  
HETATM    3  N   UNL     2      -6.734   8.276  63.771  1.00  0.00    -0.075 NA 
HETATM    4  H1  UNL     2      -6.380   9.215  63.954  1.00  0.00     0.000 HD 
HETATM    5  H2  UNL     2      -6.108   7.475  63.680  1.00  0.00     0.000 HD 
HETATM    6  C   UNL     2      -8.066   8.146  63.655  1.00  0.00    -0.115 C  
HETATM    7  N   UNL     3      -7.084   7.273  66.656  1.00  0.00    -0.076 NA 
HETATM    8  O   UNL     1      -7.464   9.099  69.174  1.00  0.00    -0.070 OA 
HETATM    9  O   UNL     1      -7.574  11.563  68.822  1.00  0.00    -0.127 OA 
HETATM   10  O   UNL     1      -9.048   9.978  67.522  1.00  0.00    -0.134 OA 
HETATM   11  C   UNL     3      -8.304   6.799  66.992  1.00  0.00    -0.114 C  
HETATM   12  H1  UNL     3      -6.302   7.323  67.310  1.00  0.00     0.000 HD 
HETATM   13  H2  UNL     3      -6.937   7.598  65.700  1.00  0.00     0.000 HD 
HETATM   14  N   UNL     2      -8.858   9.160  64.021  1.00  0.00    -0.403 NA 
HETATM   15  N   UNL     2      -8.511   6.964  63.425  1.00  0.00    -0.329 NA 
HETATM   16  H2  UNL     2      -7.885   6.163  63.334  1.00  0.00     0.000 HD 
HETATM   17  H   UNL     2      -9.849   8.931  64.100  1.00  0.00     0.000 HD 
HETATM   18  N   UNL     3      -9.283   6.736  66.173  1.00  0.00    -0.304 NA 
HETATM   19  N   UNL     3      -8.426   6.477  68.299  1.00  0.00    -0.116 NA 
HETATM   20  H2  UNL     3      -9.137   7.060  65.216  1.00  0.00     0.000 HD 
HETATM   21  H1  UNL     2      -9.523   6.865  63.337  1.00  0.00     0.000 HD 
HETATM   22  H1  UNL     3     -10.205   6.379  66.426  1.00  0.00     0.000 HD 
HETATM   23  H   UNL     3      -7.830   6.889  69.017  1.00  0.00     0.000 HD 
ENDROOT
BRANCH  14  24
HETATM   24  C   UNL     2      -8.518  10.539  64.323  1.00  0.00    -0.128 C  
BRANCH  24  25
HETATM   25  C   UNL     2      -9.776  11.384  64.424  1.00  0.00    -0.266 A  
HETATM   26  I   UNL     2     -11.548  14.136  67.306  1.00  0.00    -0.449 I  
HETATM   27  C   UNL     2     -10.732  11.374  63.393  1.00  0.00    -0.405 A  
HETATM   28  C   UNL     2     -10.008  12.201  65.547  1.00  0.00    -0.269 A  
HETATM   29  C   UNL     2     -11.917  12.096  63.505  1.00  0.00    -0.619 A  
HETATM   30  C   UNL     2     -11.189  12.942  65.640  1.00  0.00    -0.295 A  
HETATM   31  C   UNL     2     -12.149  12.883  64.629  1.00  0.00    -0.474 A  
ENDBRANCH  24  25
ENDBRANCH  14  24
BRANCH  19  32
HETATM   32  C   UNL     3      -9.462   5.503  68.618  1.00  0.00    -0.129 C  
BRANCH  32  33
HETATM   33  C   UNL     3     -10.257   5.882  69.834  1.00  0.00    -0.280 A  
HETATM   34  C   UNL     3     -11.953   6.218  72.052  1.00  0.00    -0.353 A  
HETATM   35  C   UNL     3      -9.939   5.306  71.063  1.00  0.00    -0.266 A  
HETATM   36  I   UNL     3     -10.367   4.435  73.917  1.00  0.00    -0.360 I  
HETATM   37  C   UNL     3     -12.249   6.858  70.851  1.00  0.00    -0.404 A  
HETATM   38  C   UNL     3     -10.794   5.452  72.156  1.00  0.00    -0.214 A  
HETATM   39  C   UNL     3     -11.412   6.687  69.744  1.00  0.00    -0.388 A  
ENDBRANCH  32  33
ENDBRANCH  19  32
TORSDOF 4
ENDMDL
MODEL       72
REMARK 921   NORMALIZED FREE ENERGY PREDICTED BY IDOCK:   -5.93 KCAL/MOL
REMARK 922        TOTAL FREE ENERGY PREDICTED BY IDOCK:   -7.97 KCAL/MOL
REMARK 923 INTER-LIGAND FREE ENERGY PREDICTED BY IDOCK:   -7.37 KCAL/MOL
REMARK 924 INTRA-LIGAND FREE ENERGY PREDICTED BY IDOCK:   -0.60 KCAL/MOL
REMARK 927      BINDING AFFINITY PREDICTED BY RF-SCORE:    0.00 PKD
ROOT
HETATM    1  O   UNL     1     -12.271  11.684  67.846  1.00  0.00    -0.560 OA 
HETATM    2  S   UNL     1     -11.471  11.899  69.227  1.00  0.00    -0.317 S  
HETATM    3  N   UNL     2     -10.975  10.821  64.417  1.00  0.00    -0.161 NA 
HETATM    4  H1  UNL     2     -11.748  10.383  64.919  1.00  0.00     0.000 HD 
HETATM    5  H2  UNL     2     -11.135  11.515  63.686  1.00  0.00     0.000 HD 
HETATM    6  C   UNL     2      -9.737  10.438  64.767  1.00  0.00    -0.320 C  
HETATM    7  N   UNL     3     -10.508  13.277  66.206  1.00  0.00    -0.282 NA 
HETATM    8  O   UNL     1     -11.310  13.495  69.227  1.00  0.00    -0.259 OA 
HETATM    9  O   UNL     1     -12.340  11.500  70.308  1.00  0.00    -0.304 OA 
HETATM   10  O   UNL     1     -10.162  11.336  69.042  1.00  0.00    -0.205 OA 
HETATM   11  C   UNL     3      -9.254  13.460  66.673  1.00  0.00    -0.214 C  
HETATM   12  H1  UNL     3     -11.286  13.897  66.432  1.00  0.00     0.000 HD 
HETATM   13  H2  UNL     3     -10.687  12.478  65.598  1.00  0.00     0.000 HD 
HETATM   14  N   UNL     2      -9.562   9.720  65.882  1.00  0.00    -0.229 NA 
HETATM   15  N   UNL     2      -8.764  10.989  64.135  1.00  0.00    -0.374 NA 
HETATM   16  H2  UNL     2      -8.923  11.683  63.404  1.00  0.00     0.000 HD 
HETATM   17  H   UNL     2      -8.596   9.634  66.197  1.00  0.00     0.000 HD 
HETATM   18  N   UNL     3      -8.278  12.683  66.391  1.00  0.00    -0.315 NA 
HETATM   19  N   UNL     3      -9.136  14.490  67.541  1.00  0.00    -0.186 NA 
HETATM   20  H2  UNL     3      -8.456  11.884  65.782  1.00  0.00     0.000 HD 
HETATM   21  H1  UNL     2      -7.822  10.698  64.400  1.00  0.00     0.000 HD 
HETATM   22  H1  UNL     3      -7.331  12.820  66.744  1.00  0.00     0.000 HD 
HETATM   23  H   UNL     3      -9.930  14.841  68.078  1.00  0.00     0.000 HD 
ENDROOT
BRANCH  14  24
HETATM   24  C   UNL     2     -10.544   9.046  66.712  1.00  0.00    -0.131 C  
BRANCH  24  25
HETATM   25  C   UNL     2     -10.082   7.635  67.037  1.00  0.00    -0.338 A  
HETATM   26  I   UNL     2      -6.467   5.735  68.566  1.00  0.00    -0.047 I  
HETATM   27  C   UNL     2     -10.933   6.536  66.831  1.00  0.00    -0.408 A  
HETATM   28  C   UNL     2      -8.795   7.399  67.559  1.00  0.00    -0.127 A  
HETATM   29  C   UNL     2     -10.497   5.235  67.066  1.00  0.00    -0.290 A  
HETATM   30  C   UNL     2      -8.374   6.093  67.814  1.00  0.00    -0.116 A  
HETATM   31  C   UNL     2      -9.216   5.009  67.559  1.00  0.00    -0.129 A  
ENDBRANCH  24  25
ENDBRANCH  14  24
BRANCH  19  32
HETATM   32  C   UNL     3      -7.804  15.069  67.660  1.00  0.00    -0.168 C  
BRANCH  32  33
HETATM   33  C   UNL     3      -7.813  16.567  67.560  1.00  0.00    -0.175 A  
HETATM   34  C   UNL     3      -7.447  19.355  67.566  1.00  0.00    -0.271 A  
HETATM   35  C   UNL     3      -7.078  17.187  66.551  1.00  0.00    -0.303 A  
HETATM   36  I   UNL     3      -5.631  19.425  65.143  1.00  0.00    -0.285 I  
HETATM   37  C   UNL     3      -8.242  18.759  68.542  1.00  0.00    -0.379 A  
HETATM   38  C   UNL     3      -6.875  18.567  66.569  1.00  0.00    -0.202 A  
HETATM   39  C   UNL     3      -8.420  17.373  68.546  1.00  0.00    -0.274 A  
ENDBRANCH  32  33
ENDBRANCH  19  32
TORSDOF 4
ENDMDL
MODEL       73
REMARK 921   NORMALIZED FREE ENERGY PREDICTED BY IDOCK:   -5.92 KCAL/MOL
REMARK 922        TOTAL FREE ENERGY PREDICTED BY IDOCK:   -7.95 KCAL/MOL
REMARK 923 INTER-LIGAND FREE ENERGY PREDICTED BY IDOCK:   -7.10 KCAL/MOL
REMARK 924 INTRA-LIGAND FREE ENERGY PREDICTED BY IDOCK:   -0.84 KCAL/MOL
REMARK 927      BINDING AFFINITY PREDICTED BY RF-SCORE:    0.00 PKD
ROOT
HETATM    1  O   UNL     1      -8.002  12.648  68.136  1.00  0.00    -0.140 OA 
HETATM    2  S   UNL     1      -7.586  11.173  68.632  1.00  0.00    -0.134 S  
HETATM    3  N   UNL     2     -11.054  13.784  66.245  1.00  0.00    -0.300 NA 
HETATM    4  H1  UNL     2     -10.657  14.194  67.090  1.00  0.00     0.000 HD 
HETATM    5  H2  UNL     2     -10.889  14.190  65.324  1.00  0.00     0.000 HD 
HETATM    6  C   UNL     2     -11.805  12.682  66.406  1.00  0.00    -0.402 C  
HETATM    7  N   UNL     3      -8.774  11.877  65.463  1.00  0.00    -0.334 NA 
HETATM    8  O   UNL     1      -6.627  10.719  67.430  1.00  0.00    -0.067 OA 
HETATM    9  O   UNL     1      -6.811  11.318  69.842  1.00  0.00    -0.120 OA 
HETATM   10  O   UNL     1      -8.770  10.362  68.567  1.00  0.00    -0.123 OA 
HETATM   11  C   UNL     3      -9.101  10.578  65.282  1.00  0.00    -0.190 C  
HETATM   12  H1  UNL     3      -7.823  12.234  65.368  1.00  0.00     0.000 HD 
HETATM   13  H2  UNL     3      -9.515  12.533  65.708  1.00  0.00     0.000 HD 
HETATM   14  N   UNL     2     -11.795  12.047  67.583  1.00  0.00    -0.564 NA 
HETATM   15  N   UNL     2     -12.305  12.166  65.341  1.00  0.00    -0.479 NA 
HETATM   16  H2  UNL     2     -12.140  12.572  64.420  1.00  0.00     0.000 HD 
HETATM   17  H   UNL     2     -12.219  11.120  67.580  1.00  0.00     0.000 HD 
HETATM   18  N   UNL     3     -10.293  10.131  65.402  1.00  0.00    -0.201 NA 
HETATM   19  N   UNL     3      -8.040   9.773  65.049  1.00  0.00    -0.127 NA 
HETATM   20  H2  UNL     3     -11.035  10.787  65.646  1.00  0.00     0.000 HD 
HETATM   21  H1  UNL     2     -12.876  11.329  65.463  1.00  0.00     0.000 HD 
HETATM   22  H1  UNL     3     -10.540   9.151  65.266  1.00  0.00     0.000 HD 
HETATM   23  H   UNL     3      -7.097  10.017  65.350  1.00  0.00     0.000 HD 
ENDROOT
BRANCH  14  24
HETATM   24  C   UNL     2     -11.269  12.481  68.865  1.00  0.00    -0.281 C  
BRANCH  24  25
HETATM   25  C   UNL     2     -11.889  11.674  69.992  1.00  0.00    -0.435 A  
HETATM   26  I   UNL     2     -11.969   7.502  71.260  1.00  0.00    -0.334 I  
HETATM   27  C   UNL     2     -12.695  12.296  70.961  1.00  0.00    -0.319 A  
HETATM   28  C   UNL     2     -11.667  10.287  70.094  1.00  0.00    -0.364 A  
HETATM   29  C   UNL     2     -13.319  11.555  71.961  1.00  0.00    -0.397 A  
HETATM   30  C   UNL     2     -12.278   9.555  71.114  1.00  0.00    -0.338 A  
HETATM   31  C   UNL     2     -13.112  10.182  72.041  1.00  0.00    -0.538 A  
ENDBRANCH  24  25
ENDBRANCH  14  24
BRANCH  19  32
HETATM   32  C   UNL     3      -8.330   8.533  64.341  1.00  0.00    -0.116 C  
BRANCH  32  33
HETATM   33  C   UNL     3      -8.207   7.322  65.220  1.00  0.00    -0.126 A  
HETATM   34  C   UNL     3      -8.407   5.052  66.868  1.00  0.00    -0.107 A  
HETATM   35  C   UNL     3      -8.375   6.055  64.663  1.00  0.00    -0.065 A  
HETATM   36  I   UNL     3      -8.921   3.091  64.617  1.00  0.00    -0.139 I  
HETATM   37  C   UNL     3      -8.170   6.301  67.436  1.00  0.00    -0.109 A  
HETATM   38  C   UNL     3      -8.500   4.933  65.482  1.00  0.00    -0.130 A  
HETATM   39  C   UNL     3      -8.077   7.433  66.620  1.00  0.00    -0.123 A  
ENDBRANCH  32  33
ENDBRANCH  19  32
TORSDOF 4
ENDMDL
MODEL       74
REMARK 921   NORMALIZED FREE ENERGY PREDICTED BY IDOCK:   -5.90 KCAL/MOL
REMARK 922        TOTAL FREE ENERGY PREDICTED BY IDOCK:   -7.93 KCAL/MOL
REMARK 923 INTER-LIGAND FREE ENERGY PREDICTED BY IDOCK:   -7.86 KCAL/MOL
REMARK 924 INTRA-LIGAND FREE ENERGY PREDICTED BY IDOCK:   -0.06 KCAL/MOL
REMARK 927      BINDING AFFINITY PREDICTED BY RF-SCORE:    0.00 PKD
ROOT
HETATM    1  O   UNL     1     -10.612  10.481  66.670  1.00  0.00    -0.241 OA 
HETATM    2  S   UNL     1      -9.566   9.434  67.304  1.00  0.00    -0.158 S  
HETATM    3  N   UNL     2     -12.231  13.508  68.218  1.00  0.00    -0.313 NA 
HETATM    4  H1  UNL     2     -11.765  13.446  67.313  1.00  0.00     0.000 HD 
HETATM    5  H2  UNL     2     -13.248  13.484  68.301  1.00  0.00     0.000 HD 
HETATM    6  C   UNL     2     -11.440  13.624  69.297  1.00  0.00    -0.291 C  
HETATM    7  N   UNL     3     -12.421  10.521  68.920  1.00  0.00    -0.617 NA 
HETATM    8  O   UNL     1     -10.564   8.271  67.778  1.00  0.00    -0.227 OA 
HETATM    9  O   UNL     1      -8.728   8.946  66.234  1.00  0.00    -0.128 OA 
HETATM   10  O   UNL     1      -9.028  10.046  68.487  1.00  0.00    -0.119 OA 
HETATM   11  C   UNL     3     -11.908  10.142  70.112  1.00  0.00    -0.222 C  
HETATM   12  H1  UNL     3     -12.842   9.869  68.259  1.00  0.00     0.000 HD 
HETATM   13  H2  UNL     3     -12.384  11.510  68.670  1.00  0.00     0.000 HD 
HETATM   14  N   UNL     2     -10.125  13.405  69.172  1.00  0.00    -0.413 NA 
HETATM   15  N   UNL     2     -12.027  13.702  70.437  1.00  0.00    -0.446 NA 
HETATM   16  H2  UNL     2     -13.043  13.678  70.519  1.00  0.00     0.000 HD 
HETATM   17  H   UNL     2      -9.616  13.311  70.051  1.00  0.00     0.000 HD 
HETATM   18  N   UNL     3     -11.379  10.959  70.941  1.00  0.00    -0.244 NA 
HETATM   19  N   UNL     3     -11.922   8.805  70.314  1.00  0.00    -0.451 NA 
HETATM   20  H2  UNL     3     -11.343  11.948  70.692  1.00  0.00     0.000 HD 
HETATM   21  H1  UNL     2     -11.425  13.790  71.256  1.00  0.00     0.000 HD 
HETATM   22  H1  UNL     3     -10.992  10.674  71.841  1.00  0.00     0.000 HD 
HETATM   23  H   UNL     3     -11.946   8.140  69.542  1.00  0.00     0.000 HD 
ENDROOT
BRANCH  14  24
HETATM   24  C   UNL     2      -9.317  13.283  67.973  1.00  0.00    -0.218 C  
BRANCH  24  25
HETATM   25  C   UNL     2      -9.707  14.346  66.961  1.00  0.00    -0.256 A  
HETATM   26  I   UNL     2      -9.775  18.703  66.775  1.00  0.00    -0.430 I  
HETATM   27  C   UNL     2     -10.215  13.986  65.700  1.00  0.00    -0.351 A  
HETATM   28  C   UNL     2      -9.564  15.715  67.260  1.00  0.00    -0.220 A  
HETATM   29  C   UNL     2     -10.634  14.952  64.791  1.00  0.00    -0.336 A  
HETATM   30  C   UNL     2      -9.965  16.679  66.332  1.00  0.00    -0.302 A  
HETATM   31  C   UNL     2     -10.511  16.302  65.104  1.00  0.00    -0.254 A  
ENDBRANCH  24  25
ENDBRANCH  14  24
BRANCH  19  32
HETATM   32  C   UNL     3     -11.899   8.375  71.706  1.00  0.00    -0.316 C  
BRANCH  32  33
HETATM   33  C   UNL     3     -10.557   7.848  72.127  1.00  0.00    -0.312 A  
HETATM   34  C   UNL     3      -8.259   6.663  73.231  1.00  0.00    -0.120 A  
HETATM   35  C   UNL     3     -10.199   6.545  71.786  1.00  0.00    -0.210 A  
HETATM   36  I   UNL     3      -8.675   3.950  71.950  1.00  0.00    -0.147 I  
HETATM   37  C   UNL     3      -8.564   7.989  73.528  1.00  0.00    -0.318 A  
HETATM   38  C   UNL     3      -9.073   5.949  72.354  1.00  0.00    -0.140 A  
HETATM   39  C   UNL     3      -9.710   8.579  72.987  1.00  0.00    -0.063 A  
ENDBRANCH  32  33
ENDBRANCH  19  32
TORSDOF 4
ENDMDL
MODEL       75
REMARK 921   NORMALIZED FREE ENERGY PREDICTED BY IDOCK:   -5.89 KCAL/MOL
REMARK 922        TOTAL FREE ENERGY PREDICTED BY IDOCK:   -7.92 KCAL/MOL
REMARK 923 INTER-LIGAND FREE ENERGY PREDICTED BY IDOCK:   -7.67 KCAL/MOL
REMARK 924 INTRA-LIGAND FREE ENERGY PREDICTED BY IDOCK:   -0.25 KCAL/MOL
REMARK 927      BINDING AFFINITY PREDICTED BY RF-SCORE:    0.00 PKD
ROOT
HETATM    1  O   UNL     1     -11.066   7.216  67.329  1.00  0.00    -0.288 OA 
HETATM    2  S   UNL     1      -9.790   6.359  67.807  1.00  0.00    -0.129 S  
HETATM    3  N   UNL     2     -12.157  10.679  68.328  1.00  0.00    -0.789 NA 
HETATM    4  H1  UNL     2     -12.074  10.301  67.384  1.00  0.00     0.000 HD 
HETATM    5  H2  UNL     2     -13.059  10.750  68.799  1.00  0.00     0.000 HD 
HETATM    6  C   UNL     2     -11.020  11.080  68.918  1.00  0.00    -0.227 C  
HETATM    7  N   UNL     3     -11.864   8.092  69.962  1.00  0.00    -0.298 NA 
HETATM    8  O   UNL     1     -10.449   5.477  68.973  1.00  0.00    -0.229 OA 
HETATM    9  O   UNL     1      -9.400   5.501  66.713  1.00  0.00    -0.125 OA 
HETATM   10  O   UNL     1      -8.878   7.280  68.427  1.00  0.00    -0.129 OA 
HETATM   11  C   UNL     3     -10.906   8.080  70.915  1.00  0.00    -0.230 C  
HETATM   12  H1  UNL     3     -12.464   7.292  69.760  1.00  0.00     0.000 HD 
HETATM   13  H2  UNL     3     -11.992   8.944  69.415  1.00  0.00     0.000 HD 
HETATM   14  N   UNL     2      -9.844  10.747  68.373  1.00  0.00    -0.163 NA 
HETATM   15  N   UNL     2     -11.125  11.556  70.107  1.00  0.00    -0.431 NA 
HETATM   16  H2  UNL     2     -12.027  11.627  70.578  1.00  0.00     0.000 HD 
HETATM   17  H   UNL     2      -9.030  10.904  68.966  1.00  0.00     0.000 HD 
HETATM   18  N   UNL     3     -10.154   9.082  71.168  1.00  0.00    -0.268 NA 
HETATM   19  N   UNL     3     -10.753   6.881  71.523  1.00  0.00    -0.222 NA 
HETATM   20  H2  UNL     3     -10.282   9.934  70.623  1.00  0.00     0.000 HD 
HETATM   21  H1  UNL     2     -10.261  11.861  70.556  1.00  0.00     0.000 HD 
HETATM   22  H1  UNL     3      -9.431   9.073  71.888  1.00  0.00     0.000 HD 
HETATM   23  H   UNL     3     -11.030   6.007  71.076  1.00  0.00     0.000 HD 
ENDROOT
BRANCH  14  24
HETATM   24  C   UNL     2      -9.556  10.195  67.062  1.00  0.00    -0.171 C  
BRANCH  24  25
HETATM   25  C   UNL     2      -9.993  11.160  65.973  1.00  0.00    -0.280 A  
HETATM   26  I   UNL     2     -10.438  15.475  65.526  1.00  0.00    -0.419 I  
HETATM   27  C   UNL     2     -10.411  10.685  64.718  1.00  0.00    -0.353 A  
HETATM   28  C   UNL     2      -9.985  12.551  66.196  1.00  0.00    -0.267 A  
HETATM   29  C   UNL     2     -10.874  11.557  63.737  1.00  0.00    -0.486 A  
HETATM   30  C   UNL     2     -10.429  13.421  65.197  1.00  0.00    -0.347 A  
HETATM   31  C   UNL     2     -10.884  12.928  63.973  1.00  0.00    -0.443 A  
ENDBRANCH  24  25
ENDBRANCH  14  24
BRANCH  19  32
HETATM   32  C   UNL     3     -10.166   6.917  72.856  1.00  0.00    -0.203 C  
BRANCH  32  33
HETATM   33  C   UNL     3      -9.967   5.547  73.437  1.00  0.00    -0.189 A  
HETATM   34  C   UNL     3      -9.522   2.856  74.122  1.00  0.00    -0.109 A  
HETATM   35  C   UNL     3      -8.671   5.071  73.635  1.00  0.00    -0.106 A  
HETATM   36  I   UNL     3      -6.499   3.028  74.065  1.00  0.00    -0.032 I  
HETATM   37  C   UNL     3     -10.825   3.333  73.997  1.00  0.00    -0.269 A  
HETATM   38  C   UNL     3      -8.450   3.731  73.949  1.00  0.00    -0.090 A  
HETATM   39  C   UNL     3     -11.050   4.668  73.649  1.00  0.00    -0.379 A  
ENDBRANCH  32  33
ENDBRANCH  19  32
TORSDOF 4
ENDMDL
MODEL       76
REMARK 921   NORMALIZED FREE ENERGY PREDICTED BY IDOCK:   -5.88 KCAL/MOL
REMARK 922        TOTAL FREE ENERGY PREDICTED BY IDOCK:   -7.91 KCAL/MOL
REMARK 923 INTER-LIGAND FREE ENERGY PREDICTED BY IDOCK:   -7.21 KCAL/MOL
REMARK 924 INTRA-LIGAND FREE ENERGY PREDICTED BY IDOCK:   -0.69 KCAL/MOL
REMARK 927      BINDING AFFINITY PREDICTED BY RF-SCORE:    0.00 PKD
ROOT
HETATM    1  O   UNL     1     -10.412  15.271  69.987  1.00  0.00    -0.277 OA 
HETATM    2  S   UNL     1     -11.677  15.323  68.991  1.00  0.00    -0.339 S  
HETATM    3  N   UNL     2      -6.752  14.837  69.214  1.00  0.00    -0.126 NA 
HETATM    4  H1  UNL     2      -7.182  15.538  69.817  1.00  0.00     0.000 HD 
HETATM    5  H2  UNL     2      -6.306  14.002  69.596  1.00  0.00     0.000 HD 
HETATM    6  C   UNL     2      -6.802  15.067  67.892  1.00  0.00    -0.156 C  
HETATM    7  N   UNL     3      -9.155  12.969  68.782  1.00  0.00    -0.386 NA 
HETATM    8  O   UNL     1     -12.164  13.796  69.057  1.00  0.00    -0.343 OA 
HETATM    9  O   UNL     1     -12.676  16.175  69.592  1.00  0.00     0.054 OA 
HETATM   10  O   UNL     1     -11.160  15.552  67.671  1.00  0.00    -0.313 OA 
HETATM   11  C   UNL     3      -9.493  12.699  67.501  1.00  0.00    -0.186 C  
HETATM   12  H1  UNL     3      -9.662  12.598  69.586  1.00  0.00     0.000 HD 
HETATM   13  H2  UNL     3      -8.351  13.574  68.953  1.00  0.00     0.000 HD 
HETATM   14  N   UNL     2      -7.601  16.034  67.424  1.00  0.00    -0.154 NA 
HETATM   15  N   UNL     2      -6.261  14.184  67.133  1.00  0.00    -0.293 NA 
HETATM   16  H2  UNL     2      -5.815  13.350  67.514  1.00  0.00     0.000 HD 
HETATM   17  H   UNL     2      -7.747  16.026  66.415  1.00  0.00     0.000 HD 
HETATM   18  N   UNL     3      -8.858  13.164  66.494  1.00  0.00    -0.433 NA 
HETATM   19  N   UNL     3     -10.621  11.964  67.376  1.00  0.00    -0.219 NA 
HETATM   20  H2  UNL     3      -8.054  13.768  66.664  1.00  0.00     0.000 HD 
HETATM   21  H1  UNL     2      -6.299  14.359  66.128  1.00  0.00     0.000 HD 
HETATM   22  H1  UNL     3      -9.114  12.960  65.527  1.00  0.00     0.000 HD 
HETATM   23  H   UNL     3     -11.337  11.940  68.102  1.00  0.00     0.000 HD 
ENDROOT
BRANCH  14  24
HETATM   24  C   UNL     2      -8.290  17.092  68.139  1.00  0.00    -0.222 C  
BRANCH  24  25
HETATM   25  C   UNL     2      -7.631  18.432  67.866  1.00  0.00    -0.255 A  
HETATM   26  I   UNL     2      -6.078  20.575  64.399  1.00  0.00    -0.297 I  
HETATM   27  C   UNL     2      -7.370  19.332  68.914  1.00  0.00    -0.392 A  
HETATM   28  C   UNL     2      -7.271  18.806  66.556  1.00  0.00    -0.252 A  
HETATM   29  C   UNL     2      -6.709  20.535  68.682  1.00  0.00    -0.198 A  
HETATM   30  C   UNL     2      -6.629  20.025  66.329  1.00  0.00    -0.215 A  
HETATM   31  C   UNL     2      -6.337  20.886  67.388  1.00  0.00    -0.382 A  
ENDBRANCH  24  25
ENDBRANCH  14  24
BRANCH  19  32
HETATM   32  C   UNL     3     -10.750  11.207  66.137  1.00  0.00    -0.225 C  
BRANCH  32  33
HETATM   33  C   UNL     3     -10.059   9.875  66.199  1.00  0.00    -0.315 A  
HETATM   34  C   UNL     3      -9.008   7.277  65.975  1.00  0.00    -0.149 A  
HETATM   35  C   UNL     3      -9.016   9.607  65.314  1.00  0.00    -0.246 A  
HETATM   36  I   UNL     3      -7.078   7.925  63.732  1.00  0.00    -0.093 I  
HETATM   37  C   UNL     3     -10.002   7.543  66.913  1.00  0.00    -0.318 A  
HETATM   38  C   UNL     3      -8.513   8.312  65.185  1.00  0.00    -0.146 A  
HETATM   39  C   UNL     3     -10.532   8.832  67.022  1.00  0.00    -0.338 A  
ENDBRANCH  32  33
ENDBRANCH  19  32
TORSDOF 4
ENDMDL
MODEL       77
REMARK 921   NORMALIZED FREE ENERGY PREDICTED BY IDOCK:   -5.88 KCAL/MOL
REMARK 922        TOTAL FREE ENERGY PREDICTED BY IDOCK:   -7.91 KCAL/MOL
REMARK 923 INTER-LIGAND FREE ENERGY PREDICTED BY IDOCK:   -7.43 KCAL/MOL
REMARK 924 INTRA-LIGAND FREE ENERGY PREDICTED BY IDOCK:   -0.47 KCAL/MOL
REMARK 927      BINDING AFFINITY PREDICTED BY RF-SCORE:    0.00 PKD
ROOT
HETATM    1  O   UNL     1     -11.302  10.279  66.606  1.00  0.00     0.040 OA 
HETATM    2  S   UNL     1     -11.041  11.431  67.700  1.00  0.00    -0.287 S  
HETATM    3  N   UNL     2      -9.737   9.773  63.218  1.00  0.00    -0.471 NA 
HETATM    4  H1  UNL     2      -9.859   9.080  63.957  1.00  0.00     0.000 HD 
HETATM    5  H2  UNL     2     -10.368   9.819  62.417  1.00  0.00     0.000 HD 
HETATM    6  C   UNL     2      -8.703  10.620  63.351  1.00  0.00    -0.164 C  
HETATM    7  N   UNL     3     -11.487  12.043  64.327  1.00  0.00    -0.353 NA 
HETATM    8  O   UNL     1     -12.229  12.448  67.344  1.00  0.00    -0.459 OA 
HETATM    9  O   UNL     1     -11.268  10.859  69.006  1.00  0.00    -0.223 OA 
HETATM   10  O   UNL     1      -9.805  12.073  67.344  1.00  0.00    -0.183 OA 
HETATM   11  C   UNL     3     -10.902  13.255  64.456  1.00  0.00    -0.394 C  
HETATM   12  H1  UNL     3     -12.454  11.857  64.592  1.00  0.00     0.000 HD 
HETATM   13  H2  UNL     3     -10.932  11.276  63.947  1.00  0.00     0.000 HD 
HETATM   14  N   UNL     2      -8.056  10.686  64.520  1.00  0.00    -0.353 NA 
HETATM   15  N   UNL     2      -8.549  11.492  62.420  1.00  0.00    -0.577 NA 
HETATM   16  H2  UNL     2      -9.180  11.538  61.620  1.00  0.00     0.000 HD 
HETATM   17  H   UNL     2      -7.422  11.479  64.621  1.00  0.00     0.000 HD 
HETATM   18  N   UNL     3      -9.690  13.489  64.124  1.00  0.00    -0.414 NA 
HETATM   19  N   UNL     3     -11.687  14.182  65.050  1.00  0.00    -0.357 NA 
HETATM   20  H2  UNL     3      -9.135  12.723  63.743  1.00  0.00     0.000 HD 
HETATM   21  H1  UNL     2      -7.764  12.135  62.521  1.00  0.00     0.000 HD 
HETATM   22  H1  UNL     3      -9.249  14.404  64.221  1.00  0.00     0.000 HD 
HETATM   23  H   UNL     3     -12.456  13.925  65.669  1.00  0.00     0.000 HD 
ENDROOT
BRANCH  14  24
HETATM   24  C   UNL     2      -8.121   9.798  65.666  1.00  0.00    -0.120 C  
BRANCH  24  25
HETATM   25  C   UNL     2      -7.184  10.278  66.761  1.00  0.00    -0.105 A  
HETATM   26  I   UNL     2      -5.910  14.104  68.421  1.00  0.00    -0.137 I  
HETATM   27  C   UNL     2      -6.444   9.359  67.526  1.00  0.00    -0.063 A  
HETATM   28  C   UNL     2      -7.039  11.651  67.037  1.00  0.00    -0.145 A  
HETATM   29  C   UNL     2      -5.535   9.792  68.488  1.00  0.00    -0.036 A  
HETATM   30  C   UNL     2      -6.143  12.076  68.021  1.00  0.00    -0.058 A  
HETATM   31  C   UNL     2      -5.382  11.152  68.739  1.00  0.00    -0.040 A  
ENDBRANCH  24  25
ENDBRANCH  14  24
BRANCH  19  32
HETATM   32  C   UNL     3     -11.365  15.571  64.750  1.00  0.00    -0.357 C  
BRANCH  32  33
HETATM   33  C   UNL     3     -10.846  16.316  65.946  1.00  0.00    -0.141 A  
HETATM   34  C   UNL     3     -10.283  17.821  68.254  1.00  0.00    -0.382 A  
HETATM   35  C   UNL     3     -10.972  15.746  67.212  1.00  0.00    -0.259 A  
HETATM   36  I   UNL     3     -11.085  15.664  70.223  1.00  0.00    -0.414 I  
HETATM   37  C   UNL     3     -10.084  18.383  66.995  1.00  0.00    -0.382 A  
HETATM   38  C   UNL     3     -10.718  16.501  68.357  1.00  0.00    -0.339 A  
HETATM   39  C   UNL     3     -10.370  17.640  65.846  1.00  0.00    -0.261 A  
ENDBRANCH  32  33
ENDBRANCH  19  32
TORSDOF 4
ENDMDL
MODEL       78
REMARK 921   NORMALIZED FREE ENERGY PREDICTED BY IDOCK:   -5.87 KCAL/MOL
REMARK 922        TOTAL FREE ENERGY PREDICTED BY IDOCK:   -7.89 KCAL/MOL
REMARK 923 INTER-LIGAND FREE ENERGY PREDICTED BY IDOCK:   -6.89 KCAL/MOL
REMARK 924 INTRA-LIGAND FREE ENERGY PREDICTED BY IDOCK:   -1.00 KCAL/MOL
REMARK 927      BINDING AFFINITY PREDICTED BY RF-SCORE:    0.00 PKD
ROOT
HETATM    1  O   UNL     1     -12.256  13.841  68.177  1.00  0.00    -0.331 OA 
HETATM    2  S   UNL     1     -10.772  13.581  68.746  1.00  0.00    -0.209 S  
HETATM    3  N   UNL     2     -13.356  15.342  64.903  1.00  0.00     0.875 NA 
HETATM    4  H1  UNL     2     -13.686  14.478  65.334  1.00  0.00     0.000 HD 
HETATM    5  H2  UNL     2     -13.891  16.209  64.961  1.00  0.00     0.000 HD 
HETATM    6  C   UNL     2     -12.181  15.281  64.256  1.00  0.00    -0.189 C  
HETATM    7  N   UNL     3     -11.775  16.534  67.254  1.00  0.00     0.620 NA 
HETATM    8  O   UNL     1     -10.564  14.898  69.637  1.00  0.00    -0.240 OA 
HETATM    9  O   UNL     1     -10.825  12.420  69.602  1.00  0.00     0.062 OA 
HETATM   10  O   UNL     1      -9.875  13.674  67.627  1.00  0.00    -0.219 OA 
HETATM   11  C   UNL     3     -10.487  16.867  67.015  1.00  0.00    -0.281 C  
HETATM   12  H1  UNL     3     -12.223  16.646  68.164  1.00  0.00     0.000 HD 
HETATM   13  H2  UNL     3     -12.326  16.151  66.487  1.00  0.00     0.000 HD 
HETATM   14  N   UNL     2     -11.402  14.205  64.411  1.00  0.00    -0.560 NA 
HETATM   15  N   UNL     2     -11.766  16.369  63.713  1.00  0.00    -1.498 NA 
HETATM   16  H2  UNL     2     -12.301  17.235  63.771  1.00  0.00     0.000 HD 
HETATM   17  H   UNL     2     -10.449  14.305  64.060  1.00  0.00     0.000 HD 
HETATM   18  N   UNL     3      -9.925  16.727  65.876  1.00  0.00    -0.498 NA 
HETATM   19  N   UNL     3      -9.815  17.282  68.113  1.00  0.00    -0.277 NA 
HETATM   20  H2  UNL     3     -10.476  16.344  65.107  1.00  0.00     0.000 HD 
HETATM   21  H1  UNL     2     -10.873  16.323  63.221  1.00  0.00     0.000 HD 
HETATM   22  H1  UNL     3      -8.953  16.978  65.695  1.00  0.00     0.000 HD 
HETATM   23  H   UNL     3     -10.100  17.016  69.056  1.00  0.00     0.000 HD 
ENDROOT
BRANCH  14  24
HETATM   24  C   UNL     2     -11.709  12.916  65.003  1.00  0.00    -0.344 C  
BRANCH  24  25
HETATM   25  C   UNL     2     -10.720  11.866  64.528  1.00  0.00    -0.361 A  
HETATM   26  I   UNL     2      -8.718   8.377  66.213  1.00  0.00    -0.209 I  
HETATM   27  C   UNL     2     -10.208  11.901  63.220  1.00  0.00    -0.428 A  
HETATM   28  C   UNL     2     -10.299  10.831  65.386  1.00  0.00    -0.315 A  
HETATM   29  C   UNL     2      -9.254  10.981  62.796  1.00  0.00    -0.374 A  
HETATM   30  C   UNL     2      -9.359   9.897  64.945  1.00  0.00    -0.268 A  
HETATM   31  C   UNL     2      -8.827   9.975  63.657  1.00  0.00    -0.249 A  
ENDBRANCH  24  25
ENDBRANCH  14  24
BRANCH  19  32
HETATM   32  C   UNL     3      -8.657  18.130  67.864  1.00  0.00    -0.254 C  
BRANCH  32  33
HETATM   33  C   UNL     3      -7.407  17.610  68.514  1.00  0.00    -0.256 A  
HETATM   34  C   UNL     3      -5.314  16.571  70.078  1.00  0.00    -0.182 A  
HETATM   35  C   UNL     3      -7.211  16.233  68.611  1.00  0.00    -0.166 A  
HETATM   36  I   UNL     3      -6.041  13.661  69.659  1.00  0.00    -0.090 I  
HETATM   37  C   UNL     3      -5.454  17.950  69.935  1.00  0.00    -0.232 A  
HETATM   38  C   UNL     3      -6.189  15.719  69.407  1.00  0.00    -0.144 A  
HETATM   39  C   UNL     3      -6.498  18.470  69.165  1.00  0.00    -0.277 A  
ENDBRANCH  32  33
ENDBRANCH  19  32
TORSDOF 4
ENDMDL
MODEL       79
REMARK 921   NORMALIZED FREE ENERGY PREDICTED BY IDOCK:   -5.85 KCAL/MOL
REMARK 922        TOTAL FREE ENERGY PREDICTED BY IDOCK:   -7.87 KCAL/MOL
REMARK 923 INTER-LIGAND FREE ENERGY PREDICTED BY IDOCK:   -7.12 KCAL/MOL
REMARK 924 INTRA-LIGAND FREE ENERGY PREDICTED BY IDOCK:   -0.75 KCAL/MOL
REMARK 927      BINDING AFFINITY PREDICTED BY RF-SCORE:    0.00 PKD
ROOT
HETATM    1  O   UNL     1     -12.543   7.715  70.940  1.00  0.00    -0.194 OA 
HETATM    2  S   UNL     1     -12.654   9.138  71.685  1.00  0.00    -0.383 S  
HETATM    3  N   UNL     2      -9.597   6.112  69.226  1.00  0.00    -0.132 NA 
HETATM    4  H1  UNL     2     -10.223   5.690  69.912  1.00  0.00     0.000 HD 
HETATM    5  H2  UNL     2      -9.698   5.934  68.227  1.00  0.00     0.000 HD 
HETATM    6  C   UNL     2      -8.632   6.914  69.706  1.00  0.00    -0.141 C  
HETATM    7  N   UNL     3     -11.155   8.687  68.603  1.00  0.00    -0.396 NA 
HETATM    8  O   UNL     1     -13.247  10.043  70.501  1.00  0.00    -0.232 OA 
HETATM    9  O   UNL     1     -13.636   9.010  72.735  1.00  0.00    -0.433 OA 
HETATM   10  O   UNL     1     -11.311   9.584  71.934  1.00  0.00    -0.329 OA 
HETATM   11  C   UNL     3     -10.486   9.853  68.742  1.00  0.00    -0.213 C  
HETATM   12  H1  UNL     3     -12.134   8.634  68.321  1.00  0.00     0.000 HD 
HETATM   13  H2  UNL     3     -10.656   7.817  68.789  1.00  0.00     0.000 HD 
HETATM   14  N   UNL     2      -8.684   7.314  70.981  1.00  0.00    -0.139 NA 
HETATM   15  N   UNL     2      -7.843   7.445  68.842  1.00  0.00    -0.115 NA 
HETATM   16  H2  UNL     2      -7.944   7.267  67.843  1.00  0.00     0.000 HD 
HETATM   17  H   UNL     2      -8.046   8.071  71.226  1.00  0.00     0.000 HD 
HETATM   18  N   UNL     3      -9.259   9.921  69.095  1.00  0.00    -0.169 NA 
HETATM   19  N   UNL     3     -11.253  10.952  68.561  1.00  0.00    -0.251 NA 
HETATM   20  H2  UNL     3      -8.759   9.051  69.281  1.00  0.00     0.000 HD 
HETATM   21  H1  UNL     2      -7.110   8.055  69.206  1.00  0.00     0.000 HD 
HETATM   22  H1  UNL     3      -8.753  10.801  69.201  1.00  0.00     0.000 HD 
HETATM   23  H   UNL     3     -12.265  10.933  68.689  1.00  0.00     0.000 HD 
ENDROOT
BRANCH  14  24
HETATM   24  C   UNL     2      -9.514   6.831  72.070  1.00  0.00    -0.141 C  
BRANCH  24  25
HETATM   25  C   UNL     2      -9.030   5.470  72.540  1.00  0.00    -0.134 A  
HETATM   26  I   UNL     2     -10.778   1.545  73.287  1.00  0.00    -0.265 I  
HETATM   27  C   UNL     2      -7.681   5.266  72.879  1.00  0.00    -0.098 A  
HETATM   28  C   UNL     2      -9.920   4.383  72.643  1.00  0.00    -0.217 A  
HETATM   29  C   UNL     2      -7.241   4.040  73.371  1.00  0.00    -0.069 A  
HETATM   30  C   UNL     2      -9.465   3.150  73.115  1.00  0.00    -0.094 A  
HETATM   31  C   UNL     2      -8.132   2.978  73.491  1.00  0.00    -0.072 A  
ENDBRANCH  24  25
ENDBRANCH  14  24
BRANCH  19  32
HETATM   32  C   UNL     3     -10.544  12.163  68.172  1.00  0.00    -0.216 C  
BRANCH  32  33
HETATM   33  C   UNL     3     -11.046  13.383  68.889  1.00  0.00    -0.307 A  
HETATM   34  C   UNL     3     -12.363  15.583  70.044  1.00  0.00    -0.345 A  
HETATM   35  C   UNL     3     -11.789  13.229  70.058  1.00  0.00    -0.365 A  
HETATM   36  I   UNL     3     -13.697  14.005  72.259  1.00  0.00    -0.652 I  
HETATM   37  C   UNL     3     -11.568  15.766  68.916  1.00  0.00    -0.400 A  
HETATM   38  C   UNL     3     -12.463  14.315  70.616  1.00  0.00    -0.358 A  
HETATM   39  C   UNL     3     -10.917  14.674  68.334  1.00  0.00    -0.260 A  
ENDBRANCH  32  33
ENDBRANCH  19  32
TORSDOF 4
ENDMDL
MODEL       80
REMARK 921   NORMALIZED FREE ENERGY PREDICTED BY IDOCK:   -5.85 KCAL/MOL
REMARK 922        TOTAL FREE ENERGY PREDICTED BY IDOCK:   -7.86 KCAL/MOL
REMARK 923 INTER-LIGAND FREE ENERGY PREDICTED BY IDOCK:   -7.35 KCAL/MOL
REMARK 924 INTRA-LIGAND FREE ENERGY PREDICTED BY IDOCK:   -0.51 KCAL/MOL
REMARK 927      BINDING AFFINITY PREDICTED BY RF-SCORE:    0.00 PKD
ROOT
HETATM    1  O   UNL     1      -7.075  11.128  66.816  1.00  0.00    -0.124 OA 
HETATM    2  S   UNL     1      -6.982  10.668  68.356  1.00  0.00    -0.068 S  
HETATM    3  N   UNL     2     -10.029  12.392  64.851  1.00  0.00    -0.434 NA 
HETATM    4  H1  UNL     2      -9.095  12.800  64.903  1.00  0.00     0.000 HD 
HETATM    5  H2  UNL     2     -10.322  11.821  64.058  1.00  0.00     0.000 HD 
HETATM    6  C   UNL     2     -10.854  12.645  65.880  1.00  0.00    -0.270 C  
HETATM    7  N   UNL     3      -9.497   9.682  66.200  1.00  0.00    -0.198 NA 
HETATM    8  O   UNL     1      -7.161   9.083  68.200  1.00  0.00    -0.076 OA 
HETATM    9  O   UNL     1      -5.647  10.961  68.823  1.00  0.00    -0.041 OA 
HETATM   10  O   UNL     1      -8.156  11.171  69.013  1.00  0.00    -0.139 OA 
HETATM   11  C   UNL     3     -10.287   9.358  67.248  1.00  0.00    -0.260 C  
HETATM   12  H1  UNL     3      -8.742   9.084  65.861  1.00  0.00     0.000 HD 
HETATM   13  H2  UNL     3      -9.663  10.569  65.725  1.00  0.00     0.000 HD 
HETATM   14  N   UNL     2     -10.360  13.184  67.000  1.00  0.00    -0.247 NA 
HETATM   15  N   UNL     2     -12.030  12.132  65.815  1.00  0.00    -0.550 NA 
HETATM   16  H2  UNL     2     -12.323  11.561  65.021  1.00  0.00     0.000 HD 
HETATM   17  H   UNL     2     -10.987  13.165  67.805  1.00  0.00     0.000 HD 
HETATM   18  N   UNL     3     -11.232  10.106  67.673  1.00  0.00    -0.464 NA 
HETATM   19  N   UNL     3      -9.933   8.208  67.866  1.00  0.00    -0.173 NA 
HETATM   20  H2  UNL     3     -11.399  10.993  67.198  1.00  0.00     0.000 HD 
HETATM   21  H1  UNL     2     -12.657  12.324  66.596  1.00  0.00     0.000 HD 
HETATM   22  H1  UNL     3     -11.828   9.862  68.464  1.00  0.00     0.000 HD 
HETATM   23  H   UNL     3      -8.986   7.834  67.815  1.00  0.00     0.000 HD 
ENDROOT
BRANCH  14  24
HETATM   24  C   UNL     2      -9.064  13.791  67.242  1.00  0.00    -0.232 C  
BRANCH  24  25
HETATM   25  C   UNL     2      -9.157  15.302  67.120  1.00  0.00    -0.226 A  
HETATM   26  I   UNL     2      -6.504  18.581  66.009  1.00  0.00    -0.334 I  
HETATM   27  C   UNL     2     -10.352  15.976  67.425  1.00  0.00    -0.294 A  
HETATM   28  C   UNL     2      -8.050  16.061  66.691  1.00  0.00    -0.311 A  
HETATM   29  C   UNL     2     -10.428  17.365  67.377  1.00  0.00    -0.336 A  
HETATM   30  C   UNL     2      -8.141  17.453  66.623  1.00  0.00    -0.259 A  
HETATM   31  C   UNL     2      -9.323  18.108  66.975  1.00  0.00    -0.270 A  
ENDBRANCH  24  25
ENDBRANCH  14  24
BRANCH  19  32
HETATM   32  C   UNL     3     -10.991   7.538  68.610  1.00  0.00     0.102 C  
BRANCH  32  33
HETATM   33  C   UNL     3     -10.844   7.698  70.096  1.00  0.00    -0.255 A  
HETATM   34  C   UNL     3     -10.965   7.834  72.902  1.00  0.00    -0.467 A  
HETATM   35  C   UNL     3     -10.526   6.585  70.874  1.00  0.00    -0.263 A  
HETATM   36  I   UNL     3     -10.295   4.918  73.373  1.00  0.00    -0.340 I  
HETATM   37  C   UNL     3     -11.217   8.973  72.142  1.00  0.00    -0.286 A  
HETATM   38  C   UNL     3     -10.611   6.646  72.264  1.00  0.00    -0.214 A  
HETATM   39  C   UNL     3     -11.166   8.907  70.747  1.00  0.00    -0.321 A  
ENDBRANCH  32  33
ENDBRANCH  19  32
TORSDOF 4
ENDMDL
MODEL       81
REMARK 921   NORMALIZED FREE ENERGY PREDICTED BY IDOCK:   -5.83 KCAL/MOL
REMARK 922        TOTAL FREE ENERGY PREDICTED BY IDOCK:   -7.84 KCAL/MOL
REMARK 923 INTER-LIGAND FREE ENERGY PREDICTED BY IDOCK:   -7.26 KCAL/MOL
REMARK 924 INTRA-LIGAND FREE ENERGY PREDICTED BY IDOCK:   -0.58 KCAL/MOL
REMARK 927      BINDING AFFINITY PREDICTED BY RF-SCORE:    0.00 PKD
ROOT
HETATM    1  O   UNL     1     -12.292  12.676  65.696  1.00  0.00    -0.581 OA 
HETATM    2  S   UNL     1     -11.733  12.958  64.212  1.00  0.00    -0.418 S  
HETATM    3  N   UNL     2     -10.416  12.084  68.907  1.00  0.00    -0.370 NA 
HETATM    4  H1  UNL     2     -11.195  12.724  68.750  1.00  0.00     0.000 HD 
HETATM    5  H2  UNL     2     -10.552  11.174  69.348  1.00  0.00     0.000 HD 
HETATM    6  C   UNL     2      -9.204  12.499  68.506  1.00  0.00    -0.070 C  
HETATM    7  N   UNL     3     -10.518  10.477  66.289  1.00  0.00    -0.215 NA 
HETATM    8  O   UNL     1     -11.771  11.478  63.597  1.00  0.00    -0.376 OA 
HETATM    9  O   UNL     1     -12.695  13.791  63.530  1.00  0.00    -0.774 OA 
HETATM   10  O   UNL     1     -10.352  13.330  64.351  1.00  0.00    -0.413 OA 
HETATM   11  C   UNL     3      -9.376  10.413  65.569  1.00  0.00    -0.197 C  
HETATM   12  H1  UNL     3     -11.391  10.037  65.996  1.00  0.00     0.000 HD 
HETATM   13  H2  UNL     3     -10.507  10.991  67.170  1.00  0.00     0.000 HD 
HETATM   14  N   UNL     2      -9.107  13.577  67.720  1.00  0.00    -0.196 NA 
HETATM   15  N   UNL     2      -8.224  11.692  68.704  1.00  0.00    -0.253 NA 
HETATM   16  H2  UNL     2      -8.360  10.782  69.145  1.00  0.00     0.000 HD 
HETATM   17  H   UNL     2      -8.193  13.720  67.290  1.00  0.00     0.000 HD 
HETATM   18  N   UNL     3      -8.283  10.965  65.936  1.00  0.00    -0.217 NA 
HETATM   19  N   UNL     3      -9.513   9.788  64.378  1.00  0.00    -0.413 NA 
HETATM   20  H2  UNL     3      -8.271  11.479  66.817  1.00  0.00     0.000 HD 
HETATM   21  H1  UNL     2      -7.303  12.007  68.399  1.00  0.00     0.000 HD 
HETATM   22  H1  UNL     3      -7.421  10.918  65.392  1.00  0.00     0.000 HD 
HETATM   23  H   UNL     3     -10.413   9.717  63.903  1.00  0.00     0.000 HD 
ENDROOT
BRANCH  14  24
HETATM   24  C   UNL     2     -10.108  14.574  67.387  1.00  0.00    -0.235 C  
BRANCH  24  25
HETATM   25  C   UNL     2      -9.446  15.902  67.065  1.00  0.00    -0.234 A  
HETATM   26  I   UNL     2     -10.403  20.134  67.508  1.00  0.00    -0.184 I  
HETATM   27  C   UNL     2      -8.187  15.944  66.441  1.00  0.00    -0.264 A  
HETATM   28  C   UNL     2     -10.075  17.120  67.389  1.00  0.00    -0.301 A  
HETATM   29  C   UNL     2      -7.601  17.156  66.085  1.00  0.00    -0.304 A  
HETATM   30  C   UNL     2      -9.470  18.332  67.050  1.00  0.00    -0.274 A  
HETATM   31  C   UNL     2      -8.240  18.354  66.389  1.00  0.00    -0.280 A  
ENDBRANCH  24  25
ENDBRANCH  14  24
BRANCH  19  32
HETATM   32  C   UNL     3      -8.294   9.222  63.816  1.00  0.00    -0.180 C  
BRANCH  32  33
HETATM   33  C   UNL     3      -7.816   8.014  64.568  1.00  0.00    -0.138 A  
HETATM   34  C   UNL     3      -7.024   5.973  66.333  1.00  0.00    -0.067 A  
HETATM   35  C   UNL     3      -8.750   7.108  65.067  1.00  0.00     0.199 A  
HETATM   36  I   UNL     3      -9.813   4.892  66.812  1.00  0.00    -0.281 I  
HETATM   37  C   UNL     3      -6.068   6.827  65.789  1.00  0.00    -0.038 A  
HETATM   38  C   UNL     3      -8.361   6.111  65.962  1.00  0.00    -0.136 A  
HETATM   39  C   UNL     3      -6.459   7.848  64.917  1.00  0.00    -0.048 A  
ENDBRANCH  32  33
ENDBRANCH  19  32
TORSDOF 4
ENDMDL
MODEL       82
REMARK 921   NORMALIZED FREE ENERGY PREDICTED BY IDOCK:   -5.83 KCAL/MOL
REMARK 922        TOTAL FREE ENERGY PREDICTED BY IDOCK:   -7.84 KCAL/MOL
REMARK 923 INTER-LIGAND FREE ENERGY PREDICTED BY IDOCK:   -7.72 KCAL/MOL
REMARK 924 INTRA-LIGAND FREE ENERGY PREDICTED BY IDOCK:   -0.12 KCAL/MOL
REMARK 927      BINDING AFFINITY PREDICTED BY RF-SCORE:    0.00 PKD
ROOT
HETATM    1  O   UNL     1     -12.159  12.267  65.757  1.00  0.00    -0.587 OA 
HETATM    2  S   UNL     1     -11.179  13.349  65.077  1.00  0.00    -0.331 S  
HETATM    3  N   UNL     2     -11.502   9.850  68.569  1.00  0.00    -0.513 NA 
HETATM    4  H1  UNL     2     -12.294  10.484  68.465  1.00  0.00     0.000 HD 
HETATM    5  H2  UNL     2     -11.574   8.859  68.339  1.00  0.00     0.000 HD 
HETATM    6  C   UNL     2     -10.358  10.387  69.025  1.00  0.00    -0.214 C  
HETATM    7  N   UNL     3     -10.266  10.087  65.765  1.00  0.00    -0.242 NA 
HETATM    8  O   UNL     1     -10.646  12.511  63.817  1.00  0.00    -0.414 OA 
HETATM    9  O   UNL     1     -11.991  14.451  64.617  1.00  0.00    -0.417 OA 
HETATM   10  O   UNL     1     -10.071  13.529  65.973  1.00  0.00    -0.297 OA 
HETATM   11  C   UNL     3      -8.959  10.425  65.702  1.00  0.00    -0.176 C  
HETATM   12  H1  UNL     3     -10.844   9.927  64.939  1.00  0.00     0.000 HD 
HETATM   13  H2  UNL     3     -10.696   9.987  66.684  1.00  0.00     0.000 HD 
HETATM   14  N   UNL     2     -10.234  11.718  69.080  1.00  0.00    -0.408 NA 
HETATM   15  N   UNL     2      -9.360   9.589  69.156  1.00  0.00    -0.156 NA 
HETATM   16  H2  UNL     2      -9.432   8.598  68.926  1.00  0.00     0.000 HD 
HETATM   17  H   UNL     2      -9.286  12.059  69.240  1.00  0.00     0.000 HD 
HETATM   18  N   UNL     3      -8.234  10.625  66.736  1.00  0.00    -0.126 NA 
HETATM   19  N   UNL     3      -8.503  10.620  64.444  1.00  0.00    -0.323 NA 
HETATM   20  H2  UNL     3      -8.664  10.524  67.656  1.00  0.00     0.000 HD 
HETATM   21  H1  UNL     2      -8.491   9.997  69.502  1.00  0.00     0.000 HD 
HETATM   22  H1  UNL     3      -7.248  10.880  66.689  1.00  0.00     0.000 HD 
HETATM   23  H   UNL     3      -9.125  10.867  63.674  1.00  0.00     0.000 HD 
ENDROOT
BRANCH  14  24
HETATM   24  C   UNL     2     -11.247  12.749  68.945  1.00  0.00    -0.283 C  
BRANCH  24  25
HETATM   25  C   UNL     2     -12.014  12.910  70.246  1.00  0.00    -0.359 A  
HETATM   26  I   UNL     2     -12.738  16.080  73.152  1.00  0.00    -0.561 I  
HETATM   27  C   UNL     2     -12.723  11.829  70.799  1.00  0.00    -0.256 A  
HETATM   28  C   UNL     2     -12.037  14.145  70.922  1.00  0.00    -0.416 A  
HETATM   29  C   UNL     2     -13.377  11.950  72.023  1.00  0.00    -0.425 A  
HETATM   30  C   UNL     2     -12.716  14.264  72.137  1.00  0.00    -0.306 A  
HETATM   31  C   UNL     2     -13.376  13.167  72.695  1.00  0.00    -0.375 A  
ENDBRANCH  24  25
ENDBRANCH  14  24
BRANCH  19  32
HETATM   32  C   UNL     3      -7.067  10.457  64.258  1.00  0.00     0.017 C  
BRANCH  32  33
HETATM   33  C   UNL     3      -6.715   9.162  63.584  1.00  0.00    -0.090 A  
HETATM   34  C   UNL     3      -5.866   6.632  62.696  1.00  0.00    -0.038 A  
HETATM   35  C   UNL     3      -7.477   8.025  63.851  1.00  0.00    -0.117 A  
HETATM   36  I   UNL     3      -8.120   5.085  63.999  1.00  0.00    -0.128 I  
HETATM   37  C   UNL     3      -5.130   7.767  62.361  1.00  0.00    -0.046 A  
HETATM   38  C   UNL     3      -7.042   6.768  63.432  1.00  0.00    -0.060 A  
HETATM   39  C   UNL     3      -5.545   9.025  62.808  1.00  0.00    -0.078 A  
ENDBRANCH  32  33
ENDBRANCH  19  32
TORSDOF 4
ENDMDL
MODEL       83
REMARK 921   NORMALIZED FREE ENERGY PREDICTED BY IDOCK:   -5.80 KCAL/MOL
REMARK 922        TOTAL FREE ENERGY PREDICTED BY IDOCK:   -7.80 KCAL/MOL
REMARK 923 INTER-LIGAND FREE ENERGY PREDICTED BY IDOCK:   -7.57 KCAL/MOL
REMARK 924 INTRA-LIGAND FREE ENERGY PREDICTED BY IDOCK:   -0.23 KCAL/MOL
REMARK 927      BINDING AFFINITY PREDICTED BY RF-SCORE:    0.00 PKD
ROOT
HETATM    1  O   UNL     1     -12.918   7.607  71.251  1.00  0.00    -0.313 OA 
HETATM    2  S   UNL     1     -13.240   9.124  71.684  1.00  0.00    -0.387 S  
HETATM    3  N   UNL     2      -9.658   6.037  70.207  1.00  0.00    -0.161 NA 
HETATM    4  H1  UNL     2     -10.326   5.686  70.893  1.00  0.00     0.000 HD 
HETATM    5  H2  UNL     2      -9.619   5.665  69.257  1.00  0.00     0.000 HD 
HETATM    6  C   UNL     2      -8.831   7.013  70.616  1.00  0.00    -0.150 C  
HETATM    7  N   UNL     3     -11.339   8.268  68.926  1.00  0.00    -0.084 NA 
HETATM    8  O   UNL     1     -13.756   9.723  70.289  1.00  0.00     0.251 OA 
HETATM    9  O   UNL     1     -14.330   9.090  72.630  1.00  0.00    -0.603 OA 
HETATM   10  O   UNL     1     -11.980   9.749  71.980  1.00  0.00    -0.297 OA 
HETATM   11  C   UNL     3     -10.793   9.504  68.902  1.00  0.00    -0.150 C  
HETATM   12  H1  UNL     3     -12.268   8.059  68.560  1.00  0.00     0.000 HD 
HETATM   13  H2  UNL     3     -10.795   7.507  69.332  1.00  0.00     0.000 HD 
HETATM   14  N   UNL     2      -9.074   7.636  71.775  1.00  0.00    -0.131 NA 
HETATM   15  N   UNL     2      -7.989   7.454  69.752  1.00  0.00    -0.122 NA 
HETATM   16  H2  UNL     2      -7.950   7.083  68.802  1.00  0.00     0.000 HD 
HETATM   17  H   UNL     2      -8.537   8.489  71.930  1.00  0.00     0.000 HD 
HETATM   18  N   UNL     3      -9.629   9.768  69.360  1.00  0.00    -0.194 NA 
HETATM   19  N   UNL     3     -11.623  10.461  68.427  1.00  0.00    -0.647 NA 
HETATM   20  H2  UNL     3      -9.085   9.006  69.766  1.00  0.00     0.000 HD 
HETATM   21  H1  UNL     2      -7.361   8.196  70.063  1.00  0.00     0.000 HD 
HETATM   22  H1  UNL     3      -9.217  10.700  69.342  1.00  0.00     0.000 HD 
HETATM   23  H   UNL     3     -12.638  10.359  68.450  1.00  0.00     0.000 HD 
ENDROOT
BRANCH  14  24
HETATM   24  C   UNL     2      -9.988   7.278  72.844  1.00  0.00    -0.213 C  
BRANCH  24  25
HETATM   25  C   UNL     2      -9.801   5.822  73.235  1.00  0.00    -0.174 A  
HETATM   26  I   UNL     2      -6.504   3.249  74.471  1.00  0.00    -0.029 I  
HETATM   27  C   UNL     2     -10.890   4.933  73.235  1.00  0.00    -0.355 A  
HETATM   28  C   UNL     2      -8.535   5.333  73.613  1.00  0.00    -0.112 A  
HETATM   29  C   UNL     2     -10.717   3.584  73.530  1.00  0.00    -0.307 A  
HETATM   30  C   UNL     2      -8.375   3.983  73.931  1.00  0.00    -0.091 A  
HETATM   31  C   UNL     2      -9.458   3.104  73.880  1.00  0.00    -0.116 A  
ENDBRANCH  24  25
ENDBRANCH  14  24
BRANCH  19  32
HETATM   32  C   UNL     3     -10.976  11.648  67.883  1.00  0.00    -0.225 C  
BRANCH  32  33
HETATM   33  C   UNL     3     -11.251  11.836  66.418  1.00  0.00    -0.382 A  
HETATM   34  C   UNL     3     -11.424  12.449  63.680  1.00  0.00    -0.568 A  
HETATM   35  C   UNL     3     -10.488  11.134  65.486  1.00  0.00    -0.317 A  
HETATM   36  I   UNL     3      -9.276  10.503  62.800  1.00  0.00    -0.371 I  
HETATM   37  C   UNL     3     -12.243  13.111  64.591  1.00  0.00    -0.471 A  
HETATM   38  C   UNL     3     -10.555  11.457  64.131  1.00  0.00    -0.369 A  
HETATM   39  C   UNL     3     -12.154  12.814  65.954  1.00  0.00    -0.485 A  
ENDBRANCH  32  33
ENDBRANCH  19  32
TORSDOF 4
ENDMDL
MODEL       84
REMARK 921   NORMALIZED FREE ENERGY PREDICTED BY IDOCK:   -5.79 KCAL/MOL
REMARK 922        TOTAL FREE ENERGY PREDICTED BY IDOCK:   -7.80 KCAL/MOL
REMARK 923 INTER-LIGAND FREE ENERGY PREDICTED BY IDOCK:   -7.17 KCAL/MOL
REMARK 924 INTRA-LIGAND FREE ENERGY PREDICTED BY IDOCK:   -0.63 KCAL/MOL
REMARK 927      BINDING AFFINITY PREDICTED BY RF-SCORE:    0.00 PKD
ROOT
HETATM    1  O   UNL     1      -7.532  10.071  70.632  1.00  0.00    -0.302 OA 
HETATM    2  S   UNL     1      -6.967   9.970  69.128  1.00  0.00    -0.064 S  
HETATM    3  N   UNL     2     -10.750   8.768  72.093  1.00  0.00    -0.343 NA 
HETATM    4  H1  UNL     2      -9.807   8.660  72.468  1.00  0.00     0.000 HD 
HETATM    5  H2  UNL     2     -11.395   9.468  72.459  1.00  0.00     0.000 HD 
HETATM    6  C   UNL     2     -11.098   7.942  71.093  1.00  0.00    -0.255 C  
HETATM    7  N   UNL     3     -10.212  10.866  69.912  1.00  0.00    -0.392 NA 
HETATM    8  O   UNL     1      -7.443  11.384  68.540  1.00  0.00    -0.098 OA 
HETATM    9  O   UNL     1      -5.525   9.936  69.200  1.00  0.00    -0.036 OA 
HETATM   10  O   UNL     1      -7.730   8.950  68.464  1.00  0.00    -0.095 OA 
HETATM   11  C   UNL     3     -10.615  10.558  68.659  1.00  0.00    -0.200 C  
HETATM   12  H1  UNL     3      -9.737  11.737  70.149  1.00  0.00     0.000 HD 
HETATM   13  H2  UNL     3     -10.393  10.193  70.657  1.00  0.00     0.000 HD 
HETATM   14  N   UNL     2     -10.155   7.216  70.482  1.00  0.00    -0.194 NA 
HETATM   15  N   UNL     2     -12.285   8.079  70.621  1.00  0.00    -0.495 NA 
HETATM   16  H2  UNL     2     -12.931   8.778  70.988  1.00  0.00     0.000 HD 
HETATM   17  H   UNL     2     -10.446   6.769  69.613  1.00  0.00     0.000 HD 
HETATM   18  N   UNL     3     -11.210   9.467  68.360  1.00  0.00    -0.478 NA 
HETATM   19  N   UNL     3     -10.253  11.469  67.727  1.00  0.00    -0.179 NA 
HETATM   20  H2  UNL     3     -11.392   8.794  69.105  1.00  0.00     0.000 HD 
HETATM   21  H1  UNL     2     -12.550   7.451  69.861  1.00  0.00     0.000 HD 
HETATM   22  H1  UNL     3     -11.514   9.234  67.414  1.00  0.00     0.000 HD 
HETATM   23  H   UNL     3      -9.460  12.097  67.862  1.00  0.00     0.000 HD 
ENDROOT
BRANCH  14  24
HETATM   24  C   UNL     2      -8.779   6.970  70.873  1.00  0.00    -0.143 C  
BRANCH  24  25
HETATM   25  C   UNL     2      -8.726   6.006  72.046  1.00  0.00    -0.136 A  
HETATM   26  I   UNL     2      -9.937   1.895  72.855  1.00  0.00    -0.220 I  
HETATM   27  C   UNL     2      -8.181   6.405  73.279  1.00  0.00    -0.114 A  
HETATM   28  C   UNL     2      -9.217   4.692  71.923  1.00  0.00    -0.175 A  
HETATM   29  C   UNL     2      -8.186   5.551  74.378  1.00  0.00    -0.103 A  
HETATM   30  C   UNL     2      -9.197   3.833  73.024  1.00  0.00    -0.102 A  
HETATM   31  C   UNL     2      -8.693   4.261  74.254  1.00  0.00    -0.095 A  
ENDBRANCH  24  25
ENDBRANCH  14  24
BRANCH  19  32
HETATM   32  C   UNL     3     -11.066  11.497  66.519  1.00  0.00    -0.282 C  
BRANCH  32  33
HETATM   33  C   UNL     3     -11.052  12.837  65.842  1.00  0.00    -0.318 A  
HETATM   34  C   UNL     3     -11.234  15.489  64.924  1.00  0.00    -0.396 A  
HETATM   35  C   UNL     3     -10.109  13.788  66.231  1.00  0.00    -0.304 A  
HETATM   36  I   UNL     3      -8.889  16.526  66.537  1.00  0.00    -0.368 I  
HETATM   37  C   UNL     3     -12.143  14.536  64.471  1.00  0.00    -0.501 A  
HETATM   38  C   UNL     3     -10.215  15.108  65.796  1.00  0.00    -0.341 A  
HETATM   39  C   UNL     3     -12.060  13.218  64.932  1.00  0.00    -0.440 A  
ENDBRANCH  32  33
ENDBRANCH  19  32
TORSDOF 4
ENDMDL
MODEL       85
REMARK 921   NORMALIZED FREE ENERGY PREDICTED BY IDOCK:   -5.76 KCAL/MOL
REMARK 922        TOTAL FREE ENERGY PREDICTED BY IDOCK:   -7.75 KCAL/MOL
REMARK 923 INTER-LIGAND FREE ENERGY PREDICTED BY IDOCK:   -8.32 KCAL/MOL
REMARK 924 INTRA-LIGAND FREE ENERGY PREDICTED BY IDOCK:    0.56 KCAL/MOL
REMARK 927      BINDING AFFINITY PREDICTED BY RF-SCORE:    0.00 PKD
ROOT
HETATM    1  O   UNL     1      -8.129  11.987  66.762  1.00  0.00    -0.156 OA 
HETATM    2  S   UNL     1      -8.120  12.668  68.221  1.00  0.00    -0.149 S  
HETATM    3  N   UNL     2     -10.875  11.832  64.190  1.00  0.00    -0.331 NA 
HETATM    4  H1  UNL     2      -9.901  12.098  64.045  1.00  0.00     0.000 HD 
HETATM    5  H2  UNL     2     -11.217  10.901  63.950  1.00  0.00     0.000 HD 
HETATM    6  C   UNL     2     -11.684  12.768  64.711  1.00  0.00    -0.352 C  
HETATM    7  N   UNL     3     -10.692  10.686  67.036  1.00  0.00    -0.266 NA 
HETATM    8  O   UNL     1      -8.482  11.403  69.138  1.00  0.00    -0.008 OA 
HETATM    9  O   UNL     1      -6.770  13.097  68.499  1.00  0.00    -0.078 OA 
HETATM   10  O   UNL     1      -9.240  13.567  68.268  1.00  0.00    -0.197 OA 
HETATM   11  C   UNL     3     -11.534  11.204  67.956  1.00  0.00    -0.293 C  
HETATM   12  H1  UNL     3     -10.007   9.960  67.249  1.00  0.00     0.000 HD 
HETATM   13  H2  UNL     3     -10.743  11.038  66.080  1.00  0.00     0.000 HD 
HETATM   14  N   UNL     2     -11.152  13.878  65.234  1.00  0.00    -0.308 NA 
HETATM   15  N   UNL     2     -12.911  12.432  64.892  1.00  0.00    -0.720 NA 
HETATM   16  H2  UNL     2     -13.253  11.501  64.653  1.00  0.00     0.000 HD 
HETATM   17  H   UNL     2     -11.792  14.448  65.787  1.00  0.00     0.000 HD 
HETATM   18  N   UNL     3     -12.393  12.114  67.690  1.00  0.00    -0.146 NA 
HETATM   19  N   UNL     3     -11.331  10.739  69.210  1.00  0.00    -0.263 NA 
HETATM   20  H2  UNL     3     -12.445  12.466  66.734  1.00  0.00     0.000 HD 
HETATM   21  H1  UNL     2     -13.526  13.143  65.288  1.00  0.00     0.000 HD 
HETATM   22  H1  UNL     3     -13.029  12.505  68.384  1.00  0.00     0.000 HD 
HETATM   23  H   UNL     3     -10.433  10.357  69.507  1.00  0.00     0.000 HD 
ENDROOT
BRANCH  14  24
HETATM   24  C   UNL     2      -9.798  14.392  65.133  1.00  0.00    -0.102 C  
BRANCH  24  25
HETATM   25  C   UNL     2      -9.738  15.825  65.633  1.00  0.00    -0.332 A  
HETATM   26  I   UNL     2      -7.027  18.253  68.037  1.00  0.00    -0.248 I  
HETATM   27  C   UNL     2     -10.769  16.734  65.336  1.00  0.00    -0.201 A  
HETATM   28  C   UNL     2      -8.646  16.276  66.401  1.00  0.00    -0.361 A  
HETATM   29  C   UNL     2     -10.753  18.030  65.843  1.00  0.00    -0.124 A  
HETATM   30  C   UNL     2      -8.627  17.586  66.886  1.00  0.00    -0.247 A  
HETATM   31  C   UNL     2      -9.682  18.461  66.619  1.00  0.00    -0.342 A  
ENDBRANCH  24  25
ENDBRANCH  14  24
BRANCH  19  32
HETATM   32  C   UNL     3     -12.475  10.820  70.109  1.00  0.00    -0.285 C  
BRANCH  32  33
HETATM   33  C   UNL     3     -12.645  12.186  70.708  1.00  0.00    -0.305 A  
HETATM   34  C   UNL     3     -12.564  14.691  71.983  1.00  0.00    -0.408 A  
HETATM   35  C   UNL     3     -12.071  13.286  70.073  1.00  0.00    -0.385 A  
HETATM   36  I   UNL     3     -10.992  16.087  69.803  1.00  0.00    -0.342 I  
HETATM   37  C   UNL     3     -13.203  13.619  72.602  1.00  0.00    -0.533 A  
HETATM   38  C   UNL     3     -12.008  14.521  70.716  1.00  0.00    -0.322 A  
HETATM   39  C   UNL     3     -13.238  12.370  71.975  1.00  0.00    -0.514 A  
ENDBRANCH  32  33
ENDBRANCH  19  32
TORSDOF 4
ENDMDL
MODEL       86
REMARK 921   NORMALIZED FREE ENERGY PREDICTED BY IDOCK:   -5.76 KCAL/MOL
REMARK 922        TOTAL FREE ENERGY PREDICTED BY IDOCK:   -7.75 KCAL/MOL
REMARK 923 INTER-LIGAND FREE ENERGY PREDICTED BY IDOCK:   -7.13 KCAL/MOL
REMARK 924 INTRA-LIGAND FREE ENERGY PREDICTED BY IDOCK:   -0.62 KCAL/MOL
REMARK 927      BINDING AFFINITY PREDICTED BY RF-SCORE:    0.00 PKD
ROOT
HETATM    1  O   UNL     1      -7.349   8.026  70.795  1.00  0.00    -0.054 OA 
HETATM    2  S   UNL     1      -7.528   8.611  69.305  1.00  0.00    -0.083 S  
HETATM    3  N   UNL     2      -9.806   6.184  72.974  1.00  0.00    -0.166 NA 
HETATM    4  H1  UNL     2      -8.840   5.927  72.771  1.00  0.00     0.000 HD 
HETATM    5  H2  UNL     2     -10.067   6.642  73.848  1.00  0.00     0.000 HD 
HETATM    6  C   UNL     2     -10.718   5.888  72.034  1.00  0.00    -0.233 C  
HETATM    7  N   UNL     3      -9.844   9.038  71.834  1.00  0.00    -0.295 NA 
HETATM    8  O   UNL     1      -7.905  10.135  69.632  1.00  0.00    -0.147 OA 
HETATM    9  O   UNL     1      -6.240   8.559  68.654  1.00  0.00    -0.044 OA 
HETATM   10  O   UNL     1      -8.698   7.988  68.751  1.00  0.00    -0.131 OA 
HETATM   11  C   UNL     3     -10.805   9.318  70.926  1.00  0.00    -0.296 C  
HETATM   12  H1  UNL     3      -9.143   9.715  72.135  1.00  0.00     0.000 HD 
HETATM   13  H2  UNL     3      -9.819   8.102  72.239  1.00  0.00     0.000 HD 
HETATM   14  N   UNL     2     -10.308   5.517  70.815  1.00  0.00    -0.236 NA 
HETATM   15  N   UNL     2     -11.935   6.211  72.289  1.00  0.00    -0.453 NA 
HETATM   16  H2  UNL     2     -12.196   6.669  73.163  1.00  0.00     0.000 HD 
HETATM   17  H   UNL     2     -11.034   5.503  70.098  1.00  0.00     0.000 HD 
HETATM   18  N   UNL     3     -11.685   8.470  70.549  1.00  0.00    -0.460 NA 
HETATM   19  N   UNL     3     -10.702  10.552  70.382  1.00  0.00    -0.436 NA 
HETATM   20  H2  UNL     3     -11.660   7.534  70.954  1.00  0.00     0.000 HD 
HETATM   21  H1  UNL     2     -12.628   5.987  71.575  1.00  0.00     0.000 HD 
HETATM   22  H1  UNL     3     -12.410   8.681  69.863  1.00  0.00     0.000 HD 
HETATM   23  H   UNL     3      -9.818  11.060  70.353  1.00  0.00     0.000 HD 
ENDROOT
BRANCH  14  24
HETATM   24  C   UNL     2      -8.984   5.133  70.361  1.00  0.00    -0.126 C  
BRANCH  24  25
HETATM   25  C   UNL     2      -9.067   3.911  69.463  1.00  0.00    -0.196 A  
HETATM   26  I   UNL     2      -9.093   3.098  65.178  1.00  0.00    -0.124 I  
HETATM   27  C   UNL     2      -9.183   2.623  70.012  1.00  0.00    -0.202 A  
HETATM   28  C   UNL     2      -9.022   4.042  68.061  1.00  0.00    -0.153 A  
HETATM   29  C   UNL     2      -9.323   1.503  69.196  1.00  0.00    -0.180 A  
HETATM   30  C   UNL     2      -9.139   2.911  67.250  1.00  0.00    -0.174 A  
HETATM   31  C   UNL     2      -9.301   1.644  67.812  1.00  0.00    -0.165 A  
ENDBRANCH  24  25
ENDBRANCH  14  24
BRANCH  19  32
HETATM   32  C   UNL     3     -11.934  11.109  69.838  1.00  0.00    -0.363 C  
BRANCH  32  33
HETATM   33  C   UNL     3     -11.959  12.610  69.883  1.00  0.00    -0.365 A  
HETATM   34  C   UNL     3     -11.600  15.390  70.106  1.00  0.00    -0.351 A  
HETATM   35  C   UNL     3     -11.364  13.333  68.850  1.00  0.00    -0.333 A  
HETATM   36  I   UNL     3     -10.119  15.714  67.484  1.00  0.00    -0.266 I  
HETATM   37  C   UNL     3     -12.260  14.693  71.116  1.00  0.00    -0.405 A  
HETATM   38  C   UNL     3     -11.163  14.707  68.972  1.00  0.00    -0.269 A  
HETATM   39  C   UNL     3     -12.433  13.310  71.012  1.00  0.00    -0.422 A  
ENDBRANCH  32  33
ENDBRANCH  19  32
TORSDOF 4
ENDMDL
MODEL       87
REMARK 921   NORMALIZED FREE ENERGY PREDICTED BY IDOCK:   -5.75 KCAL/MOL
REMARK 922        TOTAL FREE ENERGY PREDICTED BY IDOCK:   -7.74 KCAL/MOL
REMARK 923 INTER-LIGAND FREE ENERGY PREDICTED BY IDOCK:   -6.89 KCAL/MOL
REMARK 924 INTRA-LIGAND FREE ENERGY PREDICTED BY IDOCK:   -0.85 KCAL/MOL
REMARK 927      BINDING AFFINITY PREDICTED BY RF-SCORE:    0.00 PKD
ROOT
HETATM    1  O   UNL     1      -6.999  11.738  66.541  1.00  0.00    -0.036 OA 
HETATM    2  S   UNL     1      -7.272  11.595  68.121  1.00  0.00    -0.092 S  
HETATM    3  N   UNL     2      -9.443  12.000  63.687  1.00  0.00    -0.558 NA 
HETATM    4  H1  UNL     2      -8.631  12.591  63.867  1.00  0.00     0.000 HD 
HETATM    5  H2  UNL     2      -9.415  11.247  62.998  1.00  0.00     0.000 HD 
HETATM    6  C   UNL     2     -10.549  12.263  64.400  1.00  0.00    -0.327 C  
HETATM    7  N   UNL     3      -8.914   9.745  65.707  1.00  0.00    -0.151 NA 
HETATM    8  O   UNL     1      -7.165  10.004  68.294  1.00  0.00    -0.075 OA 
HETATM    9  O   UNL     1      -6.178  12.232  68.816  1.00  0.00    -0.064 OA 
HETATM   10  O   UNL     1      -8.643  11.960  68.343  1.00  0.00    -0.164 OA 
HETATM   11  C   UNL     3      -9.907   9.463  66.579  1.00  0.00    -0.258 C  
HETATM   12  H1  UNL     3      -8.016   9.261  65.706  1.00  0.00     0.000 HD 
HETATM   13  H2  UNL     3      -9.070  10.479  65.016  1.00  0.00     0.000 HD 
HETATM   14  N   UNL     2     -10.471  13.085  65.453  1.00  0.00    -0.290 NA 
HETATM   15  N   UNL     2     -11.572  11.520  64.173  1.00  0.00    -0.273 NA 
HETATM   16  H2  UNL     2     -11.544  10.767  63.484  1.00  0.00     0.000 HD 
HETATM   17  H   UNL     2     -11.288  13.086  66.065  1.00  0.00     0.000 HD 
HETATM   18  N   UNL     3     -11.033  10.069  66.581  1.00  0.00     0.019 NA 
HETATM   19  N   UNL     3      -9.575   8.540  67.510  1.00  0.00    -0.149 NA 
HETATM   20  H2  UNL     3     -11.190  10.803  65.890  1.00  0.00     0.000 HD 
HETATM   21  H1  UNL     2     -12.413  11.720  64.715  1.00  0.00     0.000 HD 
HETATM   22  H1  UNL     3     -11.783   9.857  67.239  1.00  0.00     0.000 HD 
HETATM   23  H   UNL     3      -8.606   8.363  67.776  1.00  0.00     0.000 HD 
ENDROOT
BRANCH  14  24
HETATM   24  C   UNL     2      -9.398  13.976  65.855  1.00  0.00     0.028 C  
BRANCH  24  25
HETATM   25  C   UNL     2      -9.925  15.053  66.786  1.00  0.00    -0.254 A  
HETATM   26  I   UNL     2     -12.008  15.221  70.614  1.00  0.00    -0.541 I  
HETATM   27  C   UNL     2      -9.794  16.414  66.458  1.00  0.00    -0.290 A  
HETATM   28  C   UNL     2     -10.551  14.714  68.002  1.00  0.00    -0.240 A  
HETATM   29  C   UNL     2     -10.330  17.406  67.274  1.00  0.00    -0.336 A  
HETATM   30  C   UNL     2     -11.065  15.716  68.827  1.00  0.00    -0.307 A  
HETATM   31  C   UNL     2     -10.967  17.060  68.462  1.00  0.00    -0.247 A  
ENDBRANCH  24  25
ENDBRANCH  14  24
BRANCH  19  32
HETATM   32  C   UNL     3     -10.688   7.817  68.111  1.00  0.00    -0.051 C  
BRANCH  32  33
HETATM   33  C   UNL     3     -10.753   7.989  69.601  1.00  0.00    -0.207 A  
HETATM   34  C   UNL     3     -11.286   8.187  72.355  1.00  0.00    -0.452 A  
HETATM   35  C   UNL     3     -10.667   6.866  70.422  1.00  0.00    -0.278 A  
HETATM   36  I   UNL     3     -10.982   5.230  72.933  1.00  0.00    -0.352 I  
HETATM   37  C   UNL     3     -11.308   9.332  71.561  1.00  0.00    -0.455 A  
HETATM   38  C   UNL     3     -10.956   6.960  71.783  1.00  0.00    -0.230 A  
HETATM   39  C   UNL     3     -11.051   9.235  70.190  1.00  0.00    -0.260 A  
ENDBRANCH  32  33
ENDBRANCH  19  32
TORSDOF 4
ENDMDL
MODEL       88
REMARK 921   NORMALIZED FREE ENERGY PREDICTED BY IDOCK:   -5.75 KCAL/MOL
REMARK 922        TOTAL FREE ENERGY PREDICTED BY IDOCK:   -7.74 KCAL/MOL
REMARK 923 INTER-LIGAND FREE ENERGY PREDICTED BY IDOCK:   -7.01 KCAL/MOL
REMARK 924 INTRA-LIGAND FREE ENERGY PREDICTED BY IDOCK:   -0.73 KCAL/MOL
REMARK 927      BINDING AFFINITY PREDICTED BY RF-SCORE:    0.00 PKD
ROOT
HETATM    1  O   UNL     1      -8.880  10.542  69.277  1.00  0.00    -0.166 OA 
HETATM    2  S   UNL     1      -7.362  10.556  68.739  1.00  0.00    -0.100 S  
HETATM    3  N   UNL     2     -11.984  12.061  67.779  1.00  0.00    -0.553 NA 
HETATM    4  H1  UNL     2     -11.863  11.111  68.132  1.00  0.00     0.000 HD 
HETATM    5  H2  UNL     2     -12.445  12.784  68.333  1.00  0.00     0.000 HD 
HETATM    6  C   UNL     2     -11.505  12.312  66.550  1.00  0.00    -0.381 C  
HETATM    7  N   UNL     3      -9.399  13.347  68.835  1.00  0.00    -0.392 NA 
HETATM    8  O   UNL     1      -6.772  11.801  69.559  1.00  0.00    -0.112 OA 
HETATM    9  O   UNL     1      -6.726   9.338  69.183  1.00  0.00    -0.049 OA 
HETATM   10  O   UNL     1      -7.414  10.939  67.355  1.00  0.00    -0.094 OA 
HETATM   11  C   UNL     3      -8.614  13.969  67.927  1.00  0.00    -0.181 C  
HETATM   12  H1  UNL     3      -9.164  13.278  69.825  1.00  0.00     0.000 HD 
HETATM   13  H2  UNL     3     -10.270  12.925  68.513  1.00  0.00     0.000 HD 
HETATM   14  N   UNL     2     -10.700  11.418  65.964  1.00  0.00    -0.271 NA 
HETATM   15  N   UNL     2     -11.657  13.508  66.106  1.00  0.00    -0.331 NA 
HETATM   16  H2  UNL     2     -12.118  14.230  66.659  1.00  0.00     0.000 HD 
HETATM   17  H   UNL     2     -10.215  11.752  65.131  1.00  0.00     0.000 HD 
HETATM   18  N   UNL     3      -8.907  14.055  66.686  1.00  0.00    -0.435 NA 
HETATM   19  N   UNL     3      -7.442  14.417  68.432  1.00  0.00    -0.110 NA 
HETATM   20  H2  UNL     3      -9.779  13.634  66.363  1.00  0.00     0.000 HD 
HETATM   21  H1  UNL     2     -11.293  13.699  65.172  1.00  0.00     0.000 HD 
HETATM   22  H1  UNL     3      -8.315  14.524  66.000  1.00  0.00     0.000 HD 
HETATM   23  H   UNL     3      -7.022  14.013  69.269  1.00  0.00     0.000 HD 
ENDROOT
BRANCH  14  24
HETATM   24  C   UNL     2     -10.413  10.046  66.338  1.00  0.00    -0.129 C  
BRANCH  24  25
HETATM   25  C   UNL     2      -9.505   9.395  65.309  1.00  0.00    -0.296 A  
HETATM   26  I   UNL     2      -6.979   5.848  65.069  1.00  0.00    -0.064 I  
HETATM   27  C   UNL     2      -9.312   9.985  64.047  1.00  0.00    -0.324 A  
HETATM   28  C   UNL     2      -8.841   8.186  65.593  1.00  0.00    -0.160 A  
HETATM   29  C   UNL     2      -8.433   9.430  63.121  1.00  0.00    -0.205 A  
HETATM   30  C   UNL     2      -7.979   7.624  64.649  1.00  0.00    -0.136 A  
HETATM   31  C   UNL     2      -7.764   8.247  63.419  1.00  0.00    -0.142 A  
ENDBRANCH  24  25
ENDBRANCH  14  24
BRANCH  19  32
HETATM   32  C   UNL     3      -6.817  15.513  67.703  1.00  0.00    -0.181 C  
BRANCH  32  33
HETATM   33  C   UNL     3      -7.208  16.860  68.238  1.00  0.00    -0.186 A  
HETATM   34  C   UNL     3      -7.767  19.541  68.878  1.00  0.00    -0.369 A  
HETATM   35  C   UNL     3      -8.356  17.481  67.748  1.00  0.00    -0.220 A  
HETATM   36  I   UNL     3     -10.249  19.750  67.154  1.00  0.00    -0.597 I  
HETATM   37  C   UNL     3      -6.654  18.914  69.432  1.00  0.00    -0.293 A  
HETATM   38  C   UNL     3      -8.619  18.818  68.045  1.00  0.00    -0.297 A  
HETATM   39  C   UNL     3      -6.368  17.584  69.110  1.00  0.00    -0.235 A  
ENDBRANCH  32  33
ENDBRANCH  19  32
TORSDOF 4
ENDMDL
MODEL       89
REMARK 921   NORMALIZED FREE ENERGY PREDICTED BY IDOCK:   -5.73 KCAL/MOL
REMARK 922        TOTAL FREE ENERGY PREDICTED BY IDOCK:   -7.72 KCAL/MOL
REMARK 923 INTER-LIGAND FREE ENERGY PREDICTED BY IDOCK:   -7.06 KCAL/MOL
REMARK 924 INTRA-LIGAND FREE ENERGY PREDICTED BY IDOCK:   -0.66 KCAL/MOL
REMARK 927      BINDING AFFINITY PREDICTED BY RF-SCORE:    0.00 PKD
ROOT
HETATM    1  O   UNL     1     -10.047  11.248  69.739  1.00  0.00     0.227 OA 
HETATM    2  S   UNL     1     -11.564  10.707  69.767  1.00  0.00    -0.328 S  
HETATM    3  N   UNL     2      -7.726  11.772  66.820  1.00  0.00    -0.299 NA 
HETATM    4  H1  UNL     2      -7.932  12.424  67.577  1.00  0.00     0.000 HD 
HETATM    5  H2  UNL     2      -6.875  11.209  66.813  1.00  0.00     0.000 HD 
HETATM    6  C   UNL     2      -8.632  11.691  65.832  1.00  0.00     0.065 C  
HETATM    7  N   UNL     3      -9.022   9.225  67.953  1.00  0.00    -0.128 NA 
HETATM    8  O   UNL     1     -11.316   9.155  70.086  1.00  0.00    -0.231 OA 
HETATM    9  O   UNL     1     -12.234  11.330  70.884  1.00  0.00    -0.365 OA 
HETATM   10  O   UNL     1     -12.062  10.795  68.422  1.00  0.00    -0.501 OA 
HETATM   11  C   UNL     3      -9.927   8.601  67.167  1.00  0.00    -0.231 C  
HETATM   12  H1  UNL     3      -8.772   8.899  68.887  1.00  0.00     0.000 HD 
HETATM   13  H2  UNL     3      -8.566  10.064  67.594  1.00  0.00     0.000 HD 
HETATM   14  N   UNL     2      -9.835  12.253  65.998  1.00  0.00    -0.246 NA 
HETATM   15  N   UNL     2      -8.374  10.869  64.880  1.00  0.00    -0.370 NA 
HETATM   16  H2  UNL     2      -7.522  10.307  64.873  1.00  0.00     0.000 HD 
HETATM   17  H   UNL     2     -10.537  11.987  65.307  1.00  0.00     0.000 HD 
HETATM   18  N   UNL     3     -10.241   9.009  65.996  1.00  0.00    -0.334 NA 
HETATM   19  N   UNL     3     -10.541   7.554  67.762  1.00  0.00    -0.361 NA 
HETATM   20  H2  UNL     3      -9.785   9.847  65.637  1.00  0.00     0.000 HD 
HETATM   21  H1  UNL     2      -9.062  10.807  64.129  1.00  0.00     0.000 HD 
HETATM   22  H1  UNL     3     -10.925   8.539  65.403  1.00  0.00     0.000 HD 
HETATM   23  H   UNL     3     -10.614   7.472  68.777  1.00  0.00     0.000 HD 
ENDROOT
BRANCH  14  24
HETATM   24  C   UNL     2     -10.291  13.183  67.014  1.00  0.00    -0.249 C  
BRANCH  24  25
HETATM   25  C   UNL     2     -10.456  14.573  66.423  1.00  0.00    -0.295 A  
HETATM   26  I   UNL     2     -10.037  18.692  67.792  1.00  0.00    -0.495 I  
HETATM   27  C   UNL     2     -10.863  14.742  65.088  1.00  0.00    -0.417 A  
HETATM   28  C   UNL     2     -10.200  15.721  67.197  1.00  0.00    -0.279 A  
HETATM   29  C   UNL     2     -11.079  16.010  64.557  1.00  0.00    -0.269 A  
HETATM   30  C   UNL     2     -10.395  16.991  66.649  1.00  0.00    -0.299 A  
HETATM   31  C   UNL     2     -10.845  17.139  65.336  1.00  0.00    -0.051 A  
ENDBRANCH  24  25
ENDBRANCH  14  24
BRANCH  19  32
HETATM   32  C   UNL     3     -11.093   6.549  66.863  1.00  0.00    -0.272 C  
BRANCH  32  33
HETATM   33  C   UNL     3     -10.265   5.297  66.817  1.00  0.00    -0.287 A  
HETATM   34  C   UNL     3      -9.090   2.744  66.731  1.00  0.00    -0.164 A  
HETATM   35  C   UNL     3     -10.098   4.634  65.601  1.00  0.00    -0.238 A  
HETATM   36  I   UNL     3      -9.468   2.339  63.753  1.00  0.00    -0.121 I  
HETATM   37  C   UNL     3      -9.186   3.422  67.944  1.00  0.00    -0.237 A  
HETATM   38  C   UNL     3      -9.539   3.357  65.563  1.00  0.00    -0.087 A  
HETATM   39  C   UNL     3      -9.776   4.688  67.991  1.00  0.00    -0.197 A  
ENDBRANCH  32  33
ENDBRANCH  19  32
TORSDOF 4
ENDMDL
MODEL       90
REMARK 921   NORMALIZED FREE ENERGY PREDICTED BY IDOCK:   -5.73 KCAL/MOL
REMARK 922        TOTAL FREE ENERGY PREDICTED BY IDOCK:   -7.72 KCAL/MOL
REMARK 923 INTER-LIGAND FREE ENERGY PREDICTED BY IDOCK:   -7.29 KCAL/MOL
REMARK 924 INTRA-LIGAND FREE ENERGY PREDICTED BY IDOCK:   -0.43 KCAL/MOL
REMARK 927      BINDING AFFINITY PREDICTED BY RF-SCORE:    0.00 PKD
ROOT
HETATM    1  O   UNL     1     -12.120  12.031  65.239  1.00  0.00    -0.404 OA 
HETATM    2  S   UNL     1     -11.461  12.690  63.926  1.00  0.00    -0.482 S  
HETATM    3  N   UNL     2     -10.544  11.139  68.541  1.00  0.00    -0.181 NA 
HETATM    4  H1  UNL     2     -11.408  11.658  68.383  1.00  0.00     0.000 HD 
HETATM    5  H2  UNL     2     -10.551  10.150  68.792  1.00  0.00     0.000 HD 
HETATM    6  C   UNL     2      -9.396  11.823  68.401  1.00  0.00    -0.185 C  
HETATM    7  N   UNL     3     -10.035  10.087  65.698  1.00  0.00    -0.288 NA 
HETATM    8  O   UNL     1     -11.142  11.375  63.065  1.00  0.00    -0.130 OA 
HETATM    9  O   UNL     1     -12.481  13.468  63.264  1.00  0.00    -0.763 OA 
HETATM   10  O   UNL     1     -10.202  13.254  64.330  1.00  0.00    -0.392 OA 
HETATM   11  C   UNL     3      -8.828  10.360  65.155  1.00  0.00    -0.189 C  
HETATM   12  H1  UNL     3     -10.767   9.573  65.207  1.00  0.00     0.000 HD 
HETATM   13  H2  UNL     3     -10.224  10.412  66.646  1.00  0.00     0.000 HD 
HETATM   14  N   UNL     2      -9.420  13.036  67.837  1.00  0.00    -0.211 NA 
HETATM   15  N   UNL     2      -8.309  11.169  68.599  1.00  0.00    -0.153 NA 
HETATM   16  H2  UNL     2      -8.316  10.180  68.851  1.00  0.00     0.000 HD 
HETATM   17  H   UNL     2      -8.508  13.412  67.579  1.00  0.00     0.000 HD 
HETATM   18  N   UNL     3      -7.910  11.004  65.769  1.00  0.00    -0.350 NA 
HETATM   19  N   UNL     3      -8.705   9.968  63.866  1.00  0.00    -0.187 NA 
HETATM   20  H2  UNL     3      -8.098  11.328  66.718  1.00  0.00     0.000 HD 
HETATM   21  H1  UNL     2      -7.437  11.688  68.493  1.00  0.00     0.000 HD 
HETATM   22  H1  UNL     3      -6.999  11.210  65.359  1.00  0.00     0.000 HD 
HETATM   23  H   UNL     3      -9.514   9.842  63.258  1.00  0.00     0.000 HD 
ENDROOT
BRANCH  14  24
HETATM   24  C   UNL     2     -10.550  13.896  67.538  1.00  0.00    -0.256 C  
BRANCH  24  25
HETATM   25  C   UNL     2     -11.027  14.600  68.797  1.00  0.00    -0.268 A  
HETATM   26  I   UNL     2     -13.716  13.724  72.117  1.00  0.00    -0.589 I  
HETATM   27  C   UNL     2     -10.581  15.896  69.108  1.00  0.00    -0.246 A  
HETATM   28  C   UNL     2     -11.921  13.967  69.682  1.00  0.00    -0.393 A  
HETATM   29  C   UNL     2     -11.061  16.573  70.225  1.00  0.00    -0.171 A  
HETATM   30  C   UNL     2     -12.380  14.645  70.814  1.00  0.00    -0.328 A  
HETATM   31  C   UNL     2     -11.962  15.949  71.083  1.00  0.00    -0.472 A  
ENDBRANCH  24  25
ENDBRANCH  14  24
BRANCH  19  32
HETATM   32  C   UNL     3      -7.344   9.738  63.401  1.00  0.00    -0.125 C  
BRANCH  32  33
HETATM   33  C   UNL     3      -7.026   8.279  63.242  1.00  0.00    -0.086 A  
HETATM   34  C   UNL     3      -6.272   5.572  63.342  1.00  0.00    -0.022 A  
HETATM   35  C   UNL     3      -7.868   7.330  63.821  1.00  0.00    -0.109 A  
HETATM   36  I   UNL     3      -8.688   4.645  64.916  1.00  0.00    -0.140 I  
HETATM   37  C   UNL     3      -5.452   6.495  62.699  1.00  0.00    -0.023 A  
HETATM   38  C   UNL     3      -7.481   5.992  63.893  1.00  0.00    -0.080 A  
HETATM   39  C   UNL     3      -5.820   7.843  62.653  1.00  0.00    -0.068 A  
ENDBRANCH  32  33
ENDBRANCH  19  32
TORSDOF 4
ENDMDL
MODEL       91
REMARK 921   NORMALIZED FREE ENERGY PREDICTED BY IDOCK:   -5.70 KCAL/MOL
REMARK 922        TOTAL FREE ENERGY PREDICTED BY IDOCK:   -7.69 KCAL/MOL
REMARK 923 INTER-LIGAND FREE ENERGY PREDICTED BY IDOCK:   -7.01 KCAL/MOL
REMARK 924 INTRA-LIGAND FREE ENERGY PREDICTED BY IDOCK:   -0.67 KCAL/MOL
REMARK 927      BINDING AFFINITY PREDICTED BY RF-SCORE:    0.00 PKD
ROOT
HETATM    1  O   UNL     1     -10.304  15.201  69.869  1.00  0.00    -0.246 OA 
HETATM    2  S   UNL     1     -11.609  14.888  68.980  1.00  0.00    -0.321 S  
HETATM    3  N   UNL     2      -6.659  15.075  68.932  1.00  0.00    -0.093 NA 
HETATM    4  H1  UNL     2      -7.152  15.827  69.414  1.00  0.00     0.000 HD 
HETATM    5  H2  UNL     2      -6.085  14.400  69.439  1.00  0.00     0.000 HD 
HETATM    6  C   UNL     2      -6.802  15.019  67.598  1.00  0.00    -0.179 C  
HETATM    7  N   UNL     3      -8.801  12.874  69.058  1.00  0.00    -0.209 NA 
HETATM    8  O   UNL     1     -11.879  13.360  69.383  1.00  0.00    -0.300 OA 
HETATM    9  O   UNL     1     -12.686  15.716  69.470  1.00  0.00    -0.038 OA 
HETATM   10  O   UNL     1     -11.190  14.902  67.605  1.00  0.00    -0.301 OA 
HETATM   11  C   UNL     3      -9.159  12.306  67.885  1.00  0.00    -0.190 C  
HETATM   12  H1  UNL     3      -9.215  12.618  69.954  1.00  0.00     0.000 HD 
HETATM   13  H2  UNL     3      -8.081  13.597  69.045  1.00  0.00     0.000 HD 
HETATM   14  N   UNL     2      -7.745  15.761  67.008  1.00  0.00    -0.222 NA 
HETATM   15  N   UNL     2      -6.180  14.072  66.992  1.00  0.00    -0.124 NA 
HETATM   16  H2  UNL     2      -5.607  13.397  67.498  1.00  0.00     0.000 HD 
HETATM   17  H   UNL     2      -7.936  15.526  66.033  1.00  0.00     0.000 HD 
HETATM   18  N   UNL     3      -8.641  12.627  66.761  1.00  0.00    -0.375 NA 
HETATM   19  N   UNL     3     -10.180  11.426  67.992  1.00  0.00    -0.180 NA 
HETATM   20  H2  UNL     3      -7.920  13.348  66.748  1.00  0.00     0.000 HD 
HETATM   21  H1  UNL     2      -6.289  14.029  65.978  1.00  0.00     0.000 HD 
HETATM   22  H1  UNL     3      -8.910  12.198  65.876  1.00  0.00     0.000 HD 
HETATM   23  H   UNL     3     -10.852  11.464  68.758  1.00  0.00     0.000 HD 
ENDROOT
BRANCH  14  24
HETATM   24  C   UNL     2      -8.539  16.850  67.547  1.00  0.00    -0.203 C  
BRANCH  24  25
HETATM   25  C   UNL     2      -7.817  18.173  67.360  1.00  0.00    -0.222 A  
HETATM   26  I   UNL     2      -6.030  20.395  64.060  1.00  0.00    -0.261 I  
HETATM   27  C   UNL     2      -7.570  19.018  68.457  1.00  0.00    -0.364 A  
HETATM   28  C   UNL     2      -7.385  18.586  66.085  1.00  0.00    -0.295 A  
HETATM   29  C   UNL     2      -6.854  20.202  68.306  1.00  0.00    -0.335 A  
HETATM   30  C   UNL     2      -6.688  19.788  65.938  1.00  0.00    -0.253 A  
HETATM   31  C   UNL     2      -6.411  20.591  67.046  1.00  0.00    -0.292 A  
ENDBRANCH  24  25
ENDBRANCH  14  24
BRANCH  19  32
HETATM   32  C   UNL     3     -10.261  10.419  66.941  1.00  0.00    -0.227 C  
BRANCH  32  33
HETATM   33  C   UNL     3     -10.424   9.029  67.483  1.00  0.00    -0.338 A  
HETATM   34  C   UNL     3     -10.321   6.462  68.629  1.00  0.00    -0.231 A  
HETATM   35  C   UNL     3     -10.658   8.851  68.846  1.00  0.00    -0.188 A  
HETATM   36  I   UNL     3     -10.766   7.387  71.478  1.00  0.00    -0.281 I  
HETATM   37  C   UNL     3     -10.154   6.615  67.254  1.00  0.00    -0.222 A  
HETATM   38  C   UNL     3     -10.581   7.581  69.418  1.00  0.00    -0.223 A  
HETATM   39  C   UNL     3     -10.197   7.890  66.683  1.00  0.00    -0.303 A  
ENDBRANCH  32  33
ENDBRANCH  19  32
TORSDOF 4
ENDMDL
MODEL       92
REMARK 921   NORMALIZED FREE ENERGY PREDICTED BY IDOCK:   -5.69 KCAL/MOL
REMARK 922        TOTAL FREE ENERGY PREDICTED BY IDOCK:   -7.66 KCAL/MOL
REMARK 923 INTER-LIGAND FREE ENERGY PREDICTED BY IDOCK:   -6.87 KCAL/MOL
REMARK 924 INTRA-LIGAND FREE ENERGY PREDICTED BY IDOCK:   -0.79 KCAL/MOL
REMARK 927      BINDING AFFINITY PREDICTED BY RF-SCORE:    0.00 PKD
ROOT
HETATM    1  O   UNL     1     -11.174  13.693  66.762  1.00  0.00    -0.302 OA 
HETATM    2  S   UNL     1     -10.642  12.256  67.255  1.00  0.00    -0.228 S  
HETATM    3  N   UNL     2     -11.353  16.965  68.618  1.00  0.00    -0.121 NA 
HETATM    4  H1  UNL     2     -10.976  16.799  67.684  1.00  0.00     0.000 HD 
HETATM    5  H2  UNL     2     -12.286  17.355  68.757  1.00  0.00     0.000 HD 
HETATM    6  C   UNL     2     -10.560  16.647  69.653  1.00  0.00    -0.274 C  
HETATM    7  N   UNL     3     -12.749  14.272  69.111  1.00  0.00    -0.350 NA 
HETATM    8  O   UNL     1     -12.021  11.570  67.701  1.00  0.00    -0.630 OA 
HETATM    9  O   UNL     1     -10.108  11.565  66.105  1.00  0.00    -0.215 OA 
HETATM   10  O   UNL     1      -9.871  12.483  68.446  1.00  0.00    -0.225 OA 
HETATM   11  C   UNL     3     -12.412  13.609  70.239  1.00  0.00    -0.265 C  
HETATM   12  H1  UNL     3     -13.419  13.913  68.430  1.00  0.00     0.000 HD 
HETATM   13  H2  UNL     3     -12.312  15.175  68.931  1.00  0.00     0.000 HD 
HETATM   14  N   UNL     2      -9.458  15.919  69.436  1.00  0.00    -0.257 NA 
HETATM   15  N   UNL     2     -11.035  16.856  70.828  1.00  0.00    -0.077 NA 
HETATM   16  H2  UNL     2     -11.968  17.246  70.968  1.00  0.00     0.000 HD 
HETATM   17  H   UNL     2      -9.014  15.544  70.274  1.00  0.00     0.000 HD 
HETATM   18  N   UNL     3     -11.573  14.057  71.094  1.00  0.00    -0.398 NA 
HETATM   19  N   UNL     3     -12.975  12.384  70.345  1.00  0.00     0.294 NA 
HETATM   20  H2  UNL     3     -11.136  14.961  70.915  1.00  0.00     0.000 HD 
HETATM   21  H1  UNL     2     -10.432  16.614  71.615  1.00  0.00     0.000 HD 
HETATM   22  H1  UNL     3     -11.318  13.557  71.946  1.00  0.00     0.000 HD 
HETATM   23  H   UNL     3     -13.292  11.860  69.529  1.00  0.00     0.000 HD 
ENDROOT
BRANCH  14  24
HETATM   24  C   UNL     2      -8.802  15.583  68.186  1.00  0.00    -0.169 C  
BRANCH  24  25
HETATM   25  C   UNL     2      -7.502  14.845  68.453  1.00  0.00    -0.115 A  
HETATM   26  I   UNL     2      -5.355  11.449  66.754  1.00  0.00    -0.089 I  
HETATM   27  C   UNL     2      -6.658  15.233  69.509  1.00  0.00    -0.164 A  
HETATM   28  C   UNL     2      -7.110  13.759  67.646  1.00  0.00    -0.187 A  
HETATM   29  C   UNL     2      -5.497  14.523  69.800  1.00  0.00    -0.095 A  
HETATM   30  C   UNL     2      -5.931  13.066  67.930  1.00  0.00    -0.130 A  
HETATM   31  C   UNL     2      -5.129  13.438  69.011  1.00  0.00    -0.070 A  
ENDBRANCH  24  25
ENDBRANCH  14  24
BRANCH  19  32
HETATM   32  C   UNL     3     -13.100  11.859  71.698  1.00  0.00    -0.328 C  
BRANCH  32  33
HETATM   33  C   UNL     3     -12.705  10.413  71.797  1.00  0.00    -0.525 A  
HETATM   34  C   UNL     3     -12.146   7.665  71.593  1.00  0.00    -0.336 A  
HETATM   35  C   UNL     3     -11.568   9.970  71.124  1.00  0.00    -0.460 A  
HETATM   36  I   UNL     3      -9.694   7.986  69.845  1.00  0.00    -0.185 I  
HETATM   37  C   UNL     3     -13.249   8.095  72.328  1.00  0.00    -0.189 A  
HETATM   38  C   UNL     3     -11.305   8.606  71.002  1.00  0.00    -0.274 A  
HETATM   39  C   UNL     3     -13.534   9.460  72.425  1.00  0.00    -0.506 A  
ENDBRANCH  32  33
ENDBRANCH  19  32
TORSDOF 4
ENDMDL
MODEL       93
REMARK 921   NORMALIZED FREE ENERGY PREDICTED BY IDOCK:   -5.63 KCAL/MOL
REMARK 922        TOTAL FREE ENERGY PREDICTED BY IDOCK:   -7.60 KCAL/MOL
REMARK 923 INTER-LIGAND FREE ENERGY PREDICTED BY IDOCK:   -6.56 KCAL/MOL
REMARK 924 INTRA-LIGAND FREE ENERGY PREDICTED BY IDOCK:   -1.04 KCAL/MOL
REMARK 927      BINDING AFFINITY PREDICTED BY RF-SCORE:    0.00 PKD
ROOT
HETATM    1  O   UNL     1      -8.613   7.486  67.861  1.00  0.00    -0.122 OA 
HETATM    2  S   UNL     1      -9.505   8.669  67.230  1.00  0.00    -0.165 S  
HETATM    3  N   UNL     2      -6.863   7.298  71.191  1.00  0.00    -0.054 NA 
HETATM    4  H1  UNL     2      -7.470   6.597  70.766  1.00  0.00     0.000 HD 
HETATM    5  H2  UNL     2      -5.846   7.215  71.163  1.00  0.00     0.000 HD 
HETATM    6  C   UNL     2      -7.470   8.336  71.789  1.00  0.00    -0.096 C  
HETATM    7  N   UNL     3      -6.460   9.172  68.788  1.00  0.00    -0.048 NA 
HETATM    8  O   UNL     1      -8.404   9.426  66.343  1.00  0.00    -0.113 OA 
HETATM    9  O   UNL     1     -10.491   8.065  66.366  1.00  0.00    -0.137 OA 
HETATM   10  O   UNL     1      -9.861   9.545  68.312  1.00  0.00    -0.148 OA 
HETATM   11  C   UNL     3      -6.757  10.477  68.977  1.00  0.00    -0.063 C  
HETATM   12  H1  UNL     3      -6.132   8.796  67.898  1.00  0.00     0.000 HD 
HETATM   13  H2  UNL     3      -6.571   8.532  69.574  1.00  0.00     0.000 HD 
HETATM   14  N   UNL     2      -8.778   8.534  71.593  1.00  0.00    -0.182 NA 
HETATM   15  N   UNL     2      -6.705   9.219  72.324  1.00  0.00    -0.287 NA 
HETATM   16  H2  UNL     2      -5.689   9.136  72.296  1.00  0.00     0.000 HD 
HETATM   17  H   UNL     2      -9.133   9.438  71.905  1.00  0.00     0.000 HD 
HETATM   18  N   UNL     3      -7.168  10.950  70.092  1.00  0.00    -0.454 NA 
HETATM   19  N   UNL     3      -6.665  11.229  67.857  1.00  0.00    -0.062 NA 
HETATM   20  H2  UNL     3      -7.278  10.310  70.878  1.00  0.00     0.000 HD 
HETATM   21  H1  UNL     2      -7.166  10.008  72.779  1.00  0.00     0.000 HD 
HETATM   22  H1  UNL     3      -7.393  11.935  70.235  1.00  0.00     0.000 HD 
HETATM   23  H   UNL     3      -6.746  10.824  66.924  1.00  0.00     0.000 HD 
ENDROOT
BRANCH  14  24
HETATM   24  C   UNL     2      -9.769   7.653  71.002  1.00  0.00    -0.163 C  
BRANCH  24  25
HETATM   25  C   UNL     2     -11.167   8.204  71.225  1.00  0.00    -0.297 A  
HETATM   26  I   UNL     2     -13.012  12.126  71.701  1.00  0.00     0.061 I  
HETATM   27  C   UNL     2     -12.269   7.339  71.346  1.00  0.00    -0.384 A  
HETATM   28  C   UNL     2     -11.391   9.591  71.310  1.00  0.00    -0.446 A  
HETATM   29  C   UNL     2     -13.543   7.831  71.614  1.00  0.00    -0.416 A  
HETATM   30  C   UNL     2     -12.677  10.078  71.555  1.00  0.00    -0.429 A  
HETATM   31  C   UNL     2     -13.752   9.202  71.719  1.00  0.00    -0.465 A  
ENDBRANCH  24  25
ENDBRANCH  14  24
BRANCH  19  32
HETATM   32  C   UNL     3      -6.444  12.653  68.066  1.00  0.00    -0.093 C  
BRANCH  32  33
HETATM   33  C   UNL     3      -7.604  13.492  67.614  1.00  0.00    -0.181 A  
HETATM   34  C   UNL     3      -9.653  14.961  66.368  1.00  0.00    -0.317 A  
HETATM   35  C   UNL     3      -8.784  12.865  67.215  1.00  0.00    -0.204 A  
HETATM   36  I   UNL     3     -11.453  12.583  65.844  1.00  0.00    -0.463 I  
HETATM   37  C   UNL     3      -8.510  15.615  66.824  1.00  0.00    -0.307 A  
HETATM   38  C   UNL     3      -9.789  13.590  66.574  1.00  0.00    -0.291 A  
HETATM   39  C   UNL     3      -7.487  14.886  67.436  1.00  0.00    -0.228 A  
ENDBRANCH  32  33
ENDBRANCH  19  32
TORSDOF 4
ENDMDL
MODEL       94
REMARK 921   NORMALIZED FREE ENERGY PREDICTED BY IDOCK:   -5.62 KCAL/MOL
REMARK 922        TOTAL FREE ENERGY PREDICTED BY IDOCK:   -7.59 KCAL/MOL
REMARK 923 INTER-LIGAND FREE ENERGY PREDICTED BY IDOCK:   -6.65 KCAL/MOL
REMARK 924 INTRA-LIGAND FREE ENERGY PREDICTED BY IDOCK:   -0.93 KCAL/MOL
REMARK 927      BINDING AFFINITY PREDICTED BY RF-SCORE:    0.00 PKD
ROOT
HETATM    1  O   UNL     1     -11.878  14.788  66.166  1.00  0.00    -0.311 OA 
HETATM    2  S   UNL     1     -10.627  13.918  65.645  1.00  0.00    -0.313 S  
HETATM    3  N   UNL     2     -12.867  15.725  69.677  1.00  0.00    -0.476 NA 
HETATM    4  H1  UNL     2     -12.795  16.339  68.866  1.00  0.00     0.000 HD 
HETATM    5  H2  UNL     2     -13.767  15.371  70.003  1.00  0.00     0.000 HD 
HETATM    6  C   UNL     2     -11.719  15.407  70.296  1.00  0.00    -0.327 C  
HETATM    7  N   UNL     3     -12.650  12.991  68.290  1.00  0.00     0.398 NA 
HETATM    8  O   UNL     1     -11.311  12.475  65.504  1.00  0.00    -0.305 OA 
HETATM    9  O   UNL     1     -10.262  14.411  64.337  1.00  0.00    -0.175 OA 
HETATM   10  O   UNL     1      -9.689  13.845  66.731  1.00  0.00    -0.261 OA 
HETATM   11  C   UNL     3     -11.693  12.152  68.745  1.00  0.00    -0.321 C  
HETATM   12  H1  UNL     3     -13.273  12.762  67.515  1.00  0.00     0.000 HD 
HETATM   13  H2  UNL     3     -12.753  13.899  68.743  1.00  0.00     0.000 HD 
HETATM   14  N   UNL     2     -10.554  15.687  69.700  1.00  0.00    -0.260 NA 
HETATM   15  N   UNL     2     -11.810  14.634  71.317  1.00  0.00    -0.406 NA 
HETATM   16  H2  UNL     2     -12.710  14.280  71.643  1.00  0.00     0.000 HD 
HETATM   17  H   UNL     2      -9.735  15.246  70.120  1.00  0.00     0.000 HD 
HETATM   18  N   UNL     3     -10.911  12.438  69.716  1.00  0.00    -0.422 NA 
HETATM   19  N   UNL     3     -11.574  11.013  68.026  1.00  0.00    -0.522 NA 
HETATM   20  H2  UNL     3     -11.015  13.345  70.170  1.00  0.00     0.000 HD 
HETATM   21  H1  UNL     2     -10.937  14.392  71.788  1.00  0.00     0.000 HD 
HETATM   22  H1  UNL     3     -10.189  11.805  70.060  1.00  0.00     0.000 HD 
HETATM   23  H   UNL     3     -11.877  10.952  67.053  1.00  0.00     0.000 HD 
ENDROOT
BRANCH  14  24
HETATM   24  C   UNL     2     -10.281  16.524  68.546  1.00  0.00    -0.266 C  
BRANCH  24  25
HETATM   25  C   UNL     2      -8.814  16.916  68.512  1.00  0.00    -0.251 A  
HETATM   26  I   UNL     2      -6.484  20.472  67.540  1.00  0.00    -0.391 I  
HETATM   27  C   UNL     2      -7.814  15.985  68.844  1.00  0.00    -0.202 A  
HETATM   28  C   UNL     2      -8.424  18.221  68.153  1.00  0.00    -0.290 A  
HETATM   29  C   UNL     2      -6.465  16.317  68.754  1.00  0.00    -0.128 A  
HETATM   30  C   UNL     2      -7.068  18.552  68.089  1.00  0.00    -0.249 A  
HETATM   31  C   UNL     2      -6.088  17.601  68.376  1.00  0.00    -0.175 A  
ENDBRANCH  24  25
ENDBRANCH  14  24
BRANCH  19  32
HETATM   32  C   UNL     3     -10.987   9.879  68.726  1.00  0.00    -0.179 C  
BRANCH  32  33
HETATM   33  C   UNL     3      -9.553   9.645  68.348  1.00  0.00    -0.154 A  
HETATM   34  C   UNL     3      -6.828   9.634  67.654  1.00  0.00    -0.082 A  
HETATM   35  C   UNL     3      -8.570   9.690  69.335  1.00  0.00    -0.160 A  
HETATM   36  I   UNL     3      -5.796   9.953  70.484  1.00  0.00    -0.097 I  
HETATM   37  C   UNL     3      -7.796   9.518  66.659  1.00  0.00    -0.101 A  
HETATM   38  C   UNL     3      -7.219   9.711  68.989  1.00  0.00    -0.071 A  
HETATM   39  C   UNL     3      -9.152   9.530  67.000  1.00  0.00    -0.154 A  
ENDBRANCH  32  33
ENDBRANCH  19  32
TORSDOF 4
ENDMDL
MODEL       95
REMARK 921   NORMALIZED FREE ENERGY PREDICTED BY IDOCK:   -5.62 KCAL/MOL
REMARK 922        TOTAL FREE ENERGY PREDICTED BY IDOCK:   -7.58 KCAL/MOL
REMARK 923 INTER-LIGAND FREE ENERGY PREDICTED BY IDOCK:   -6.98 KCAL/MOL
REMARK 924 INTRA-LIGAND FREE ENERGY PREDICTED BY IDOCK:   -0.60 KCAL/MOL
REMARK 927      BINDING AFFINITY PREDICTED BY RF-SCORE:    0.00 PKD
ROOT
HETATM    1  O   UNL     1      -6.787  10.474  68.137  1.00  0.00    -0.070 OA 
HETATM    2  S   UNL     1      -7.611  10.185  69.490  1.00  0.00    -0.154 S  
HETATM    3  N   UNL     2      -7.998  10.708  64.579  1.00  0.00    -0.356 NA 
HETATM    4  H1  UNL     2      -7.389  11.361  65.074  1.00  0.00     0.000 HD 
HETATM    5  H2  UNL     2      -7.626  10.016  63.928  1.00  0.00     0.000 HD 
HETATM    6  C   UNL     2      -9.314  10.807  64.826  1.00  0.00    -0.226 C  
HETATM    7  N   UNL     3      -7.998   8.370  66.574  1.00  0.00    -0.095 NA 
HETATM    8  O   UNL     1      -7.388   8.604  69.638  1.00  0.00    -0.054 OA 
HETATM    9  O   UNL     1      -6.941  10.872  70.569  1.00  0.00    -0.167 OA 
HETATM   10  O   UNL     1      -8.999  10.397  69.185  1.00  0.00    -0.169 OA 
HETATM   11  C   UNL     3      -9.204   7.928  66.993  1.00  0.00    -0.148 C  
HETATM   12  H1  UNL     3      -7.114   7.978  66.898  1.00  0.00     0.000 HD 
HETATM   13  H2  UNL     3      -7.971   9.135  65.900  1.00  0.00     0.000 HD 
HETATM   14  N   UNL     2      -9.734  11.551  65.856  1.00  0.00    -0.225 NA 
HETATM   15  N   UNL     2     -10.081   9.986  64.203  1.00  0.00    -0.447 NA 
HETATM   16  H2  UNL     2      -9.709   9.294  63.553  1.00  0.00     0.000 HD 
HETATM   17  H   UNL     2     -10.714  11.426  66.111  1.00  0.00     0.000 HD 
HETATM   18  N   UNL     3     -10.313   8.419  66.588  1.00  0.00    -0.358 NA 
HETATM   19  N   UNL     3      -9.137   6.975  67.950  1.00  0.00    -0.128 NA 
HETATM   20  H2  UNL     3     -10.286   9.183  65.913  1.00  0.00     0.000 HD 
HETATM   21  H1  UNL     2     -11.081  10.061  64.391  1.00  0.00     0.000 HD 
HETATM   22  H1  UNL     3     -11.224   8.085  66.904  1.00  0.00     0.000 HD 
HETATM   23  H   UNL     3      -8.324   6.873  68.558  1.00  0.00     0.000 HD 
ENDROOT
BRANCH  14  24
HETATM   24  C   UNL     2      -9.003  12.510  66.664  1.00  0.00    -0.174 C  
BRANCH  24  25
HETATM   25  C   UNL     2      -9.423  13.927  66.313  1.00  0.00    -0.235 A  
HETATM   26  I   UNL     2      -8.361  17.970  67.557  1.00  0.00    -0.256 I  
HETATM   27  C   UNL     2     -10.424  14.163  65.354  1.00  0.00    -0.372 A  
HETATM   28  C   UNL     2      -8.815  15.035  66.935  1.00  0.00    -0.285 A  
HETATM   29  C   UNL     2     -10.859  15.455  65.072  1.00  0.00    -0.462 A  
HETATM   30  C   UNL     2      -9.241  16.329  66.628  1.00  0.00    -0.244 A  
HETATM   31  C   UNL     2     -10.269  16.542  65.707  1.00  0.00    -0.350 A  
ENDBRANCH  24  25
ENDBRANCH  14  24
BRANCH  19  32
HETATM   32  C   UNL     3     -10.299   6.102  68.059  1.00  0.00    -0.199 C  
BRANCH  32  33
HETATM   33  C   UNL     3     -10.168   5.100  69.170  1.00  0.00    -0.259 A  
HETATM   34  C   UNL     3      -9.552   3.422  71.341  1.00  0.00    -0.236 A  
HETATM   35  C   UNL     3     -10.490   5.480  70.472  1.00  0.00    -0.347 A  
HETATM   36  I   UNL     3     -10.503   5.341  73.483  1.00  0.00    -0.364 I  
HETATM   37  C   UNL     3      -9.288   2.998  70.041  1.00  0.00    -0.223 A  
HETATM   38  C   UNL     3     -10.161   4.659  71.550  1.00  0.00    -0.185 A  
HETATM   39  C   UNL     3      -9.585   3.833  68.960  1.00  0.00    -0.190 A  
ENDBRANCH  32  33
ENDBRANCH  19  32
TORSDOF 4
ENDMDL
MODEL       96
REMARK 921   NORMALIZED FREE ENERGY PREDICTED BY IDOCK:   -5.61 KCAL/MOL
REMARK 922        TOTAL FREE ENERGY PREDICTED BY IDOCK:   -7.58 KCAL/MOL
REMARK 923 INTER-LIGAND FREE ENERGY PREDICTED BY IDOCK:   -6.77 KCAL/MOL
REMARK 924 INTRA-LIGAND FREE ENERGY PREDICTED BY IDOCK:   -0.81 KCAL/MOL
REMARK 927      BINDING AFFINITY PREDICTED BY RF-SCORE:    0.00 PKD
ROOT
HETATM    1  O   UNL     1     -11.917  11.081  68.254  1.00  0.00    -0.593 OA 
HETATM    2  S   UNL     1     -11.512  12.338  69.175  1.00  0.00    -0.305 S  
HETATM    3  N   UNL     2     -10.234   9.703  65.179  1.00  0.00    -0.203 NA 
HETATM    4  H1  UNL     2     -10.550   9.186  66.001  1.00  0.00     0.000 HD 
HETATM    5  H2  UNL     2     -10.779   9.725  64.317  1.00  0.00     0.000 HD 
HETATM    6  C   UNL     2      -9.063  10.351  65.290  1.00  0.00    -0.193 C  
HETATM    7  N   UNL     3     -11.566  12.419  65.720  1.00  0.00    -0.380 NA 
HETATM    8  O   UNL     1     -12.438  13.480  68.537  1.00  0.00    -0.068 OA 
HETATM    9  O   UNL     1     -11.949  12.056  70.522  1.00  0.00    -0.351 OA 
HETATM   10  O   UNL     1     -10.148  12.664  68.860  1.00  0.00    -0.093 OA 
HETATM   11  C   UNL     3     -10.760  13.504  65.719  1.00  0.00    -0.275 C  
HETATM   12  H1  UNL     3     -12.569  12.467  65.904  1.00  0.00     0.000 HD 
HETATM   13  H2  UNL     3     -11.151  11.508  65.528  1.00  0.00     0.000 HD 
HETATM   14  N   UNL     2      -8.507  10.500  66.497  1.00  0.00    -0.136 NA 
HETATM   15  N   UNL     2      -8.665  11.002  64.256  1.00  0.00    -0.374 NA 
HETATM   16  H2  UNL     2      -9.211  11.024  63.394  1.00  0.00     0.000 HD 
HETATM   17  H   UNL     2      -7.735  11.165  66.541  1.00  0.00     0.000 HD 
HETATM   18  N   UNL     3      -9.503  13.445  65.489  1.00  0.00    -0.485 NA 
HETATM   19  N   UNL     3     -11.383  14.651  66.071  1.00  0.00    -0.343 NA 
HETATM   20  H2  UNL     3      -9.088  12.534  65.296  1.00  0.00     0.000 HD 
HETATM   21  H1  UNL     2      -7.776  11.494  64.339  1.00  0.00     0.000 HD 
HETATM   22  H1  UNL     3      -8.894  14.264  65.489  1.00  0.00     0.000 HD 
HETATM   23  H   UNL     3     -12.233  14.656  66.635  1.00  0.00     0.000 HD 
ENDROOT
BRANCH  14  24
HETATM   24  C   UNL     2      -8.838   9.855  67.755  1.00  0.00    -0.129 C  
BRANCH  24  25
HETATM   25  C   UNL     2      -7.585   9.645  68.588  1.00  0.00    -0.080 A  
HETATM   26  I   UNL     2      -5.135  12.003  71.318  1.00  0.00     0.049 I  
HETATM   27  C   UNL     2      -6.909   8.412  68.568  1.00  0.00    -0.064 A  
HETATM   28  C   UNL     2      -7.077  10.676  69.401  1.00  0.00    -0.120 A  
HETATM   29  C   UNL     2      -5.725   8.230  69.278  1.00  0.00    -0.031 A  
HETATM   30  C   UNL     2      -5.902  10.477  70.129  1.00  0.00    -0.080 A  
HETATM   31  C   UNL     2      -5.218   9.262  70.061  1.00  0.00    -0.028 A  
ENDBRANCH  24  25
ENDBRANCH  14  24
BRANCH  19  32
HETATM   32  C   UNL     3     -10.764  15.881  65.593  1.00  0.00    -0.339 C  
BRANCH  32  33
HETATM   33  C   UNL     3     -10.497  16.861  66.699  1.00  0.00    -0.257 A  
HETATM   34  C   UNL     3      -9.627  18.486  68.822  1.00  0.00    -0.365 A  
HETATM   35  C   UNL     3      -9.647  17.941  66.463  1.00  0.00    -0.318 A  
HETATM   36  I   UNL     3      -7.797  20.220  67.143  1.00  0.00    -0.329 I  
HETATM   37  C   UNL     3     -10.531  17.455  69.065  1.00  0.00    -0.285 A  
HETATM   38  C   UNL     3      -9.196  18.731  67.520  1.00  0.00    -0.283 A  
HETATM   39  C   UNL     3     -10.959  16.640  68.013  1.00  0.00    -0.311 A  
ENDBRANCH  32  33
ENDBRANCH  19  32
TORSDOF 4
ENDMDL
MODEL       97
REMARK 921   NORMALIZED FREE ENERGY PREDICTED BY IDOCK:   -5.61 KCAL/MOL
REMARK 922        TOTAL FREE ENERGY PREDICTED BY IDOCK:   -7.57 KCAL/MOL
REMARK 923 INTER-LIGAND FREE ENERGY PREDICTED BY IDOCK:   -6.93 KCAL/MOL
REMARK 924 INTRA-LIGAND FREE ENERGY PREDICTED BY IDOCK:   -0.64 KCAL/MOL
REMARK 927      BINDING AFFINITY PREDICTED BY RF-SCORE:    0.00 PKD
ROOT
HETATM    1  O   UNL     1      -8.768   8.409  72.886  1.00  0.00    -0.245 OA 
HETATM    2  S   UNL     1      -7.715   8.408  71.668  1.00  0.00    -0.118 S  
HETATM    3  N   UNL     2     -12.466   7.694  72.877  1.00  0.00    -0.306 NA 
HETATM    4  H1  UNL     2     -11.759   7.311  73.505  1.00  0.00     0.000 HD 
HETATM    5  H2  UNL     2     -13.075   8.462  73.160  1.00  0.00     0.000 HD 
HETATM    6  C   UNL     2     -12.554   7.136  71.659  1.00  0.00    -0.375 C  
HETATM    7  N   UNL     3     -10.823   9.913  71.526  1.00  0.00    -0.057 NA 
HETATM    8  O   UNL     1      -7.699   9.966  71.292  1.00  0.00    -0.040 OA 
HETATM    9  O   UNL     1      -6.428   8.024  72.198  1.00  0.00    -0.049 OA 
HETATM   10  O   UNL     1      -8.339   7.709  70.578  1.00  0.00    -0.122 OA 
HETATM   11  C   UNL     3     -10.782   9.903  70.175  1.00  0.00    -0.308 C  
HETATM   12  H1  UNL     3     -10.331  10.601  72.096  1.00  0.00     0.000 HD 
HETATM   13  H2  UNL     3     -11.374   9.196  71.998  1.00  0.00     0.000 HD 
HETATM   14  N   UNL     2     -11.587   6.309  71.244  1.00  0.00    -0.301 NA 
HETATM   15  N   UNL     2     -13.444   7.618  70.868  1.00  0.00    -0.556 NA 
HETATM   16  H2  UNL     2     -14.053   8.386  71.151  1.00  0.00     0.000 HD 
HETATM   17  H   UNL     2     -11.608   6.081  70.250  1.00  0.00     0.000 HD 
HETATM   18  N   UNL     3     -11.398   9.041  69.459  1.00  0.00    -0.432 NA 
HETATM   19  N   UNL     3      -9.957  10.834  69.645  1.00  0.00    -0.442 NA 
HETATM   20  H2  UNL     3     -11.950   8.325  69.931  1.00  0.00     0.000 HD 
HETATM   21  H1  UNL     2     -13.512   7.194  69.942  1.00  0.00     0.000 HD 
HETATM   22  H1  UNL     3     -11.367   9.033  68.440  1.00  0.00     0.000 HD 
HETATM   23  H   UNL     3      -9.177  11.230  70.169  1.00  0.00     0.000 HD 
ENDROOT
BRANCH  14  24
HETATM   24  C   UNL     2     -10.513   5.689  71.997  1.00  0.00    -0.219 C  
BRANCH  24  25
HETATM   25  C   UNL     2      -9.722   4.744  71.110  1.00  0.00    -0.249 A  
HETATM   26  I   UNL     2      -6.549   1.795  71.620  1.00  0.00    -0.019 I  
HETATM   27  C   UNL     2      -9.949   4.701  69.724  1.00  0.00    -0.295 A  
HETATM   28  C   UNL     2      -8.748   3.886  71.657  1.00  0.00    -0.129 A  
HETATM   29  C   UNL     2      -9.186   3.884  68.895  1.00  0.00    -0.215 A  
HETATM   30  C   UNL     2      -8.003   3.051  70.821  1.00  0.00    -0.046 A  
HETATM   31  C   UNL     2      -8.210   3.056  69.441  1.00  0.00    -0.075 A  
ENDBRANCH  24  25
ENDBRANCH  14  24
BRANCH  19  32
HETATM   32  C   UNL     3     -10.252  11.236  68.275  1.00  0.00    -0.186 C  
BRANCH  32  33
HETATM   33  C   UNL     3     -10.883  12.596  68.195  1.00  0.00    -0.250 A  
HETATM   34  C   UNL     3     -11.682  15.292  68.170  1.00  0.00    -0.297 A  
HETATM   35  C   UNL     3     -10.638  13.397  67.081  1.00  0.00    -0.259 A  
HETATM   36  I   UNL     3     -10.472  15.938  65.469  1.00  0.00    -0.286 I  
HETATM   37  C   UNL     3     -11.997  14.486  69.262  1.00  0.00    -0.355 A  
HETATM   38  C   UNL     3     -11.011  14.741  67.080  1.00  0.00    -0.324 A  
HETATM   39  C   UNL     3     -11.594  13.148  69.281  1.00  0.00    -0.370 A  
ENDBRANCH  32  33
ENDBRANCH  19  32
TORSDOF 4
ENDMDL
MODEL       98
REMARK 921   NORMALIZED FREE ENERGY PREDICTED BY IDOCK:   -5.61 KCAL/MOL
REMARK 922        TOTAL FREE ENERGY PREDICTED BY IDOCK:   -7.57 KCAL/MOL
REMARK 923 INTER-LIGAND FREE ENERGY PREDICTED BY IDOCK:   -6.81 KCAL/MOL
REMARK 924 INTRA-LIGAND FREE ENERGY PREDICTED BY IDOCK:   -0.76 KCAL/MOL
REMARK 927      BINDING AFFINITY PREDICTED BY RF-SCORE:    0.00 PKD
ROOT
HETATM    1  O   UNL     1     -11.330   9.824  71.294  1.00  0.00    -0.361 OA 
HETATM    2  S   UNL     1     -11.939   8.346  71.481  1.00  0.00    -0.313 S  
HETATM    3  N   UNL     2      -8.249  10.946  69.442  1.00  0.00    -0.376 NA 
HETATM    4  H1  UNL     2      -9.188  11.340  69.384  1.00  0.00     0.000 HD 
HETATM    5  H2  UNL     2      -7.518  11.383  70.004  1.00  0.00     0.000 HD 
HETATM    6  C   UNL     2      -8.022   9.823  68.742  1.00  0.00    -0.087 C  
HETATM    7  N   UNL     3      -8.595   9.117  71.888  1.00  0.00    -0.276 NA 
HETATM    8  O   UNL     1     -11.319   7.950  72.906  1.00  0.00    -0.406 OA 
HETATM    9  O   UNL     1     -13.373   8.471  71.596  1.00  0.00    -0.337 OA 
HETATM   10  O   UNL     1     -11.315   7.509  70.494  1.00  0.00    -0.275 OA 
HETATM   11  C   UNL     3      -8.261   7.817  71.728  1.00  0.00    -0.111 C  
HETATM   12  H1  UNL     3      -8.961   9.498  72.761  1.00  0.00     0.000 HD 
HETATM   13  H2  UNL     3      -8.475   9.748  71.096  1.00  0.00     0.000 HD 
HETATM   14  N   UNL     2      -9.057   9.153  68.223  1.00  0.00    -0.133 NA 
HETATM   15  N   UNL     2      -6.839   9.327  68.815  1.00  0.00    -0.060 NA 
HETATM   16  H2  UNL     2      -6.108   9.765  69.377  1.00  0.00     0.000 HD 
HETATM   17  H   UNL     2      -8.841   8.216  67.881  1.00  0.00     0.000 HD 
HETATM   18  N   UNL     3      -7.802   7.338  70.635  1.00  0.00    -0.093 NA 
HETATM   19  N   UNL     3      -8.539   7.043  72.802  1.00  0.00    -0.115 NA 
HETATM   20  H2  UNL     3      -7.681   7.969  69.843  1.00  0.00     0.000 HD 
HETATM   21  H1  UNL     2      -6.666   8.474  68.283  1.00  0.00     0.000 HD 
HETATM   22  H1  UNL     3      -7.551   6.357  70.514  1.00  0.00     0.000 HD 
HETATM   23  H   UNL     3      -9.250   7.300  73.486  1.00  0.00     0.000 HD 
ENDROOT
BRANCH  14  24
HETATM   24  C   UNL     2     -10.442   9.560  68.074  1.00  0.00    -0.230 C  
BRANCH  24  25
HETATM   25  C   UNL     2     -10.604  10.447  66.852  1.00  0.00    -0.293 A  
HETATM   26  I   UNL     2      -9.120  10.533  62.752  1.00  0.00    -0.406 I  
HETATM   27  C   UNL     2     -11.409  11.599  66.902  1.00  0.00    -0.364 A  
HETATM   28  C   UNL     2      -9.958  10.133  65.640  1.00  0.00    -0.348 A  
HETATM   29  C   UNL     2     -11.513  12.452  65.807  1.00  0.00    -0.416 A  
HETATM   30  C   UNL     2     -10.087  10.982  64.539  1.00  0.00    -0.321 A  
HETATM   31  C   UNL     2     -10.853  12.146  64.622  1.00  0.00    -0.351 A  
ENDBRANCH  24  25
ENDBRANCH  14  24
BRANCH  19  32
HETATM   32  C   UNL     3      -7.757   5.819  72.920  1.00  0.00    -0.097 C  
BRANCH  32  33
HETATM   33  C   UNL     3      -8.607   4.582  72.858  1.00  0.00    -0.109 A  
HETATM   34  C   UNL     3     -10.438   2.486  72.461  1.00  0.00    -0.168 A  
HETATM   35  C   UNL     3      -8.458   3.705  71.785  1.00  0.00    -0.100 A  
HETATM   36  I   UNL     3      -9.217   1.507  69.868  1.00  0.00    -0.108 I  
HETATM   37  C   UNL     3     -10.561   3.310  73.577  1.00  0.00    -0.286 A  
HETATM   38  C   UNL     3      -9.381   2.682  71.574  1.00  0.00    -0.129 A  
HETATM   39  C   UNL     3      -9.657   4.358  73.773  1.00  0.00    -0.141 A  
ENDBRANCH  32  33
ENDBRANCH  19  32
TORSDOF 4
ENDMDL
MODEL       99
REMARK 921   NORMALIZED FREE ENERGY PREDICTED BY IDOCK:   -5.60 KCAL/MOL
REMARK 922        TOTAL FREE ENERGY PREDICTED BY IDOCK:   -7.56 KCAL/MOL
REMARK 923 INTER-LIGAND FREE ENERGY PREDICTED BY IDOCK:   -7.01 KCAL/MOL
REMARK 924 INTRA-LIGAND FREE ENERGY PREDICTED BY IDOCK:   -0.55 KCAL/MOL
REMARK 927      BINDING AFFINITY PREDICTED BY RF-SCORE:    0.00 PKD
ROOT
HETATM    1  O   UNL     1      -6.889  10.765  67.704  1.00  0.00    -0.071 OA 
HETATM    2  S   UNL     1      -7.978  11.516  68.623  1.00  0.00    -0.109 S  
HETATM    3  N   UNL     2      -7.318   7.865  65.340  1.00  0.00    -0.074 NA 
HETATM    4  H1  UNL     2      -6.841   8.749  65.161  1.00  0.00     0.000 HD 
HETATM    5  H2  UNL     2      -6.803   7.014  65.570  1.00  0.00     0.000 HD 
HETATM    6  C   UNL     2      -8.658   7.877  65.256  1.00  0.00    -0.060 C  
HETATM    7  N   UNL     3      -7.701   8.079  68.382  1.00  0.00    -0.114 NA 
HETATM    8  O   UNL     1      -7.763  10.751  70.016  1.00  0.00     0.025 OA 
HETATM    9  O   UNL     1      -7.566  12.893  68.758  1.00  0.00    -0.107 OA 
HETATM   10  O   UNL     1      -9.273  11.143  68.124  1.00  0.00    -0.153 OA 
HETATM   11  C   UNL     3      -8.961   7.930  68.849  1.00  0.00    -0.141 C  
HETATM   12  H1  UNL     3      -6.899   8.269  68.984  1.00  0.00     0.000 HD 
HETATM   13  H2  UNL     3      -7.544   7.997  67.378  1.00  0.00     0.000 HD 
HETATM   14  N   UNL     2      -9.302   9.048  65.197  1.00  0.00    -0.448 NA 
HETATM   15  N   UNL     2      -9.259   6.764  65.482  1.00  0.00    -0.360 NA 
HETATM   16  H2  UNL     2      -8.744   5.914  65.712  1.00  0.00     0.000 HD 
HETATM   17  H   UNL     2     -10.311   8.997  65.337  1.00  0.00     0.000 HD 
HETATM   18  N   UNL     3      -9.966   7.692  68.096  1.00  0.00    -0.169 NA 
HETATM   19  N   UNL     3      -9.081   8.144  70.179  1.00  0.00    -0.147 NA 
HETATM   20  H2  UNL     3      -9.810   7.610  67.091  1.00  0.00     0.000 HD 
HETATM   21  H1  UNL     2     -10.277   6.773  65.418  1.00  0.00     0.000 HD 
HETATM   22  H1  UNL     3     -10.917   7.581  68.448  1.00  0.00     0.000 HD 
HETATM   23  H   UNL     3      -8.415   8.715  70.699  1.00  0.00     0.000 HD 
ENDROOT
BRANCH  14  24
HETATM   24  C   UNL     2      -8.777  10.381  64.962  1.00  0.00    -0.182 C  
BRANCH  24  25
HETATM   25  C   UNL     2      -9.909  11.350  64.666  1.00  0.00    -0.302 A  
HETATM   26  I   UNL     2     -11.833  14.716  66.665  1.00  0.00    -0.052 I  
HETATM   27  C   UNL     2     -10.640  11.256  63.469  1.00  0.00    -0.436 A  
HETATM   28  C   UNL     2     -10.247  12.367  65.580  1.00  0.00    -0.285 A  
HETATM   29  C   UNL     2     -11.719  12.099  63.217  1.00  0.00    -0.441 A  
HETATM   30  C   UNL     2     -11.316  13.224  65.309  1.00  0.00    -0.295 A  
HETATM   31  C   UNL     2     -12.060  13.086  64.137  1.00  0.00    -0.497 A  
ENDBRANCH  24  25
ENDBRANCH  14  24
BRANCH  19  32
HETATM   32  C   UNL     3     -10.223   7.507  70.822  1.00  0.00    -0.194 C  
BRANCH  32  33
HETATM   33  C   UNL     3     -11.369   8.454  71.035  1.00  0.00    -0.303 A  
HETATM   34  C   UNL     3     -13.278  10.389  71.757  1.00  0.00    -0.529 A  
HETATM   35  C   UNL     3     -11.278   9.757  70.546  1.00  0.00    -0.381 A  
HETATM   36  I   UNL     3     -11.937  12.688  70.311  1.00  0.00     0.083 I  
HETATM   37  C   UNL     3     -13.422   9.075  72.197  1.00  0.00    -0.514 A  
HETATM   38  C   UNL     3     -12.210  10.722  70.925  1.00  0.00    -0.384 A  
HETATM   39  C   UNL     3     -12.471   8.113  71.847  1.00  0.00    -0.368 A  
ENDBRANCH  32  33
ENDBRANCH  19  32
TORSDOF 4
ENDMDL
MODEL      100
REMARK 921   NORMALIZED FREE ENERGY PREDICTED BY IDOCK:   -5.54 KCAL/MOL
REMARK 922        TOTAL FREE ENERGY PREDICTED BY IDOCK:   -7.48 KCAL/MOL
REMARK 923 INTER-LIGAND FREE ENERGY PREDICTED BY IDOCK:   -6.86 KCAL/MOL
REMARK 924 INTRA-LIGAND FREE ENERGY PREDICTED BY IDOCK:   -0.62 KCAL/MOL
REMARK 927      BINDING AFFINITY PREDICTED BY RF-SCORE:    0.00 PKD
ROOT
HETATM    1  O   UNL     1      -9.556   9.958  65.068  1.00  0.00    -0.271 OA 
HETATM    2  S   UNL     1      -8.046   9.496  65.385  1.00  0.00    -0.131 S  
HETATM    3  N   UNL     2     -12.034  11.767  67.251  1.00  0.00    -0.607 NA 
HETATM    4  H1  UNL     2     -11.779  11.984  66.287  1.00  0.00     0.000 HD 
HETATM    5  H2  UNL     2     -12.891  11.260  67.477  1.00  0.00     0.000 HD 
HETATM    6  C   UNL     2     -11.187  12.182  68.206  1.00  0.00    -0.268 C  
HETATM    7  N   UNL     3     -10.704   9.011  67.542  1.00  0.00    -0.438 NA 
HETATM    8  O   UNL     1      -8.292   7.975  65.831  1.00  0.00    -0.119 OA 
HETATM    9  O   UNL     1      -7.306   9.524  64.146  1.00  0.00    -0.106 OA 
HETATM   10  O   UNL     1      -7.625  10.222  66.551  1.00  0.00    -0.105 OA 
HETATM   11  C   UNL     3      -9.852   8.853  68.579  1.00  0.00    -0.167 C  
HETATM   12  H1  UNL     3     -10.903   8.276  66.863  1.00  0.00     0.000 HD 
HETATM   13  H2  UNL     3     -11.170   9.912  67.431  1.00  0.00     0.000 HD 
HETATM   14  N   UNL     2      -9.971  12.618  67.860  1.00  0.00    -0.221 NA 
HETATM   15  N   UNL     2     -11.509  11.908  69.419  1.00  0.00    -0.291 NA 
HETATM   16  H2  UNL     2     -12.365  11.402  69.646  1.00  0.00     0.000 HD 
HETATM   17  H   UNL     2      -9.312  12.726  68.632  1.00  0.00     0.000 HD 
HETATM   18  N   UNL     3      -9.601   9.774  69.429  1.00  0.00    -0.194 NA 
HETATM   19  N   UNL     3      -9.216   7.659  68.589  1.00  0.00    -0.142 NA 
HETATM   20  H2  UNL     3     -10.068  10.675  69.320  1.00  0.00     0.000 HD 
HETATM   21  H1  UNL     2     -10.865  12.224  70.146  1.00  0.00     0.000 HD 
HETATM   22  H1  UNL     3      -8.958   9.655  70.212  1.00  0.00     0.000 HD 
HETATM   23  H   UNL     3      -9.087   7.106  67.742  1.00  0.00     0.000 HD 
ENDROOT
BRANCH  14  24
HETATM   24  C   UNL     2      -9.448  12.961  66.550  1.00  0.00    -0.251 C  
BRANCH  24  25
HETATM   25  C   UNL     2      -9.695  14.429  66.249  1.00  0.00    -0.330 A  
HETATM   26  I   UNL     2      -8.761  18.266  68.100  1.00  0.00    -0.312 I  
HETATM   27  C   UNL     2     -10.419  14.816  65.108  1.00  0.00    -0.443 A  
HETATM   28  C   UNL     2      -9.201  15.434  67.103  1.00  0.00    -0.226 A  
HETATM   29  C   UNL     2     -10.704  16.155  64.858  1.00  0.00    -0.297 A  
HETATM   30  C   UNL     2      -9.472  16.777  66.832  1.00  0.00    -0.241 A  
HETATM   31  C   UNL     2     -10.232  17.140  65.719  1.00  0.00    -0.234 A  
ENDBRANCH  24  25
ENDBRANCH  14  24
BRANCH  19  32
HETATM   32  C   UNL     3      -8.728   7.213  69.887  1.00  0.00    -0.142 C  
BRANCH  32  33
HETATM   33  C   UNL     3      -9.055   5.774  70.165  1.00  0.00    -0.155 A  
HETATM   34  C   UNL     3      -9.329   3.089  70.952  1.00  0.00    -0.221 A  
HETATM   35  C   UNL     3      -9.745   5.445  71.331  1.00  0.00    -0.213 A  
HETATM   36  I   UNL     3     -10.745   3.684  73.563  1.00  0.00    -0.321 I  
HETATM   37  C   UNL     3      -8.698   3.397  69.749  1.00  0.00    -0.132 A  
HETATM   38  C   UNL     3      -9.858   4.115  71.734  1.00  0.00    -0.182 A  
HETATM   39  C   UNL     3      -8.553   4.731  69.359  1.00  0.00    -0.099 A  
ENDBRANCH  32  33
ENDBRANCH  19  32
TORSDOF 4
ENDMDL
MODEL      101
REMARK 921   NORMALIZED FREE ENERGY PREDICTED BY IDOCK:   -5.53 KCAL/MOL
REMARK 922        TOTAL FREE ENERGY PREDICTED BY IDOCK:   -7.47 KCAL/MOL
REMARK 923 INTER-LIGAND FREE ENERGY PREDICTED BY IDOCK:   -6.95 KCAL/MOL
REMARK 924 INTRA-LIGAND FREE ENERGY PREDICTED BY IDOCK:   -0.53 KCAL/MOL
REMARK 927      BINDING AFFINITY PREDICTED BY RF-SCORE:    0.00 PKD
ROOT
HETATM    1  O   UNL     1     -11.892   8.132  70.127  1.00  0.00     0.073 OA 
HETATM    2  S   UNL     1     -10.881   8.944  71.083  1.00  0.00    -0.311 S  
HETATM    3  N   UNL     2     -11.300   6.597  66.740  1.00  0.00    -0.795 NA 
HETATM    4  H1  UNL     2     -11.739   6.163  67.552  1.00  0.00     0.000 HD 
HETATM    5  H2  UNL     2     -11.852   6.976  65.970  1.00  0.00     0.000 HD 
HETATM    6  C   UNL     2      -9.958   6.646  66.735  1.00  0.00    -0.176 C  
HETATM    7  N   UNL     3     -11.206   9.519  67.690  1.00  0.00    -0.413 NA 
HETATM    8  O   UNL     1     -11.245  10.453  70.680  1.00  0.00    -0.319 OA 
HETATM    9  O   UNL     1     -11.275   8.699  72.450  1.00  0.00    -0.357 OA 
HETATM   10  O   UNL     1      -9.553   8.680  70.604  1.00  0.00    -0.168 OA 
HETATM   11  C   UNL     3     -10.001  10.130  67.664  1.00  0.00    -0.181 C  
HETATM   12  H1  UNL     3     -12.058   9.975  68.018  1.00  0.00     0.000 HD 
HETATM   13  H2  UNL     3     -11.267   8.554  67.365  1.00  0.00     0.000 HD 
HETATM   14  N   UNL     2      -9.287   6.367  67.859  1.00  0.00    -0.116 NA 
HETATM   15  N   UNL     2      -9.405   7.192  65.713  1.00  0.00    -0.383 NA 
HETATM   16  H2  UNL     2      -9.957   7.570  64.943  1.00  0.00     0.000 HD 
HETATM   17  H   UNL     2      -8.297   6.614  67.847  1.00  0.00     0.000 HD 
HETATM   18  N   UNL     3      -8.933   9.559  67.252  1.00  0.00    -0.130 NA 
HETATM   19  N   UNL     3     -10.004  11.373  68.195  1.00  0.00    -0.182 NA 
HETATM   20  H2  UNL     3      -8.993   8.594  66.927  1.00  0.00     0.000 HD 
HETATM   21  H1  UNL     2      -8.385   7.229  65.709  1.00  0.00     0.000 HD 
HETATM   22  H1  UNL     3      -8.023  10.019  67.233  1.00  0.00     0.000 HD 
HETATM   23  H   UNL     3     -10.705  11.671  68.874  1.00  0.00     0.000 HD 
ENDROOT
BRANCH  14  24
HETATM   24  C   UNL     2      -9.758   5.765  69.093  1.00  0.00    -0.147 C  
BRANCH  24  25
HETATM   25  C   UNL     2      -9.328   4.310  69.170  1.00  0.00    -0.229 A  
HETATM   26  I   UNL     2      -7.101   1.784  71.941  1.00  0.00    -0.032 I  
HETATM   27  C   UNL     2      -9.647   3.411  68.137  1.00  0.00    -0.158 A  
HETATM   28  C   UNL     2      -8.606   3.829  70.279  1.00  0.00    -0.103 A  
HETATM   29  C   UNL     2      -9.204   2.092  68.169  1.00  0.00    -0.241 A  
HETATM   30  C   UNL     2      -8.185   2.498  70.315  1.00  0.00    -0.041 A  
HETATM   31  C   UNL     2      -8.471   1.631  69.258  1.00  0.00    -0.079 A  
ENDBRANCH  24  25
ENDBRANCH  14  24
BRANCH  19  32
HETATM   32  C   UNL     3      -8.942  12.260  67.738  1.00  0.00    -0.177 C  
BRANCH  32  33
HETATM   33  C   UNL     3      -9.427  13.279  66.748  1.00  0.00    -0.257 A  
HETATM   34  C   UNL     3     -10.657  15.255  65.169  1.00  0.00    -0.453 A  
HETATM   35  C   UNL     3      -9.175  14.631  66.981  1.00  0.00    -0.252 A  
HETATM   36  I   UNL     3      -9.534  17.610  66.708  1.00  0.00    -0.317 I  
HETATM   37  C   UNL     3     -10.864  13.909  64.879  1.00  0.00    -0.413 A  
HETATM   38  C   UNL     3      -9.806  15.610  66.214  1.00  0.00    -0.295 A  
HETATM   39  C   UNL     3     -10.260  12.924  65.666  1.00  0.00    -0.295 A  
ENDBRANCH  32  33
ENDBRANCH  19  32
TORSDOF 4
ENDMDL
MODEL      102
REMARK 921   NORMALIZED FREE ENERGY PREDICTED BY IDOCK:   -5.50 KCAL/MOL
REMARK 922        TOTAL FREE ENERGY PREDICTED BY IDOCK:   -7.44 KCAL/MOL
REMARK 923 INTER-LIGAND FREE ENERGY PREDICTED BY IDOCK:   -6.66 KCAL/MOL
REMARK 924 INTRA-LIGAND FREE ENERGY PREDICTED BY IDOCK:   -0.77 KCAL/MOL
REMARK 927      BINDING AFFINITY PREDICTED BY RF-SCORE:    0.00 PKD
ROOT
HETATM    1  O   UNL     1      -7.636  10.390  65.595  1.00  0.00    -0.144 OA 
HETATM    2  S   UNL     1      -9.121  10.115  65.037  1.00  0.00    -0.227 S  
HETATM    3  N   UNL     2      -6.283  10.095  69.097  1.00  0.00    -0.040 NA 
HETATM    4  H1  UNL     2      -5.877   9.720  68.240  1.00  0.00     0.000 HD 
HETATM    5  H2  UNL     2      -5.938  10.956  69.522  1.00  0.00     0.000 HD 
HETATM    6  C   UNL     2      -7.294   9.398  69.640  1.00  0.00    -0.077 C  
HETATM    7  N   UNL     3      -8.444  11.925  67.902  1.00  0.00    -0.145 NA 
HETATM    8  O   UNL     1      -9.723  11.601  65.061  1.00  0.00    -0.238 OA 
HETATM    9  O   UNL     1      -9.001   9.662  63.670  1.00  0.00    -0.232 OA 
HETATM   10  O   UNL     1      -9.810   9.355  66.043  1.00  0.00    -0.269 OA 
HETATM   11  C   UNL     3      -9.710  11.736  68.337  1.00  0.00    -0.197 C  
HETATM   12  H1  UNL     3      -8.191  12.622  67.201  1.00  0.00     0.000 HD 
HETATM   13  H2  UNL     3      -7.706  11.341  68.295  1.00  0.00     0.000 HD 
HETATM   14  N   UNL     2      -7.874   8.423  68.930  1.00  0.00    -0.111 NA 
HETATM   15  N   UNL     2      -7.805   9.870  70.720  1.00  0.00    -0.399 NA 
HETATM   16  H2  UNL     2      -7.460  10.731  71.144  1.00  0.00     0.000 HD 
HETATM   17  H   UNL     2      -8.753   8.072  69.311  1.00  0.00     0.000 HD 
HETATM   18  N   UNL     3     -10.029  10.864  69.215  1.00  0.00    -0.384 NA 
HETATM   19  N   UNL     3     -10.629  12.494  67.696  1.00  0.00    -0.214 NA 
HETATM   20  H2  UNL     3      -9.291  10.280  69.608  1.00  0.00     0.000 HD 
HETATM   21  H1  UNL     2      -8.574   9.340  71.132  1.00  0.00     0.000 HD 
HETATM   22  H1  UNL     3     -10.984  10.721  69.544  1.00  0.00     0.000 HD 
HETATM   23  H   UNL     3     -10.468  12.865  66.759  1.00  0.00     0.000 HD 
ENDROOT
BRANCH  14  24
HETATM   24  C   UNL     2      -7.438   7.789  67.699  1.00  0.00    -0.104 C  
BRANCH  24  25
HETATM   25  C   UNL     2      -8.165   6.471  67.496  1.00  0.00    -0.121 A  
HETATM   26  I   UNL     2      -8.914   2.852  69.812  1.00  0.00    -0.202 I  
HETATM   27  C   UNL     2      -8.808   6.185  66.279  1.00  0.00    -0.150 A  
HETATM   28  C   UNL     2      -8.214   5.509  68.524  1.00  0.00    -0.098 A  
HETATM   29  C   UNL     2      -9.422   4.955  66.062  1.00  0.00    -0.169 A  
HETATM   30  C   UNL     2      -8.853   4.286  68.306  1.00  0.00    -0.107 A  
HETATM   31  C   UNL     2      -9.447   4.001  67.075  1.00  0.00    -0.223 A  
ENDBRANCH  24  25
ENDBRANCH  14  24
BRANCH  19  32
HETATM   32  C   UNL     3     -11.864  12.746  68.427  1.00  0.00    -0.310 C  
BRANCH  32  33
HETATM   33  C   UNL     3     -11.813  14.016  69.227  1.00  0.00    -0.389 A  
HETATM   34  C   UNL     3     -11.308  16.290  70.803  1.00  0.00    -0.327 A  
HETATM   35  C   UNL     3     -11.239  15.155  68.664  1.00  0.00    -0.295 A  
HETATM   36  I   UNL     3      -9.955  17.880  68.609  1.00  0.00    -0.304 I  
HETATM   37  C   UNL     3     -11.946  15.186  71.364  1.00  0.00    -0.408 A  
HETATM   38  C   UNL     3     -10.966  16.272  69.452  1.00  0.00    -0.337 A  
HETATM   39  C   UNL     3     -12.191  14.051  70.586  1.00  0.00    -0.442 A  
ENDBRANCH  32  33
ENDBRANCH  19  32
TORSDOF 4
ENDMDL
MODEL      103
REMARK 921   NORMALIZED FREE ENERGY PREDICTED BY IDOCK:   -5.49 KCAL/MOL
REMARK 922        TOTAL FREE ENERGY PREDICTED BY IDOCK:   -7.42 KCAL/MOL
REMARK 923 INTER-LIGAND FREE ENERGY PREDICTED BY IDOCK:   -6.68 KCAL/MOL
REMARK 924 INTRA-LIGAND FREE ENERGY PREDICTED BY IDOCK:   -0.74 KCAL/MOL
REMARK 927      BINDING AFFINITY PREDICTED BY RF-SCORE:    0.00 PKD
ROOT
HETATM    1  O   UNL     1     -10.731   9.454  71.775  1.00  0.00    -0.334 OA 
HETATM    2  S   UNL     1     -11.463   8.023  71.692  1.00  0.00    -0.281 S  
HETATM    3  N   UNL     2      -8.270  11.046  69.410  1.00  0.00    -0.381 NA 
HETATM    4  H1  UNL     2      -9.109  11.466  69.811  1.00  0.00     0.000 HD 
HETATM    5  H2  UNL     2      -7.341  11.239  69.786  1.00  0.00     0.000 HD 
HETATM    6  C   UNL     2      -8.449  10.227  68.361  1.00  0.00    -0.124 C  
HETATM    7  N   UNL     3      -8.087   8.497  71.118  1.00  0.00    -0.120 NA 
HETATM    8  O   UNL     1     -10.487   7.140  72.607  1.00  0.00    -0.208 OA 
HETATM    9  O   UNL     1     -12.749   8.147  72.335  1.00  0.00    -0.285 OA 
HETATM   10  O   UNL     1     -11.319   7.559  70.339  1.00  0.00    -0.275 OA 
HETATM   11  C   UNL     3      -8.021   7.322  70.453  1.00  0.00    -0.104 C  
HETATM   12  H1  UNL     3      -8.095   8.565  72.136  1.00  0.00     0.000 HD 
HETATM   13  H2  UNL     3      -8.133   9.359  70.574  1.00  0.00     0.000 HD 
HETATM   14  N   UNL     2      -9.684   9.812  68.056  1.00  0.00    -0.143 NA 
HETATM   15  N   UNL     2      -7.393   9.699  67.855  1.00  0.00    -0.082 NA 
HETATM   16  H2  UNL     2      -6.465   9.891  68.232  1.00  0.00     0.000 HD 
HETATM   17  H   UNL     2      -9.731   9.044  67.386  1.00  0.00     0.000 HD 
HETATM   18  N   UNL     3      -8.012   7.236  69.177  1.00  0.00    -0.117 NA 
HETATM   19  N   UNL     3      -8.054   6.235  71.256  1.00  0.00    -0.116 NA 
HETATM   20  H2  UNL     3      -8.057   8.098  68.633  1.00  0.00     0.000 HD 
HETATM   21  H1  UNL     2      -7.529   9.077  67.058  1.00  0.00     0.000 HD 
HETATM   22  H1  UNL     3      -7.962   6.350  68.675  1.00  0.00     0.000 HD 
HETATM   23  H   UNL     3      -8.463   6.263  72.190  1.00  0.00     0.000 HD 
ENDROOT
BRANCH  14  24
HETATM   24  C   UNL     2     -10.967  10.290  68.538  1.00  0.00    -0.247 C  
BRANCH  24  25
HETATM   25  C   UNL     2     -11.343  11.588  67.844  1.00  0.00    -0.372 A  
HETATM   26  I   UNL     2     -11.944  12.956  63.747  1.00  0.00    -0.567 I  
HETATM   27  C   UNL     2     -11.579  12.757  68.587  1.00  0.00    -0.352 A  
HETATM   28  C   UNL     2     -11.468  11.646  66.443  1.00  0.00    -0.238 A  
HETATM   29  C   UNL     2     -11.862  13.965  67.956  1.00  0.00    -0.411 A  
HETATM   30  C   UNL     2     -11.776  12.857  65.819  1.00  0.00    -0.390 A  
HETATM   31  C   UNL     2     -11.962  14.019  66.570  1.00  0.00    -0.470 A  
ENDBRANCH  24  25
ENDBRANCH  14  24
BRANCH  19  32
HETATM   32  C   UNL     3      -7.469   5.021  70.703  1.00  0.00    -0.069 C  
BRANCH  32  33
HETATM   33  C   UNL     3      -8.447   3.884  70.639  1.00  0.00    -0.099 A  
HETATM   34  C   UNL     3      -9.972   1.522  70.709  1.00  0.00     0.014 A  
HETATM   35  C   UNL     3      -9.168   3.539  71.782  1.00  0.00    -0.183 A  
HETATM   36  I   UNL     3     -10.821   1.798  73.604  1.00  0.00    -0.292 I  
HETATM   37  C   UNL     3      -9.314   1.887  69.537  1.00  0.00    -0.160 A  
HETATM   38  C   UNL     3      -9.903   2.355  71.825  1.00  0.00    -0.158 A  
HETATM   39  C   UNL     3      -8.549   3.056  69.501  1.00  0.00    -0.114 A  
ENDBRANCH  32  33
ENDBRANCH  19  32
TORSDOF 4
ENDMDL
MODEL      104
REMARK 921   NORMALIZED FREE ENERGY PREDICTED BY IDOCK:   -5.49 KCAL/MOL
REMARK 922        TOTAL FREE ENERGY PREDICTED BY IDOCK:   -7.42 KCAL/MOL
REMARK 923 INTER-LIGAND FREE ENERGY PREDICTED BY IDOCK:   -6.86 KCAL/MOL
REMARK 924 INTRA-LIGAND FREE ENERGY PREDICTED BY IDOCK:   -0.56 KCAL/MOL
REMARK 927      BINDING AFFINITY PREDICTED BY RF-SCORE:    0.00 PKD
ROOT
HETATM    1  O   UNL     1     -12.931   7.430  71.092  1.00  0.00    -0.319 OA 
HETATM    2  S   UNL     1     -12.892   8.875  71.802  1.00  0.00    -0.389 S  
HETATM    3  N   UNL     2     -10.101   5.275  69.855  1.00  0.00    -0.240 NA 
HETATM    4  H1  UNL     2     -10.887   4.993  70.441  1.00  0.00     0.000 HD 
HETATM    5  H2  UNL     2     -10.083   5.083  68.853  1.00  0.00     0.000 HD 
HETATM    6  C   UNL     2      -9.089   5.909  70.469  1.00  0.00    -0.148 C  
HETATM    7  N   UNL     3     -11.061   8.062  68.985  1.00  0.00    -0.412 NA 
HETATM    8  O   UNL     1     -13.131   9.830  70.536  1.00  0.00    -0.104 OA 
HETATM    9  O   UNL     1     -14.026   8.958  72.693  1.00  0.00    -0.448 OA 
HETATM   10  O   UNL     1     -11.543   9.084  72.249  1.00  0.00    -0.328 OA 
HETATM   11  C   UNL     3     -10.221   9.095  69.217  1.00  0.00    -0.210 C  
HETATM   12  H1  UNL     3     -11.981   8.173  68.559  1.00  0.00     0.000 HD 
HETATM   13  H2  UNL     3     -10.760   7.124  69.250  1.00  0.00     0.000 HD 
HETATM   14  N   UNL     2      -9.256   6.354  71.720  1.00  0.00    -0.144 NA 
HETATM   15  N   UNL     2      -8.099   6.263  69.732  1.00  0.00    -0.118 NA 
HETATM   16  H2  UNL     2      -8.081   6.071  68.729  1.00  0.00     0.000 HD 
HETATM   17  H   UNL     2      -8.535   6.994  72.053  1.00  0.00     0.000 HD 
HETATM   18  N   UNL     3      -9.067   8.957  69.751  1.00  0.00    -0.145 NA 
HETATM   19  N   UNL     3     -10.743  10.305  68.914  1.00  0.00    -0.214 NA 
HETATM   20  H2  UNL     3      -8.765   8.019  70.015  1.00  0.00     0.000 HD 
HETATM   21  H1  UNL     2      -7.330   6.744  70.198  1.00  0.00     0.000 HD 
HETATM   22  H1  UNL     3      -8.433   9.736  69.926  1.00  0.00     0.000 HD 
HETATM   23  H   UNL     3     -11.749  10.471  68.888  1.00  0.00     0.000 HD 
ENDROOT
BRANCH  14  24
HETATM   24  C   UNL     2     -10.311   6.063  72.673  1.00  0.00    -0.196 C  
BRANCH  24  25
HETATM   25  C   UNL     2     -10.105   4.688  73.287  1.00  0.00    -0.201 A  
HETATM   26  I   UNL     2      -6.727   2.217  74.512  1.00  0.00    -0.024 I  
HETATM   27  C   UNL     2     -11.203   3.863  73.586  1.00  0.00    -0.294 A  
HETATM   28  C   UNL     2      -8.811   4.214  73.575  1.00  0.00    -0.093 A  
HETATM   29  C   UNL     2     -11.021   2.578  74.089  1.00  0.00    -0.196 A  
HETATM   30  C   UNL     2      -8.637   2.932  74.102  1.00  0.00    -0.072 A  
HETATM   31  C   UNL     2      -9.737   2.109  74.350  1.00  0.00    -0.123 A  
ENDBRANCH  24  25
ENDBRANCH  14  24
BRANCH  19  32
HETATM   32  C   UNL     3      -9.777  11.358  68.629  1.00  0.00    -0.176 C  
BRANCH  32  33
HETATM   33  C   UNL     3     -10.369  12.486  67.834  1.00  0.00    -0.219 A  
HETATM   34  C   UNL     3     -11.711  14.680  66.697  1.00  0.00    -0.345 A  
HETATM   35  C   UNL     3      -9.910  13.785  68.046  1.00  0.00    -0.239 A  
HETATM   36  I   UNL     3      -9.972  16.798  67.987  1.00  0.00    -0.315 I  
HETATM   37  C   UNL     3     -12.141  13.385  66.418  1.00  0.00    -0.464 A  
HETATM   38  C   UNL     3     -10.591  14.874  67.503  1.00  0.00    -0.266 A  
HETATM   39  C   UNL     3     -11.481  12.292  66.987  1.00  0.00    -0.419 A  
ENDBRANCH  32  33
ENDBRANCH  19  32
TORSDOF 4
ENDMDL
MODEL      105
REMARK 921   NORMALIZED FREE ENERGY PREDICTED BY IDOCK:   -5.47 KCAL/MOL
REMARK 922        TOTAL FREE ENERGY PREDICTED BY IDOCK:   -7.40 KCAL/MOL
REMARK 923 INTER-LIGAND FREE ENERGY PREDICTED BY IDOCK:   -6.82 KCAL/MOL
REMARK 924 INTRA-LIGAND FREE ENERGY PREDICTED BY IDOCK:   -0.57 KCAL/MOL
REMARK 927      BINDING AFFINITY PREDICTED BY RF-SCORE:    0.00 PKD
ROOT
HETATM    1  O   UNL     1     -12.442   8.148  70.461  1.00  0.00     0.146 OA 
HETATM    2  S   UNL     1     -12.630   9.315  71.555  1.00  0.00    -0.372 S  
HETATM    3  N   UNL     2      -9.461   7.309  68.318  1.00  0.00    -0.141 NA 
HETATM    4  H1  UNL     2     -10.020   6.670  68.884  1.00  0.00     0.000 HD 
HETATM    5  H2  UNL     2      -9.593   7.388  67.309  1.00  0.00     0.000 HD 
HETATM    6  C   UNL     2      -8.541   8.040  68.967  1.00  0.00    -0.137 C  
HETATM    7  N   UNL     3     -11.243   9.811  68.428  1.00  0.00    -0.512 NA 
HETATM    8  O   UNL     1     -13.345  10.440  70.664  1.00  0.00    -0.288 OA 
HETATM    9  O   UNL     1     -13.550   8.834  72.558  1.00  0.00    -0.404 OA 
HETATM   10  O   UNL     1     -11.316   9.796  71.881  1.00  0.00    -0.193 OA 
HETATM   11  C   UNL     3     -10.661  10.955  68.852  1.00  0.00    -0.215 C  
HETATM   12  H1  UNL     3     -12.227   9.747  68.166  1.00  0.00     0.000 HD 
HETATM   13  H2  UNL     3     -10.669   8.970  68.368  1.00  0.00     0.000 HD 
HETATM   14  N   UNL     2      -8.566   8.090  70.304  1.00  0.00    -0.131 NA 
HETATM   15  N   UNL     2      -7.836   8.844  68.255  1.00  0.00    -0.100 NA 
HETATM   16  H2  UNL     2      -7.969   8.923  67.246  1.00  0.00     0.000 HD 
HETATM   17  H   UNL     2      -7.978   8.811  70.723  1.00  0.00     0.000 HD 
HETATM   18  N   UNL     3      -9.428  11.036  69.181  1.00  0.00    -0.401 NA 
HETATM   19  N   UNL     3     -11.520  11.991  68.983  1.00  0.00    -0.276 NA 
HETATM   20  H2  UNL     3      -8.854  10.195  69.120  1.00  0.00     0.000 HD 
HETATM   21  H1  UNL     2      -7.137   9.400  68.748  1.00  0.00     0.000 HD 
HETATM   22  H1  UNL     3      -8.989  11.899  69.501  1.00  0.00     0.000 HD 
HETATM   23  H   UNL     3     -12.520  11.852  69.126  1.00  0.00     0.000 HD 
ENDROOT
BRANCH  14  24
HETATM   24  C   UNL     2      -9.305   7.270  71.247  1.00  0.00    -0.154 C  
BRANCH  24  25
HETATM   25  C   UNL     2      -8.570   5.966  71.505  1.00  0.00    -0.132 A  
HETATM   26  I   UNL     2      -9.405   1.703  71.117  1.00  0.00    -0.186 I  
HETATM   27  C   UNL     2      -7.262   5.969  72.021  1.00  0.00    -0.092 A  
HETATM   28  C   UNL     2      -9.179   4.727  71.227  1.00  0.00    -0.191 A  
HETATM   29  C   UNL     2      -6.605   4.779  72.319  1.00  0.00    -0.043 A  
HETATM   30  C   UNL     2      -8.503   3.538  71.507  1.00  0.00    -0.072 A  
HETATM   31  C   UNL     2      -7.223   3.559  72.063  1.00  0.00    -0.050 A  
ENDBRANCH  24  25
ENDBRANCH  14  24
BRANCH  19  32
HETATM   32  C   UNL     3     -10.926  13.319  68.909  1.00  0.00    -0.240 C  
BRANCH  32  33
HETATM   33  C   UNL     3     -11.003  13.911  67.531  1.00  0.00    -0.288 A  
HETATM   34  C   UNL     3     -10.776  14.815  64.878  1.00  0.00    -0.438 A  
HETATM   35  C   UNL     3     -11.445  13.118  66.472  1.00  0.00    -0.378 A  
HETATM   36  I   UNL     3     -11.820  12.273  63.604  1.00  0.00    -0.592 I  
HETATM   37  C   UNL     3     -10.395  15.647  65.928  1.00  0.00    -0.368 A  
HETATM   38  C   UNL     3     -11.308  13.557  65.155  1.00  0.00    -0.301 A  
HETATM   39  C   UNL     3     -10.500  15.198  67.247  1.00  0.00    -0.271 A  
ENDBRANCH  32  33
ENDBRANCH  19  32
TORSDOF 4
ENDMDL
MODEL      106
REMARK 921   NORMALIZED FREE ENERGY PREDICTED BY IDOCK:   -5.46 KCAL/MOL
REMARK 922        TOTAL FREE ENERGY PREDICTED BY IDOCK:   -7.39 KCAL/MOL
REMARK 923 INTER-LIGAND FREE ENERGY PREDICTED BY IDOCK:   -6.67 KCAL/MOL
REMARK 924 INTRA-LIGAND FREE ENERGY PREDICTED BY IDOCK:   -0.72 KCAL/MOL
REMARK 927      BINDING AFFINITY PREDICTED BY RF-SCORE:    0.00 PKD
ROOT
HETATM    1  O   UNL     1     -12.134  11.790  65.796  1.00  0.00    -0.357 OA 
HETATM    2  S   UNL     1     -10.771  12.198  65.042  1.00  0.00    -0.309 S  
HETATM    3  N   UNL     2     -12.718  10.897  69.408  1.00  0.00    -0.528 NA 
HETATM    4  H1  UNL     2     -13.247  11.556  68.836  1.00  0.00     0.000 HD 
HETATM    5  H2  UNL     2     -13.059   9.953  69.591  1.00  0.00     0.000 HD 
HETATM    6  C   UNL     2     -11.552  11.335  69.909  1.00  0.00    -0.334 C  
HETATM    7  N   UNL     3     -11.043   9.530  67.224  1.00  0.00    -0.293 NA 
HETATM    8  O   UNL     1     -10.333  10.778  64.439  1.00  0.00    -0.353 OA 
HETATM    9  O   UNL     1     -11.114  13.097  63.966  1.00  0.00    -0.384 OA 
HETATM   10  O   UNL     1      -9.818  12.543  66.061  1.00  0.00    -0.254 OA 
HETATM   11  C   UNL     3      -9.703   9.521  67.401  1.00  0.00    -0.157 C  
HETATM   12  H1  UNL     3     -11.503   9.126  66.408  1.00  0.00     0.000 HD 
HETATM   13  H2  UNL     3     -11.623   9.964  67.942  1.00  0.00     0.000 HD 
HETATM   14  N   UNL     2     -11.029  12.478  69.451  1.00  0.00    -0.450 NA 
HETATM   15  N   UNL     2     -10.887  10.505  70.629  1.00  0.00    -0.368 NA 
HETATM   16  H2  UNL     2     -11.227   9.560  70.811  1.00  0.00     0.000 HD 
HETATM   17  H   UNL     2     -10.060  12.650  69.719  1.00  0.00     0.000 HD 
HETATM   18  N   UNL     3      -9.125  10.027  68.423  1.00  0.00    -0.119 NA 
HETATM   19  N   UNL     3      -9.015   9.004  66.357  1.00  0.00    -0.147 NA 
HETATM   20  H2  UNL     3      -9.705  10.461  69.142  1.00  0.00     0.000 HD 
HETATM   21  H1  UNL     2     -10.000  10.837  71.010  1.00  0.00     0.000 HD 
HETATM   22  H1  UNL     3      -8.114  10.020  68.557  1.00  0.00     0.000 HD 
HETATM   23  H   UNL     3      -9.398   8.984  65.412  1.00  0.00     0.000 HD 
ENDROOT
BRANCH  14  24
HETATM   24  C   UNL     2     -11.634  13.509  68.629  1.00  0.00    -0.330 C  
BRANCH  24  25
HETATM   25  C   UNL     2     -10.749  14.743  68.590  1.00  0.00    -0.253 A  
HETATM   26  I   UNL     2      -6.513  15.648  69.099  1.00  0.00    -0.164 I  
HETATM   27  C   UNL     2     -11.300  16.015  68.351  1.00  0.00    -0.355 A  
HETATM   28  C   UNL     2      -9.359  14.640  68.788  1.00  0.00    -0.191 A  
HETATM   29  C   UNL     2     -10.506  17.158  68.377  1.00  0.00    -0.376 A  
HETATM   30  C   UNL     2      -8.566  15.790  68.789  1.00  0.00    -0.203 A  
HETATM   31  C   UNL     2      -9.136  17.050  68.595  1.00  0.00    -0.271 A  
ENDBRANCH  24  25
ENDBRANCH  14  24
BRANCH  19  32
HETATM   32  C   UNL     3      -7.692   8.480  66.668  1.00  0.00    -0.090 C  
BRANCH  32  33
HETATM   33  C   UNL     3      -7.069   7.757  65.508  1.00  0.00    -0.063 A  
HETATM   34  C   UNL     3      -5.738   6.139  63.632  1.00  0.00    -0.022 A  
HETATM   35  C   UNL     3      -7.659   6.584  65.039  1.00  0.00    -0.092 A  
HETATM   36  I   UNL     3      -7.829   3.948  63.589  1.00  0.00    -0.087 I  
HETATM   37  C   UNL     3      -5.166   7.343  64.038  1.00  0.00    -0.029 A  
HETATM   38  C   UNL     3      -6.987   5.770  64.128  1.00  0.00    -0.051 A  
HETATM   39  C   UNL     3      -5.822   8.146  64.976  1.00  0.00    -0.045 A  
ENDBRANCH  32  33
ENDBRANCH  19  32
TORSDOF 4
ENDMDL
MODEL      107
REMARK 921   NORMALIZED FREE ENERGY PREDICTED BY IDOCK:   -5.46 KCAL/MOL
REMARK 922        TOTAL FREE ENERGY PREDICTED BY IDOCK:   -7.39 KCAL/MOL
REMARK 923 INTER-LIGAND FREE ENERGY PREDICTED BY IDOCK:   -6.57 KCAL/MOL
REMARK 924 INTRA-LIGAND FREE ENERGY PREDICTED BY IDOCK:   -0.82 KCAL/MOL
REMARK 927      BINDING AFFINITY PREDICTED BY RF-SCORE:    0.00 PKD
ROOT
HETATM    1  O   UNL     1      -7.834   8.338  70.646  1.00  0.00    -0.084 OA 
HETATM    2  S   UNL     1      -7.557   9.053  69.229  1.00  0.00    -0.080 S  
HETATM    3  N   UNL     2     -10.991   6.785  71.987  1.00  0.00    -0.231 NA 
HETATM    4  H1  UNL     2     -10.054   6.384  71.982  1.00  0.00     0.000 HD 
HETATM    5  H2  UNL     2     -11.386   7.216  72.824  1.00  0.00     0.000 HD 
HETATM    6  C   UNL     2     -11.681   6.719  70.837  1.00  0.00    -0.372 C  
HETATM    7  N   UNL     3     -10.330   9.681  71.195  1.00  0.00    -0.283 NA 
HETATM    8  O   UNL     1      -7.773  10.590  69.629  1.00  0.00    -0.154 OA 
HETATM    9  O   UNL     1      -6.171   8.831  68.887  1.00  0.00    -0.043 OA 
HETATM   10  O   UNL     1      -8.636   8.680  68.357  1.00  0.00    -0.133 OA 
HETATM   11  C   UNL     3     -10.988  10.186  70.129  1.00  0.00    -0.316 C  
HETATM   12  H1  UNL     3      -9.630  10.205  71.722  1.00  0.00     0.000 HD 
HETATM   13  H2  UNL     3     -10.542   8.727  71.488  1.00  0.00     0.000 HD 
HETATM   14  N   UNL     2     -11.046   6.375  69.710  1.00  0.00    -0.360 NA 
HETATM   15  N   UNL     2     -12.862   7.224  70.843  1.00  0.00    -0.599 NA 
HETATM   16  H2  UNL     2     -13.256   7.655  71.680  1.00  0.00     0.000 HD 
HETATM   17  H   UNL     2     -11.570   6.536  68.850  1.00  0.00     0.000 HD 
HETATM   18  N   UNL     3     -11.865   9.530  69.469  1.00  0.00    -0.276 NA 
HETATM   19  N   UNL     3     -10.575  11.421  69.764  1.00  0.00    -0.419 NA 
HETATM   20  H2  UNL     3     -12.079   8.576  69.762  1.00  0.00     0.000 HD 
HETATM   21  H1  UNL     2     -13.386   7.174  69.969  1.00  0.00     0.000 HD 
HETATM   22  H1  UNL     3     -12.363   9.911  68.664  1.00  0.00     0.000 HD 
HETATM   23  H   UNL     3      -9.646  11.772  69.994  1.00  0.00     0.000 HD 
ENDROOT
BRANCH  14  24
HETATM   24  C   UNL     2      -9.723   5.805  69.530  1.00  0.00    -0.153 C  
BRANCH  24  25
HETATM   25  C   UNL     2      -9.535   5.347  68.094  1.00  0.00    -0.142 A  
HETATM   26  I   UNL     2      -6.191   4.442  65.446  1.00  0.00    -0.028 I  
HETATM   27  C   UNL     2     -10.645   5.125  67.261  1.00  0.00    -0.139 A  
HETATM   28  C   UNL     2      -8.247   5.129  67.569  1.00  0.00    -0.103 A  
HETATM   29  C   UNL     2     -10.481   4.766  65.926  1.00  0.00    -0.313 A  
HETATM   30  C   UNL     2      -8.092   4.746  66.235  1.00  0.00    -0.107 A  
HETATM   31  C   UNL     2      -9.204   4.575  65.408  1.00  0.00    -0.154 A  
ENDBRANCH  24  25
ENDBRANCH  14  24
BRANCH  19  32
HETATM   32  C   UNL     3     -11.542  12.218  69.020  1.00  0.00    -0.316 C  
BRANCH  32  33
HETATM   33  C   UNL     3     -10.903  13.354  68.274  1.00  0.00    -0.275 A  
HETATM   34  C   UNL     3      -9.648  15.659  67.264  1.00  0.00    -0.220 A  
HETATM   35  C   UNL     3      -9.512  13.436  68.217  1.00  0.00    -0.209 A  
HETATM   36  I   UNL     3      -6.820  14.735  67.834  1.00  0.00    -0.199 I  
HETATM   37  C   UNL     3     -11.038  15.564  67.249  1.00  0.00    -0.271 A  
HETATM   38  C   UNL     3      -8.891  14.590  67.740  1.00  0.00    -0.183 A  
HETATM   39  C   UNL     3     -11.665  14.422  67.757  1.00  0.00    -0.407 A  
ENDBRANCH  32  33
ENDBRANCH  19  32
TORSDOF 4
ENDMDL
MODEL      108
REMARK 921   NORMALIZED FREE ENERGY PREDICTED BY IDOCK:   -5.46 KCAL/MOL
REMARK 922        TOTAL FREE ENERGY PREDICTED BY IDOCK:   -7.38 KCAL/MOL
REMARK 923 INTER-LIGAND FREE ENERGY PREDICTED BY IDOCK:   -6.84 KCAL/MOL
REMARK 924 INTRA-LIGAND FREE ENERGY PREDICTED BY IDOCK:   -0.54 KCAL/MOL
REMARK 927      BINDING AFFINITY PREDICTED BY RF-SCORE:    0.00 PKD
ROOT
HETATM    1  O   UNL     1      -8.069   8.284  68.355  1.00  0.00    -0.123 OA 
HETATM    2  S   UNL     1      -8.934   8.552  67.024  1.00  0.00    -0.141 S  
HETATM    3  N   UNL     2      -9.208   7.753  71.906  1.00  0.00    -0.136 NA 
HETATM    4  H1  UNL     2      -8.541   7.191  71.375  1.00  0.00     0.000 HD 
HETATM    5  H2  UNL     2      -8.901   8.447  72.587  1.00  0.00     0.000 HD 
HETATM    6  C   UNL     2     -10.510   7.531  71.662  1.00  0.00    -0.200 C  
HETATM    7  N   UNL     3      -9.470  10.173  70.029  1.00  0.00    -0.401 NA 
HETATM    8  O   UNL     1      -8.876  10.153  66.953  1.00  0.00    -0.132 OA 
HETATM    9  O   UNL     1      -8.211   7.991  65.908  1.00  0.00    -0.112 OA 
HETATM   10  O   UNL     1     -10.290   8.185  67.327  1.00  0.00    -0.249 OA 
HETATM   11  C   UNL     3     -10.720  10.510  69.641  1.00  0.00    -0.259 C  
HETATM   12  H1  UNL     3      -8.634  10.669  69.719  1.00  0.00     0.000 HD 
HETATM   13  H2  UNL     3      -9.357   9.383  70.664  1.00  0.00     0.000 HD 
HETATM   14  N   UNL     2     -10.864   6.799  70.600  1.00  0.00    -0.238 NA 
HETATM   15  N   UNL     2     -11.349   8.238  72.331  1.00  0.00    -0.374 NA 
HETATM   16  H2  UNL     2     -11.042   8.933  73.012  1.00  0.00     0.000 HD 
HETATM   17  H   UNL     2     -11.854   6.836  70.358  1.00  0.00     0.000 HD 
HETATM   18  N   UNL     3     -11.768   9.888  70.029  1.00  0.00    -0.421 NA 
HETATM   19  N   UNL     3     -10.761  11.510  68.732  1.00  0.00    -0.204 NA 
HETATM   20  H2  UNL     3     -11.655   9.099  70.665  1.00  0.00     0.000 HD 
HETATM   21  H1  UNL     2     -12.338   8.070  72.146  1.00  0.00     0.000 HD 
HETATM   22  H1  UNL     3     -12.712  10.142  69.736  1.00  0.00     0.000 HD 
HETATM   23  H   UNL     3      -9.970  11.724  68.124  1.00  0.00     0.000 HD 
ENDROOT
BRANCH  14  24
HETATM   24  C   UNL     2     -10.048   5.961  69.740  1.00  0.00    -0.197 C  
BRANCH  24  25
HETATM   25  C   UNL     2      -9.502   4.777  70.519  1.00  0.00    -0.240 A  
HETATM   26  I   UNL     2     -10.989   1.956  73.494  1.00  0.00    -0.298 I  
HETATM   27  C   UNL     2      -8.168   4.365  70.357  1.00  0.00    -0.074 A  
HETATM   28  C   UNL     2     -10.321   4.063  71.416  1.00  0.00     0.070 A  
HETATM   29  C   UNL     2      -7.641   3.321  71.113  1.00  0.00    -0.040 A  
HETATM   30  C   UNL     2      -9.791   3.002  72.153  1.00  0.00    -0.169 A  
HETATM   31  C   UNL     2      -8.451   2.636  72.013  1.00  0.00    -0.076 A  
ENDBRANCH  24  25
ENDBRANCH  14  24
BRANCH  19  32
HETATM   32  C   UNL     3     -12.007  12.263  68.675  1.00  0.00    -0.227 C  
BRANCH  32  33
HETATM   33  C   UNL     3     -11.936  13.558  69.432  1.00  0.00    -0.383 A  
HETATM   34  C   UNL     3     -11.394  15.875  70.929  1.00  0.00    -0.428 A  
HETATM   35  C   UNL     3     -11.344  14.668  68.830  1.00  0.00    -0.305 A  
HETATM   36  I   UNL     3     -10.016  17.369  68.683  1.00  0.00    -0.325 I  
HETATM   37  C   UNL     3     -12.049  14.801  71.528  1.00  0.00    -0.411 A  
HETATM   38  C   UNL     3     -11.052  15.807  69.580  1.00  0.00    -0.306 A  
HETATM   39  C   UNL     3     -12.313  13.645  70.788  1.00  0.00    -0.446 A  
ENDBRANCH  32  33
ENDBRANCH  19  32
TORSDOF 4
ENDMDL
MODEL      109
REMARK 921   NORMALIZED FREE ENERGY PREDICTED BY IDOCK:   -5.46 KCAL/MOL
REMARK 922        TOTAL FREE ENERGY PREDICTED BY IDOCK:   -7.38 KCAL/MOL
REMARK 923 INTER-LIGAND FREE ENERGY PREDICTED BY IDOCK:   -6.70 KCAL/MOL
REMARK 924 INTRA-LIGAND FREE ENERGY PREDICTED BY IDOCK:   -0.68 KCAL/MOL
REMARK 927      BINDING AFFINITY PREDICTED BY RF-SCORE:    0.00 PKD
ROOT
HETATM    1  O   UNL     1      -7.161   9.654  68.188  1.00  0.00    -0.077 OA 
HETATM    2  S   UNL     1      -8.159  10.741  67.545  1.00  0.00    -0.112 S  
HETATM    3  N   UNL     2      -7.828   6.107  69.266  1.00  0.00    -0.102 NA 
HETATM    4  H1  UNL     2      -7.062   6.448  68.684  1.00  0.00     0.000 HD 
HETATM    5  H2  UNL     2      -7.699   5.905  70.258  1.00  0.00     0.000 HD 
HETATM    6  C   UNL     2      -9.015   5.939  68.661  1.00  0.00    -0.116 C  
HETATM    7  N   UNL     3      -8.948   8.783  70.283  1.00  0.00    -0.151 NA 
HETATM    8  O   UNL     1      -8.595  11.552  68.858  1.00  0.00    -0.093 OA 
HETATM    9  O   UNL     1      -7.380  11.598  66.683  1.00  0.00    -0.116 OA 
HETATM   10  O   UNL     1      -9.314  10.023  67.080  1.00  0.00    -0.146 OA 
HETATM   11  C   UNL     3     -10.265   9.008  70.081  1.00  0.00    -0.197 C  
HETATM   12  H1  UNL     3      -8.327   9.457  70.732  1.00  0.00     0.000 HD 
HETATM   13  H2  UNL     3      -8.554   7.896  69.968  1.00  0.00     0.000 HD 
HETATM   14  N   UNL     2      -9.204   6.443  67.436  1.00  0.00    -0.117 NA 
HETATM   15  N   UNL     2      -9.979   5.510  69.393  1.00  0.00    -0.189 NA 
HETATM   16  H2  UNL     2      -9.851   5.308  70.385  1.00  0.00     0.000 HD 
HETATM   17  H   UNL     2     -10.173   6.458  67.117  1.00  0.00     0.000 HD 
HETATM   18  N   UNL     3     -11.044   8.165  69.518  1.00  0.00    -0.439 NA 
HETATM   19  N   UNL     3     -10.673  10.244  70.450  1.00  0.00    -0.416 NA 
HETATM   20  H2  UNL     3     -10.651   7.277  69.204  1.00  0.00     0.000 HD 
HETATM   21  H1  UNL     2     -10.881   5.382  68.933  1.00  0.00     0.000 HD 
HETATM   22  H1  UNL     3     -12.038   8.334  69.366  1.00  0.00     0.000 HD 
HETATM   23  H   UNL     3     -10.030  11.033  70.505  1.00  0.00     0.000 HD 
ENDROOT
BRANCH  14  24
HETATM   24  C   UNL     2      -8.236   6.971  66.492  1.00  0.00    -0.114 C  
BRANCH  24  25
HETATM   25  C   UNL     2      -8.354   6.257  65.157  1.00  0.00    -0.119 A  
HETATM   26  I   UNL     2      -9.906   2.450  63.702  1.00  0.00    -0.119 I  
HETATM   27  C   UNL     2      -7.865   6.849  63.980  1.00  0.00    -0.100 A  
HETATM   28  C   UNL     2      -8.962   4.990  65.067  1.00  0.00    -0.131 A  
HETATM   29  C   UNL     2      -7.911   6.176  62.762  1.00  0.00    -0.100 A  
HETATM   30  C   UNL     2      -9.027   4.331  63.838  1.00  0.00    -0.141 A  
HETATM   31  C   UNL     2      -8.493   4.914  62.687  1.00  0.00    -0.113 A  
ENDBRANCH  24  25
ENDBRANCH  14  24
BRANCH  19  32
HETATM   32  C   UNL     3     -12.090  10.375  70.763  1.00  0.00    -0.364 C  
BRANCH  32  33
HETATM   33  C   UNL     3     -12.505  11.803  70.977  1.00  0.00    -0.411 A  
HETATM   34  C   UNL     3     -12.918  14.513  71.602  1.00  0.00    -0.408 A  
HETATM   35  C   UNL     3     -11.923  12.805  70.202  1.00  0.00    -0.371 A  
HETATM   36  I   UNL     3     -11.084  15.600  69.451  1.00  0.00    -0.413 I  
HETATM   37  C   UNL     3     -13.563  13.525  72.343  1.00  0.00    -0.709 A  
HETATM   38  C   UNL     3     -12.108  14.148  70.528  1.00  0.00    -0.350 A  
HETATM   39  C   UNL     3     -13.354  12.177  72.040  1.00  0.00    -0.470 A  
ENDBRANCH  32  33
ENDBRANCH  19  32
TORSDOF 4
ENDMDL
MODEL      110
REMARK 921   NORMALIZED FREE ENERGY PREDICTED BY IDOCK:   -5.46 KCAL/MOL
REMARK 922        TOTAL FREE ENERGY PREDICTED BY IDOCK:   -7.38 KCAL/MOL
REMARK 923 INTER-LIGAND FREE ENERGY PREDICTED BY IDOCK:   -6.66 KCAL/MOL
REMARK 924 INTRA-LIGAND FREE ENERGY PREDICTED BY IDOCK:   -0.72 KCAL/MOL
REMARK 927      BINDING AFFINITY PREDICTED BY RF-SCORE:    0.00 PKD
ROOT
HETATM    1  O   UNL     1      -6.848  11.083  67.443  1.00  0.00    -0.074 OA 
HETATM    2  S   UNL     1      -7.655  12.124  68.370  1.00  0.00    -0.131 S  
HETATM    3  N   UNL     2      -8.074   8.021  65.626  1.00  0.00    -0.114 NA 
HETATM    4  H1  UNL     2      -7.500   8.777  65.254  1.00  0.00     0.000 HD 
HETATM    5  H2  UNL     2      -7.666   7.131  65.915  1.00  0.00     0.000 HD 
HETATM    6  C   UNL     2      -9.393   8.254  65.717  1.00  0.00    -0.031 C  
HETATM    7  N   UNL     3      -7.947   8.689  68.624  1.00  0.00    -0.114 NA 
HETATM    8  O   UNL     1      -7.347  11.520  69.824  1.00  0.00     0.104 OA 
HETATM    9  O   UNL     1      -7.021  13.415  68.238  1.00  0.00    -0.085 OA 
HETATM   10  O   UNL     1      -9.053  11.920  68.108  1.00  0.00    -0.178 OA 
HETATM   11  C   UNL     3      -9.128   8.823  69.268  1.00  0.00    -0.145 C  
HETATM   12  H1  UNL     3      -7.043   8.813  69.079  1.00  0.00     0.000 HD 
HETATM   13  H2  UNL     3      -7.961   8.452  67.632  1.00  0.00     0.000 HD 
HETATM   14  N   UNL     2      -9.851   9.501  65.564  1.00  0.00    -0.402 NA 
HETATM   15  N   UNL     2     -10.116   7.301  66.186  1.00  0.00    -0.406 NA 
HETATM   16  H2  UNL     2      -9.708   6.411  66.475  1.00  0.00     0.000 HD 
HETATM   17  H   UNL     2     -10.823   9.645  65.841  1.00  0.00     0.000 HD 
HETATM   18  N   UNL     3     -10.261   8.667  68.698  1.00  0.00    -0.191 NA 
HETATM   19  N   UNL     3      -9.008   9.224  70.554  1.00  0.00    -0.234 NA 
HETATM   20  H2  UNL     3     -10.276   8.430  67.706  1.00  0.00     0.000 HD 
HETATM   21  H1  UNL     2     -11.118   7.477  66.256  1.00  0.00     0.000 HD 
HETATM   22  H1  UNL     3     -11.152   8.769  69.183  1.00  0.00     0.000 HD 
HETATM   23  H   UNL     3      -8.190   9.733  70.889  1.00  0.00     0.000 HD 
ENDROOT
BRANCH  14  24
HETATM   24  C   UNL     2      -9.172  10.682  65.062  1.00  0.00    -0.211 C  
BRANCH  24  25
HETATM   25  C   UNL     2     -10.182  11.738  64.649  1.00  0.00    -0.326 A  
HETATM   26  I   UNL     2     -10.844  15.984  65.397  1.00  0.00    -0.107 I  
HETATM   27  C   UNL     2     -11.263  11.410  63.812  1.00  0.00    -0.375 A  
HETATM   28  C   UNL     2     -10.055  13.070  65.090  1.00  0.00    -0.238 A  
HETATM   29  C   UNL     2     -12.229  12.357  63.481  1.00  0.00    -0.661 A  
HETATM   30  C   UNL     2     -11.015  14.019  64.733  1.00  0.00    -0.402 A  
HETATM   31  C   UNL     2     -12.108  13.665  63.939  1.00  0.00    -0.462 A  
ENDBRANCH  24  25
ENDBRANCH  14  24
BRANCH  19  32
HETATM   32  C   UNL     3     -10.121   8.884  71.430  1.00  0.00    -0.309 C  
BRANCH  32  33
HETATM   33  C   UNL     3      -9.706   8.017  72.583  1.00  0.00    -0.332 A  
HETATM   34  C   UNL     3      -8.925   6.071  74.458  1.00  0.00    -0.138 A  
HETATM   35  C   UNL     3      -8.363   7.670  72.727  1.00  0.00    -0.167 A  
HETATM   36  I   UNL     3      -5.994   6.081  73.697  1.00  0.00    -0.065 I  
HETATM   37  C   UNL     3     -10.261   6.457  74.375  1.00  0.00    -0.343 A  
HETATM   38  C   UNL     3      -7.980   6.687  73.639  1.00  0.00    -0.099 A  
HETATM   39  C   UNL     3     -10.654   7.418  73.439  1.00  0.00    -0.427 A  
ENDBRANCH  32  33
ENDBRANCH  19  32
TORSDOF 4
ENDMDL
MODEL      111
REMARK 921   NORMALIZED FREE ENERGY PREDICTED BY IDOCK:   -5.43 KCAL/MOL
REMARK 922        TOTAL FREE ENERGY PREDICTED BY IDOCK:   -7.34 KCAL/MOL
REMARK 923 INTER-LIGAND FREE ENERGY PREDICTED BY IDOCK:   -6.94 KCAL/MOL
REMARK 924 INTRA-LIGAND FREE ENERGY PREDICTED BY IDOCK:   -0.40 KCAL/MOL
REMARK 927      BINDING AFFINITY PREDICTED BY RF-SCORE:    0.00 PKD
ROOT
HETATM    1  O   UNL     1     -11.435  16.514  66.726  1.00  0.00     0.376 OA 
HETATM    2  S   UNL     1     -11.011  16.272  65.192  1.00  0.00    -0.178 S  
HETATM    3  N   UNL     2      -9.560  15.732  69.898  1.00  0.00    -0.147 NA 
HETATM    4  H1  UNL     2     -10.020  16.607  69.646  1.00  0.00     0.000 HD 
HETATM    5  H2  UNL     2      -9.997  15.058  70.526  1.00  0.00     0.000 HD 
HETATM    6  C   UNL     2      -8.349  15.513  69.360  1.00  0.00    -0.249 C  
HETATM    7  N   UNL     3     -10.657  13.903  67.684  1.00  0.00    -0.244 NA 
HETATM    8  O   UNL     1     -11.733  14.870  64.905  1.00  0.00    -0.382 OA 
HETATM    9  O   UNL     1     -11.628  17.307  64.396  1.00  0.00    -0.694 OA 
HETATM   10  O   UNL     1      -9.594  16.035  65.183  1.00  0.00    -0.281 OA 
HETATM   11  C   UNL     3      -9.748  13.236  66.939  1.00  0.00    -0.248 C  
HETATM   12  H1  UNL     3     -11.663  13.836  67.532  1.00  0.00     0.000 HD 
HETATM   13  H2  UNL     3     -10.319  14.505  68.435  1.00  0.00     0.000 HD 
HETATM   14  N   UNL     2      -7.923  16.295  68.361  1.00  0.00    -0.166 NA 
HETATM   15  N   UNL     2      -7.769  14.411  69.677  1.00  0.00    -0.370 NA 
HETATM   16  H2  UNL     2      -8.206  13.737  70.305  1.00  0.00     0.000 HD 
HETATM   17  H   UNL     2      -7.096  15.957  67.868  1.00  0.00     0.000 HD 
HETATM   18  N   UNL     3      -8.486  13.320  67.129  1.00  0.00    -0.293 NA 
HETATM   19  N   UNL     3     -10.285  12.536  65.914  1.00  0.00    -0.256 NA 
HETATM   20  H2  UNL     3      -8.148  13.921  67.881  1.00  0.00     0.000 HD 
HETATM   21  H1  UNL     2      -6.849  14.245  69.268  1.00  0.00     0.000 HD 
HETATM   22  H1  UNL     3      -7.799  12.816  66.568  1.00  0.00     0.000 HD 
HETATM   23  H   UNL     3     -11.189  12.778  65.508  1.00  0.00     0.000 HD 
ENDROOT
BRANCH  14  24
HETATM   24  C   UNL     2      -8.462  17.551  67.875  1.00  0.00    -0.230 C  
BRANCH  24  25
HETATM   25  C   UNL     2      -7.340  18.469  67.423  1.00  0.00    -0.222 A  
HETATM   26  I   UNL     2      -5.493  19.630  63.646  1.00  0.00    -0.304 I  
HETATM   27  C   UNL     2      -6.589  19.201  68.360  1.00  0.00    -0.279 A  
HETATM   28  C   UNL     2      -7.030  18.612  66.056  1.00  0.00    -0.305 A  
HETATM   29  C   UNL     2      -5.518  19.996  67.960  1.00  0.00    -0.218 A  
HETATM   30  C   UNL     2      -5.969  19.430  65.662  1.00  0.00    -0.185 A  
HETATM   31  C   UNL     2      -5.205  20.113  66.610  1.00  0.00    -0.171 A  
ENDBRANCH  24  25
ENDBRANCH  14  24
BRANCH  19  32
HETATM   32  C   UNL     3      -9.491  11.417  65.426  1.00  0.00    -0.216 C  
BRANCH  32  33
HETATM   33  C   UNL     3      -9.777  10.140  66.163  1.00  0.00    -0.275 A  
HETATM   34  C   UNL     3      -9.952   7.833  67.761  1.00  0.00    -0.220 A  
HETATM   35  C   UNL     3     -10.355  10.198  67.430  1.00  0.00    -0.289 A  
HETATM   36  I   UNL     3     -11.130   9.230  70.177  1.00  0.00    -0.173 I  
HETATM   37  C   UNL     3      -9.436   7.744  66.470  1.00  0.00    -0.262 A  
HETATM   38  C   UNL     3     -10.418   9.059  68.232  1.00  0.00    -0.200 A  
HETATM   39  C   UNL     3      -9.340   8.890  65.676  1.00  0.00    -0.259 A  
ENDBRANCH  32  33
ENDBRANCH  19  32
TORSDOF 4
ENDMDL
MODEL      112
REMARK 921   NORMALIZED FREE ENERGY PREDICTED BY IDOCK:   -5.41 KCAL/MOL
REMARK 922        TOTAL FREE ENERGY PREDICTED BY IDOCK:   -7.33 KCAL/MOL
REMARK 923 INTER-LIGAND FREE ENERGY PREDICTED BY IDOCK:   -6.51 KCAL/MOL
REMARK 924 INTRA-LIGAND FREE ENERGY PREDICTED BY IDOCK:   -0.82 KCAL/MOL
REMARK 927      BINDING AFFINITY PREDICTED BY RF-SCORE:    0.00 PKD
ROOT
HETATM    1  O   UNL     1     -11.352   5.948  69.302  1.00  0.00    -0.325 OA 
HETATM    2  S   UNL     1     -10.455   6.848  68.313  1.00  0.00    -0.216 S  
HETATM    3  N   UNL     2     -11.541   5.955  73.064  1.00  0.00    -0.509 NA 
HETATM    4  H1  UNL     2     -12.317   5.977  72.401  1.00  0.00     0.000 HD 
HETATM    5  H2  UNL     2     -11.260   5.093  73.532  1.00  0.00     0.000 HD 
HETATM    6  C   UNL     2     -10.909   7.118  73.289  1.00  0.00    -0.338 C  
HETATM    7  N   UNL     3      -9.230   5.296  71.148  1.00  0.00    -0.143 NA 
HETATM    8  O   UNL     1      -9.212   5.865  68.067  1.00  0.00    -0.114 OA 
HETATM    9  O   UNL     1     -11.191   7.017  67.082  1.00  0.00    -0.315 OA 
HETATM   10  O   UNL     1      -9.975   7.962  69.084  1.00  0.00    -0.175 OA 
HETATM   11  C   UNL     3      -8.168   6.132  71.164  1.00  0.00    -0.123 C  
HETATM   12  H1  UNL     3      -9.296   4.486  70.530  1.00  0.00     0.000 HD 
HETATM   13  H2  UNL     3     -10.003   5.484  71.785  1.00  0.00     0.000 HD 
HETATM   14  N   UNL     2     -11.143   8.160  72.483  1.00  0.00    -0.361 NA 
HETATM   15  N   UNL     2      -9.932   7.091  74.123  1.00  0.00    -0.411 NA 
HETATM   16  H2  UNL     2      -9.651   6.229  74.591  1.00  0.00     0.000 HD 
HETATM   17  H   UNL     2     -10.493   8.940  72.580  1.00  0.00     0.000 HD 
HETATM   18  N   UNL     3      -8.084   7.146  71.938  1.00  0.00    -0.097 NA 
HETATM   19  N   UNL     3      -7.236   5.853  70.225  1.00  0.00    -0.073 NA 
HETATM   20  H2  UNL     3      -8.857   7.334  72.576  1.00  0.00     0.000 HD 
HETATM   21  H1  UNL     2      -9.452   7.974  74.295  1.00  0.00     0.000 HD 
HETATM   22  H1  UNL     3      -7.283   7.778  71.950  1.00  0.00     0.000 HD 
HETATM   23  H   UNL     3      -7.462   5.342  69.371  1.00  0.00     0.000 HD 
ENDROOT
BRANCH  14  24
HETATM   24  C   UNL     2     -12.186   8.346  71.490  1.00  0.00    -0.302 C  
BRANCH  24  25
HETATM   25  C   UNL     2     -12.370   9.823  71.186  1.00  0.00    -0.451 A  
HETATM   26  I   UNL     2     -11.051  12.641  68.131  1.00  0.00    -0.368 I  
HETATM   27  C   UNL     2     -13.137  10.640  72.036  1.00  0.00    -0.501 A  
HETATM   28  C   UNL     2     -11.783  10.404  70.046  1.00  0.00    -0.366 A  
HETATM   29  C   UNL     2     -13.259  12.006  71.800  1.00  0.00    -0.421 A  
HETATM   30  C   UNL     2     -11.931  11.771  69.804  1.00  0.00    -0.322 A  
HETATM   31  C   UNL     2     -12.657  12.577  70.683  1.00  0.00    -0.237 A  
ENDBRANCH  24  25
ENDBRANCH  14  24
BRANCH  19  32
HETATM   32  C   UNL     3      -5.888   6.329  70.509  1.00  0.00    -0.019 C  
BRANCH  32  33
HETATM   33  C   UNL     3      -5.489   7.487  69.641  1.00  0.00    -0.023 A  
HETATM   34  C   UNL     3      -5.161   9.753  68.007  1.00  0.00    -0.039 A  
HETATM   35  C   UNL     3      -5.389   8.759  70.204  1.00  0.00    -0.028 A  
HETATM   36  I   UNL     3      -5.278  11.770  70.263  1.00  0.00    -0.140 I  
HETATM   37  C   UNL     3      -5.190   8.484  67.434  1.00  0.00    -0.034 A  
HETATM   38  C   UNL     3      -5.252   9.884  69.392  1.00  0.00    -0.035 A  
HETATM   39  C   UNL     3      -5.361   7.356  68.242  1.00  0.00    -0.025 A  
ENDBRANCH  32  33
ENDBRANCH  19  32
TORSDOF 4
ENDMDL
MODEL      113
REMARK 921   NORMALIZED FREE ENERGY PREDICTED BY IDOCK:   -5.38 KCAL/MOL
REMARK 922        TOTAL FREE ENERGY PREDICTED BY IDOCK:   -7.29 KCAL/MOL
REMARK 923 INTER-LIGAND FREE ENERGY PREDICTED BY IDOCK:   -6.49 KCAL/MOL
REMARK 924 INTRA-LIGAND FREE ENERGY PREDICTED BY IDOCK:   -0.80 KCAL/MOL
REMARK 927      BINDING AFFINITY PREDICTED BY RF-SCORE:    0.00 PKD
ROOT
HETATM    1  O   UNL     1     -10.432  13.741  69.443  1.00  0.00    -0.021 OA 
HETATM    2  S   UNL     1     -11.112  13.295  68.053  1.00  0.00    -0.270 S  
HETATM    3  N   UNL     2      -6.940  14.970  70.135  1.00  0.00    -0.190 NA 
HETATM    4  H1  UNL     2      -7.819  15.384  70.447  1.00  0.00     0.000 HD 
HETATM    5  H2  UNL     2      -6.372  14.391  70.754  1.00  0.00     0.000 HD 
HETATM    6  C   UNL     2      -6.569  15.227  68.871  1.00  0.00    -0.108 C  
HETATM    7  N   UNL     3      -7.972  12.275  69.078  1.00  0.00    -0.339 NA 
HETATM    8  O   UNL     1     -10.900  11.707  68.120  1.00  0.00    -0.196 OA 
HETATM    9  O   UNL     1     -12.521  13.600  68.134  1.00  0.00    -0.078 OA 
HETATM   10  O   UNL     1     -10.273  13.796  67.000  1.00  0.00    -0.250 OA 
HETATM   11  C   UNL     3      -7.646  11.954  67.807  1.00  0.00    -0.130 C  
HETATM   12  H1  UNL     3      -8.544  11.679  69.677  1.00  0.00     0.000 HD 
HETATM   13  H2  UNL     3      -7.629  13.157  69.458  1.00  0.00     0.000 HD 
HETATM   14  N   UNL     2      -7.449  15.778  68.027  1.00  0.00    -0.122 NA 
HETATM   15  N   UNL     2      -5.462  14.706  68.479  1.00  0.00    -0.095 NA 
HETATM   16  H2  UNL     2      -4.894  14.126  69.097  1.00  0.00     0.000 HD 
HETATM   17  H   UNL     2      -7.177  15.762  67.044  1.00  0.00     0.000 HD 
HETATM   18  N   UNL     3      -6.928  12.700  67.056  1.00  0.00    -0.368 NA 
HETATM   19  N   UNL     3      -8.219  10.812  67.365  1.00  0.00    -0.115 NA 
HETATM   20  H2  UNL     3      -6.585  13.583  67.436  1.00  0.00     0.000 HD 
HETATM   21  H1  UNL     2      -5.180  14.901  67.518  1.00  0.00     0.000 HD 
HETATM   22  H1  UNL     3      -6.682  12.459  66.096  1.00  0.00     0.000 HD 
HETATM   23  H   UNL     3      -9.078  10.443  67.772  1.00  0.00     0.000 HD 
ENDROOT
BRANCH  14  24
HETATM   24  C   UNL     2      -8.734  16.395  68.303  1.00  0.00    -0.201 C  
BRANCH  24  25
HETATM   25  C   UNL     2      -8.923  17.630  67.439  1.00  0.00    -0.231 A  
HETATM   26  I   UNL     2      -6.409  20.254  65.028  1.00  0.00    -0.307 I  
HETATM   27  C   UNL     2     -10.194  18.212  67.287  1.00  0.00    -0.377 A  
HETATM   28  C   UNL     2      -7.833  18.215  66.766  1.00  0.00    -0.257 A  
HETATM   29  C   UNL     2     -10.367  19.380  66.550  1.00  0.00    -0.564 A  
HETATM   30  C   UNL     2      -8.019  19.373  66.008  1.00  0.00    -0.269 A  
HETATM   31  C   UNL     2      -9.279  19.964  65.907  1.00  0.00    -0.224 A  
ENDBRANCH  24  25
ENDBRANCH  14  24
BRANCH  19  32
HETATM   32  C   UNL     3      -7.532  10.142  66.268  1.00  0.00    -0.112 C  
BRANCH  32  33
HETATM   33  C   UNL     3      -8.200  10.368  64.943  1.00  0.00    -0.145 A  
HETATM   34  C   UNL     3      -9.707  10.464  62.571  1.00  0.00    -0.136 A  
HETATM   35  C   UNL     3      -9.404  11.070  64.896  1.00  0.00    -0.243 A  
HETATM   36  I   UNL     3     -12.030  12.007  63.753  1.00  0.00    -0.447 I  
HETATM   37  C   UNL     3      -8.473   9.818  62.581  1.00  0.00    -0.177 A  
HETATM   38  C   UNL     3     -10.163  11.095  63.727  1.00  0.00    -0.377 A  
HETATM   39  C   UNL     3      -7.725   9.762  63.761  1.00  0.00    -0.135 A  
ENDBRANCH  32  33
ENDBRANCH  19  32
TORSDOF 4
ENDMDL
MODEL      114
REMARK 921   NORMALIZED FREE ENERGY PREDICTED BY IDOCK:   -5.32 KCAL/MOL
REMARK 922        TOTAL FREE ENERGY PREDICTED BY IDOCK:   -7.21 KCAL/MOL
REMARK 923 INTER-LIGAND FREE ENERGY PREDICTED BY IDOCK:   -6.42 KCAL/MOL
REMARK 924 INTRA-LIGAND FREE ENERGY PREDICTED BY IDOCK:   -0.79 KCAL/MOL
REMARK 927      BINDING AFFINITY PREDICTED BY RF-SCORE:    0.00 PKD
ROOT
HETATM    1  O   UNL     1      -6.888  11.349  66.274  1.00  0.00    -0.063 OA 
HETATM    2  S   UNL     1      -6.752  10.440  67.597  1.00  0.00    -0.074 S  
HETATM    3  N   UNL     2      -9.961  12.791  64.645  1.00  0.00    -0.538 NA 
HETATM    4  H1  UNL     2      -9.092  13.275  64.872  1.00  0.00     0.000 HD 
HETATM    5  H2  UNL     2     -10.164  12.470  63.698  1.00  0.00     0.000 HD 
HETATM    6  C   UNL     2     -10.826  12.601  65.655  1.00  0.00    -0.274 C  
HETATM    7  N   UNL     3      -9.083   9.882  65.106  1.00  0.00    -0.193 NA 
HETATM    8  O   UNL     1      -6.713   8.976  66.944  1.00  0.00    -0.070 OA 
HETATM    9  O   UNL     1      -5.475  10.734  68.204  1.00  0.00    -0.037 OA 
HETATM   10  O   UNL     1      -7.992  10.558  68.313  1.00  0.00    -0.106 OA 
HETATM   11  C   UNL     3      -9.835   9.147  65.956  1.00  0.00    -0.272 C  
HETATM   12  H1  UNL     3      -8.251   9.522  64.639  1.00  0.00     0.000 HD 
HETATM   13  H2  UNL     3      -9.362  10.846  64.924  1.00  0.00     0.000 HD 
HETATM   14  N   UNL     2     -10.423  12.813  66.913  1.00  0.00    -0.240 NA 
HETATM   15  N   UNL     2     -11.920  11.992  65.368  1.00  0.00    -0.403 NA 
HETATM   16  H2  UNL     2     -12.123  11.670  64.422  1.00  0.00     0.000 HD 
HETATM   17  H   UNL     2     -11.052  12.462  67.635  1.00  0.00     0.000 HD 
HETATM   18  N   UNL     3     -10.878   9.598  66.541  1.00  0.00     0.040 NA 
HETATM   19  N   UNL     3      -9.337   7.914  66.202  1.00  0.00    -0.347 NA 
HETATM   20  H2  UNL     3     -11.158  10.562  66.359  1.00  0.00     0.000 HD 
HETATM   21  H1  UNL     2     -12.577  11.847  66.135  1.00  0.00     0.000 HD 
HETATM   22  H1  UNL     3     -11.445   9.043  67.182  1.00  0.00     0.000 HD 
HETATM   23  H   UNL     3      -8.347   7.696  66.088  1.00  0.00     0.000 HD 
ENDROOT
BRANCH  14  24
HETATM   24  C   UNL     2      -9.224  13.469  67.402  1.00  0.00    -0.223 C  
BRANCH  24  25
HETATM   25  C   UNL     2      -9.434  14.972  67.470  1.00  0.00    -0.203 A  
HETATM   26  I   UNL     2      -7.254  18.554  66.270  1.00  0.00    -0.283 I  
HETATM   27  C   UNL     2     -10.589  15.511  68.064  1.00  0.00    -0.270 A  
HETATM   28  C   UNL     2      -8.479  15.859  66.934  1.00  0.00    -0.275 A  
HETATM   29  C   UNL     2     -10.759  16.887  68.187  1.00  0.00    -0.375 A  
HETATM   30  C   UNL     2      -8.669  17.238  67.041  1.00  0.00    -0.231 A  
HETATM   31  C   UNL     2      -9.800  17.755  67.675  1.00  0.00    -0.299 A  
ENDBRANCH  24  25
ENDBRANCH  14  24
BRANCH  19  32
HETATM   32  C   UNL     3     -10.303   6.916  66.641  1.00  0.00    -0.144 C  
BRANCH  32  33
HETATM   33  C   UNL     3     -10.106   6.510  68.073  1.00  0.00    -0.168 A  
HETATM   34  C   UNL     3      -9.667   6.168  70.829  1.00  0.00    -0.205 A  
HETATM   35  C   UNL     3     -11.144   6.696  68.984  1.00  0.00    -0.318 A  
HETATM   36  I   UNL     3     -12.449   7.005  71.683  1.00  0.00    -0.304 I  
HETATM   37  C   UNL     3      -8.637   5.910  69.927  1.00  0.00    -0.129 A  
HETATM   38  C   UNL     3     -10.919   6.551  70.353  1.00  0.00    -0.298 A  
HETATM   39  C   UNL     3      -8.850   6.087  68.556  1.00  0.00    -0.112 A  
ENDBRANCH  32  33
ENDBRANCH  19  32
TORSDOF 4
ENDMDL
MODEL      115
REMARK 921   NORMALIZED FREE ENERGY PREDICTED BY IDOCK:   -5.32 KCAL/MOL
REMARK 922        TOTAL FREE ENERGY PREDICTED BY IDOCK:   -7.21 KCAL/MOL
REMARK 923 INTER-LIGAND FREE ENERGY PREDICTED BY IDOCK:   -7.17 KCAL/MOL
REMARK 924 INTRA-LIGAND FREE ENERGY PREDICTED BY IDOCK:   -0.03 KCAL/MOL
REMARK 927      BINDING AFFINITY PREDICTED BY RF-SCORE:    0.00 PKD
ROOT
HETATM    1  O   UNL     1     -11.619   7.634  70.265  1.00  0.00    -0.195 OA 
HETATM    2  S   UNL     1     -10.594   8.347  71.283  1.00  0.00    -0.237 S  
HETATM    3  N   UNL     2     -11.199   6.788  66.619  1.00  0.00    -0.626 NA 
HETATM    4  H1  UNL     2     -11.536   6.179  67.365  1.00  0.00     0.000 HD 
HETATM    5  H2  UNL     2     -11.840   7.248  65.972  1.00  0.00     0.000 HD 
HETATM    6  C   UNL     2      -9.869   6.954  66.532  1.00  0.00    -0.103 C  
HETATM    7  N   UNL     3     -11.242   9.490  68.085  1.00  0.00    -0.509 NA 
HETATM    8  O   UNL     1     -11.101   9.866  71.193  1.00  0.00    -0.350 OA 
HETATM    9  O   UNL     1     -10.854   7.828  72.605  1.00  0.00    -0.292 OA 
HETATM   10  O   UNL     1      -9.294   8.291  70.673  1.00  0.00    -0.151 OA 
HETATM   11  C   UNL     3     -10.092  10.198  68.090  1.00  0.00    -0.152 C  
HETATM   12  H1  UNL     3     -12.095   9.802  68.550  1.00  0.00     0.000 HD 
HETATM   13  H2  UNL     3     -11.259   8.597  67.593  1.00  0.00     0.000 HD 
HETATM   14  N   UNL     2      -9.088   6.539  67.536  1.00  0.00    -0.116 NA 
HETATM   15  N   UNL     2      -9.445   7.721  65.593  1.00  0.00    -0.369 NA 
HETATM   16  H2  UNL     2     -10.086   8.181  64.946  1.00  0.00     0.000 HD 
HETATM   17  H   UNL     2      -8.124   6.870  67.502  1.00  0.00     0.000 HD 
HETATM   18  N   UNL     3      -9.023   9.807  67.508  1.00  0.00    -0.131 NA 
HETATM   19  N   UNL     3     -10.142  11.321  68.842  1.00  0.00    -0.297 NA 
HETATM   20  H2  UNL     3      -9.039   8.914  67.015  1.00  0.00     0.000 HD 
HETATM   21  H1  UNL     2      -8.435   7.848  65.526  1.00  0.00     0.000 HD 
HETATM   22  H1  UNL     3      -8.154  10.341  67.512  1.00  0.00     0.000 HD 
HETATM   23  H   UNL     3     -10.804  11.430  69.610  1.00  0.00     0.000 HD 
ENDROOT
BRANCH  14  24
HETATM   24  C   UNL     2      -9.409   5.687  68.667  1.00  0.00    -0.123 C  
BRANCH  24  25
HETATM   25  C   UNL     2      -9.089   4.237  68.344  1.00  0.00    -0.172 A  
HETATM   26  I   UNL     2      -8.165   1.888  64.788  1.00  0.00    -0.087 I  
HETATM   27  C   UNL     2      -9.059   3.266  69.360  1.00  0.00    -0.201 A  
HETATM   28  C   UNL     2      -8.811   3.836  67.023  1.00  0.00    -0.137 A  
HETATM   29  C   UNL     2      -8.829   1.925  69.066  1.00  0.00    -0.135 A  
HETATM   30  C   UNL     2      -8.558   2.492  66.740  1.00  0.00    -0.112 A  
HETATM   31  C   UNL     2      -8.578   1.533  67.755  1.00  0.00    -0.101 A  
ENDBRANCH  24  25
ENDBRANCH  14  24
BRANCH  19  32
HETATM   32  C   UNL     3      -9.191  12.366  68.485  1.00  0.00    -0.076 C  
BRANCH  32  33
HETATM   33  C   UNL     3      -9.693  13.255  67.384  1.00  0.00    -0.221 A  
HETATM   34  C   UNL     3     -10.328  14.738  65.081  1.00  0.00    -0.439 A  
HETATM   35  C   UNL     3     -10.535  12.722  66.409  1.00  0.00    -0.265 A  
HETATM   36  I   UNL     3     -11.946  12.550  63.751  1.00  0.00    -0.681 I  
HETATM   37  C   UNL     3      -9.542  15.310  66.079  1.00  0.00    -0.372 A  
HETATM   38  C   UNL     3     -10.828  13.448  65.255  1.00  0.00    -0.309 A  
HETATM   39  C   UNL     3      -9.219  14.573  67.222  1.00  0.00    -0.213 A  
ENDBRANCH  32  33
ENDBRANCH  19  32
TORSDOF 4
ENDMDL
MODEL      116
REMARK 921   NORMALIZED FREE ENERGY PREDICTED BY IDOCK:   -5.31 KCAL/MOL
REMARK 922        TOTAL FREE ENERGY PREDICTED BY IDOCK:   -7.20 KCAL/MOL
REMARK 923 INTER-LIGAND FREE ENERGY PREDICTED BY IDOCK:   -6.48 KCAL/MOL
REMARK 924 INTRA-LIGAND FREE ENERGY PREDICTED BY IDOCK:   -0.72 KCAL/MOL
REMARK 927      BINDING AFFINITY PREDICTED BY RF-SCORE:    0.00 PKD
ROOT
HETATM    1  O   UNL     1      -6.956   9.041  69.323  1.00  0.00    -0.055 OA 
HETATM    2  S   UNL     1      -7.019  10.203  68.209  1.00  0.00    -0.071 S  
HETATM    3  N   UNL     2      -9.509   6.425  70.227  1.00  0.00    -0.161 NA 
HETATM    4  H1  UNL     2      -8.515   6.288  70.046  1.00  0.00     0.000 HD 
HETATM    5  H2  UNL     2      -9.880   6.466  71.177  1.00  0.00     0.000 HD 
HETATM    6  C   UNL     2     -10.306   6.549  69.153  1.00  0.00    -0.193 C  
HETATM    7  N   UNL     3      -9.595   9.493  70.402  1.00  0.00    -0.261 NA 
HETATM    8  O   UNL     1      -7.512  11.440  69.103  1.00  0.00    -0.114 OA 
HETATM    9  O   UNL     1      -5.673  10.445  67.747  1.00  0.00    -0.044 OA 
HETATM   10  O   UNL     1      -8.092   9.864  67.315  1.00  0.00    -0.112 OA 
HETATM   11  C   UNL     3     -10.476  10.124  69.594  1.00  0.00    -0.252 C  
HETATM   12  H1  UNL     3      -8.966   9.984  71.037  1.00  0.00     0.000 HD 
HETATM   13  H2  UNL     3      -9.558   8.474  70.374  1.00  0.00     0.000 HD 
HETATM   14  N   UNL     2      -9.757   6.736  67.947  1.00  0.00    -0.127 NA 
HETATM   15  N   UNL     2     -11.558   6.722  69.382  1.00  0.00    -0.624 NA 
HETATM   16  H2  UNL     2     -11.929   6.762  70.331  1.00  0.00     0.000 HD 
HETATM   17  H   UNL     2     -10.406   7.021  67.214  1.00  0.00     0.000 HD 
HETATM   18  N   UNL     3     -11.264   9.509  68.797  1.00  0.00    -0.466 NA 
HETATM   19  N   UNL     3     -10.389  11.473  69.636  1.00  0.00    -0.347 NA 
HETATM   20  H2  UNL     3     -11.228   8.490  68.770  1.00  0.00     0.000 HD 
HETATM   21  H1  UNL     2     -12.163   6.817  68.566  1.00  0.00     0.000 HD 
HETATM   22  H1  UNL     3     -11.929   9.985  68.187  1.00  0.00     0.000 HD 
HETATM   23  H   UNL     3      -9.537  11.953  69.925  1.00  0.00     0.000 HD 
ENDROOT
BRANCH  14  24
HETATM   24  C   UNL     2      -8.375   6.594  67.527  1.00  0.00    -0.121 C  
BRANCH  24  25
HETATM   25  C   UNL     2      -8.218   5.380  66.627  1.00  0.00    -0.108 A  
HETATM   26  I   UNL     2     -10.471   3.479  63.413  1.00  0.00    -0.202 I  
HETATM   27  C   UNL     2      -7.103   4.532  66.752  1.00  0.00    -0.074 A  
HETATM   28  C   UNL     2      -9.182   5.080  65.645  1.00  0.00    -0.161 A  
HETATM   29  C   UNL     2      -6.983   3.383  65.976  1.00  0.00    -0.061 A  
HETATM   30  C   UNL     2      -9.041   3.938  64.853  1.00  0.00    -0.141 A  
HETATM   31  C   UNL     2      -7.951   3.083  65.023  1.00  0.00    -0.082 A  
ENDBRANCH  24  25
ENDBRANCH  14  24
BRANCH  19  32
HETATM   32  C   UNL     3     -11.591  12.197  69.243  1.00  0.00    -0.318 C  
BRANCH  32  33
HETATM   33  C   UNL     3     -11.355  13.120  68.082  1.00  0.00    -0.328 A  
HETATM   34  C   UNL     3     -11.271  15.051  66.039  1.00  0.00    -0.310 A  
HETATM   35  C   UNL     3     -10.774  14.367  68.308  1.00  0.00    -0.246 A  
HETATM   36  I   UNL     3     -10.034  17.232  67.737  1.00  0.00    -0.347 I  
HETATM   37  C   UNL     3     -11.793  13.786  65.776  1.00  0.00    -0.392 A  
HETATM   38  C   UNL     3     -10.756  15.333  67.303  1.00  0.00    -0.311 A  
HETATM   39  C   UNL     3     -11.843  12.827  66.791  1.00  0.00    -0.452 A  
ENDBRANCH  32  33
ENDBRANCH  19  32
TORSDOF 4
ENDMDL
MODEL      117
REMARK 921   NORMALIZED FREE ENERGY PREDICTED BY IDOCK:   -5.31 KCAL/MOL
REMARK 922        TOTAL FREE ENERGY PREDICTED BY IDOCK:   -7.20 KCAL/MOL
REMARK 923 INTER-LIGAND FREE ENERGY PREDICTED BY IDOCK:   -6.48 KCAL/MOL
REMARK 924 INTRA-LIGAND FREE ENERGY PREDICTED BY IDOCK:   -0.71 KCAL/MOL
REMARK 927      BINDING AFFINITY PREDICTED BY RF-SCORE:    0.00 PKD
ROOT
HETATM    1  O   UNL     1      -7.307  10.969  67.803  1.00  0.00    -0.089 OA 
HETATM    2  S   UNL     1      -6.953  10.881  69.372  1.00  0.00    -0.130 S  
HETATM    3  N   UNL     2      -9.856   9.058  65.796  1.00  0.00    -0.461 NA 
HETATM    4  H1  UNL     2      -9.698  10.066  65.803  1.00  0.00     0.000 HD 
HETATM    5  H2  UNL     2      -9.492   8.464  65.051  1.00  0.00     0.000 HD 
HETATM    6  C   UNL     2     -10.570   8.553  66.815  1.00  0.00    -0.157 C  
HETATM    7  N   UNL     3      -7.365   8.121  67.332  1.00  0.00    -0.088 NA 
HETATM    8  O   UNL     1      -5.709   9.870  69.336  1.00  0.00    -0.038 OA 
HETATM    9  O   UNL     1      -6.505  12.186  69.796  1.00  0.00    -0.120 OA 
HETATM   10  O   UNL     1      -8.045  10.196  70.008  1.00  0.00    -0.166 OA 
HETATM   11  C   UNL     3      -7.575   7.337  68.412  1.00  0.00    -0.118 C  
HETATM   12  H1  UNL     3      -6.437   8.417  67.027  1.00  0.00     0.000 HD 
HETATM   13  H2  UNL     3      -8.174   8.433  66.796  1.00  0.00     0.000 HD 
HETATM   14  N   UNL     2     -10.816   9.317  67.885  1.00  0.00    -0.473 NA 
HETATM   15  N   UNL     2     -10.769   7.284  66.805  1.00  0.00    -0.511 NA 
HETATM   16  H2  UNL     2     -10.404   6.690  66.061  1.00  0.00     0.000 HD 
HETATM   17  H   UNL     2     -11.182   8.821  68.698  1.00  0.00     0.000 HD 
HETATM   18  N   UNL     3      -8.737   6.965  68.796  1.00  0.00    -0.130 NA 
HETATM   19  N   UNL     3      -6.452   7.049  69.108  1.00  0.00    -0.038 NA 
HETATM   20  H2  UNL     3      -9.547   7.276  68.259  1.00  0.00     0.000 HD 
HETATM   21  H1  UNL     2     -11.311   6.900  67.580  1.00  0.00     0.000 HD 
HETATM   22  H1  UNL     3      -8.896   6.373  69.611  1.00  0.00     0.000 HD 
HETATM   23  H   UNL     3      -5.623   7.643  69.071  1.00  0.00     0.000 HD 
ENDROOT
BRANCH  14  24
HETATM   24  C   UNL     2     -10.640  10.747  68.062  1.00  0.00    -0.207 C  
BRANCH  24  25
HETATM   25  C   UNL     2     -11.424  11.231  69.270  1.00  0.00    -0.369 A  
HETATM   26  I   UNL     2     -12.749  15.057  70.890  1.00  0.00    -0.509 I  
HETATM   27  C   UNL     2     -11.910  10.319  70.224  1.00  0.00    -0.372 A  
HETATM   28  C   UNL     2     -11.687  12.602  69.459  1.00  0.00    -0.374 A  
HETATM   29  C   UNL     2     -12.574  10.758  71.366  1.00  0.00    -0.516 A  
HETATM   30  C   UNL     2     -12.374  13.032  70.595  1.00  0.00    -0.310 A  
HETATM   31  C   UNL     2     -12.809  12.116  71.555  1.00  0.00    -0.394 A  
ENDBRANCH  24  25
ENDBRANCH  14  24
BRANCH  19  32
HETATM   32  C   UNL     3      -6.500   5.837  69.916  1.00  0.00    -0.038 C  
BRANCH  32  33
HETATM   33  C   UNL     3      -6.951   6.098  71.324  1.00  0.00    -0.072 A  
HETATM   34  C   UNL     3      -8.038   6.899  73.791  1.00  0.00    -0.129 A  
HETATM   35  C   UNL     3      -8.186   5.608  71.747  1.00  0.00    -0.119 A  
HETATM   36  I   UNL     3     -10.652   5.404  73.466  1.00  0.00    -0.325 I  
HETATM   37  C   UNL     3      -6.772   7.342  73.415  1.00  0.00    -0.066 A  
HETATM   38  C   UNL     3      -8.736   6.026  72.958  1.00  0.00    -0.122 A  
HETATM   39  C   UNL     3      -6.232   6.952  72.186  1.00  0.00    -0.042 A  
ENDBRANCH  32  33
ENDBRANCH  19  32
TORSDOF 4
ENDMDL
MODEL      118
REMARK 921   NORMALIZED FREE ENERGY PREDICTED BY IDOCK:   -5.29 KCAL/MOL
REMARK 922        TOTAL FREE ENERGY PREDICTED BY IDOCK:   -7.18 KCAL/MOL
REMARK 923 INTER-LIGAND FREE ENERGY PREDICTED BY IDOCK:   -7.04 KCAL/MOL
REMARK 924 INTRA-LIGAND FREE ENERGY PREDICTED BY IDOCK:   -0.14 KCAL/MOL
REMARK 927      BINDING AFFINITY PREDICTED BY RF-SCORE:    0.00 PKD
ROOT
HETATM    1  O   UNL     1     -12.894   8.471  70.624  1.00  0.00     0.194 OA 
HETATM    2  S   UNL     1     -12.593   9.382  71.918  1.00  0.00    -0.406 S  
HETATM    3  N   UNL     2     -10.876   8.010  67.478  1.00  0.00    -0.518 NA 
HETATM    4  H1  UNL     2     -11.285   7.285  68.067  1.00  0.00     0.000 HD 
HETATM    5  H2  UNL     2     -11.321   8.308  66.609  1.00  0.00     0.000 HD 
HETATM    6  C   UNL     2      -9.724   8.554  67.903  1.00  0.00    -0.162 C  
HETATM    7  N   UNL     3     -12.255  10.490  68.661  1.00  0.00    -0.762 NA 
HETATM    8  O   UNL     1     -13.438  10.696  71.555  1.00  0.00    -0.276 OA 
HETATM    9  O   UNL     1     -13.182   8.728  73.063  1.00  0.00    -0.292 OA 
HETATM   10  O   UNL     1     -11.202   9.737  71.863  1.00  0.00    -0.132 OA 
HETATM   11  C   UNL     3     -11.451  11.495  69.072  1.00  0.00    -0.291 C  
HETATM   12  H1  UNL     3     -13.271  10.517  68.742  1.00  0.00     0.000 HD 
HETATM   13  H2  UNL     3     -11.823   9.662  68.250  1.00  0.00     0.000 HD 
HETATM   14  N   UNL     2      -9.308   8.316  69.152  1.00  0.00    -0.151 NA 
HETATM   15  N   UNL     2      -9.210   9.467  67.160  1.00  0.00    -0.133 NA 
HETATM   16  H2  UNL     2      -9.654   9.765  66.291  1.00  0.00     0.000 HD 
HETATM   17  H   UNL     2      -8.544   8.910  69.475  1.00  0.00     0.000 HD 
HETATM   18  N   UNL     3     -10.177  11.462  68.972  1.00  0.00    -0.361 NA 
HETATM   19  N   UNL     3     -12.107  12.508  69.682  1.00  0.00    -0.251 NA 
HETATM   20  H2  UNL     3      -9.744  10.635  68.560  1.00  0.00     0.000 HD 
HETATM   21  H1  UNL     2      -8.335   9.880  67.483  1.00  0.00     0.000 HD 
HETATM   22  H1  UNL     3      -9.569  12.221  69.282  1.00  0.00     0.000 HD 
HETATM   23  H   UNL     3     -13.015  12.375  70.127  1.00  0.00     0.000 HD 
ENDROOT
BRANCH  14  24
HETATM   24  C   UNL     2      -9.781   7.339  70.115  1.00  0.00    -0.172 C  
BRANCH  24  25
HETATM   25  C   UNL     2      -8.821   7.244  71.288  1.00  0.00    -0.135 A  
HETATM   26  I   UNL     2      -7.341   4.128  73.957  1.00  0.00    -0.069 I  
HETATM   27  C   UNL     2      -8.163   8.389  71.772  1.00  0.00    -0.200 A  
HETATM   28  C   UNL     2      -8.565   6.009  71.913  1.00  0.00    -0.137 A  
HETATM   29  C   UNL     2      -7.331   8.323  72.886  1.00  0.00    -0.146 A  
HETATM   30  C   UNL     2      -7.710   5.947  73.016  1.00  0.00    -0.103 A  
HETATM   31  C   UNL     2      -7.101   7.102  73.511  1.00  0.00    -0.075 A  
ENDBRANCH  24  25
ENDBRANCH  14  24
BRANCH  19  32
HETATM   32  C   UNL     3     -11.435  13.800  69.665  1.00  0.00    -0.237 C  
BRANCH  32  33
HETATM   33  C   UNL     3     -11.066  14.242  68.278  1.00  0.00    -0.276 A  
HETATM   34  C   UNL     3     -10.529  15.453  65.797  1.00  0.00    -0.371 A  
HETATM   35  C   UNL     3      -9.891  14.966  68.082  1.00  0.00    -0.218 A  
HETATM   36  I   UNL     3      -7.959  16.797  66.669  1.00  0.00    -0.364 I  
HETATM   37  C   UNL     3     -11.673  14.674  65.955  1.00  0.00    -0.301 A  
HETATM   38  C   UNL     3      -9.638  15.588  66.860  1.00  0.00    -0.228 A  
HETATM   39  C   UNL     3     -11.947  14.077  67.189  1.00  0.00    -0.465 A  
ENDBRANCH  32  33
ENDBRANCH  19  32
TORSDOF 4
ENDMDL
MODEL      119
REMARK 921   NORMALIZED FREE ENERGY PREDICTED BY IDOCK:   -5.27 KCAL/MOL
REMARK 922        TOTAL FREE ENERGY PREDICTED BY IDOCK:   -7.15 KCAL/MOL
REMARK 923 INTER-LIGAND FREE ENERGY PREDICTED BY IDOCK:   -6.30 KCAL/MOL
REMARK 924 INTRA-LIGAND FREE ENERGY PREDICTED BY IDOCK:   -0.85 KCAL/MOL
REMARK 927      BINDING AFFINITY PREDICTED BY RF-SCORE:    0.00 PKD
ROOT
HETATM    1  O   UNL     1      -7.498   9.503  70.473  1.00  0.00    -0.130 OA 
HETATM    2  S   UNL     1      -7.010   9.382  68.943  1.00  0.00    -0.064 S  
HETATM    3  N   UNL     2     -10.823   8.644  72.018  1.00  0.00    -0.339 NA 
HETATM    4  H1  UNL     2      -9.895   8.377  72.349  1.00  0.00     0.000 HD 
HETATM    5  H2  UNL     2     -11.340   9.417  72.437  1.00  0.00     0.000 HD 
HETATM    6  C   UNL     2     -11.330   7.924  71.004  1.00  0.00    -0.274 C  
HETATM    7  N   UNL     3     -10.049  10.727  69.895  1.00  0.00    -0.401 NA 
HETATM    8  O   UNL     1      -7.284  10.876  68.428  1.00  0.00    -0.079 OA 
HETATM    9  O   UNL     1      -5.589   9.126  68.953  1.00  0.00    -0.037 OA 
HETATM   10  O   UNL     1      -7.945   8.519  68.274  1.00  0.00    -0.111 OA 
HETATM   11  C   UNL     3     -10.538  10.538  68.650  1.00  0.00    -0.200 C  
HETATM   12  H1  UNL     3      -9.437  11.504  70.145  1.00  0.00     0.000 HD 
HETATM   13  H2  UNL     3     -10.303  10.058  70.622  1.00  0.00     0.000 HD 
HETATM   14  N   UNL     2     -10.532   7.090  70.328  1.00  0.00    -0.204 NA 
HETATM   15  N   UNL     2     -12.498   8.260  70.588  1.00  0.00    -0.448 NA 
HETATM   16  H2  UNL     2     -13.015   9.033  71.007  1.00  0.00     0.000 HD 
HETATM   17  H   UNL     2     -10.920   6.730  69.455  1.00  0.00     0.000 HD 
HETATM   18  N   UNL     3     -11.305   9.564  68.336  1.00  0.00    -0.457 NA 
HETATM   19  N   UNL     3     -10.075  11.423  67.738  1.00  0.00    -0.178 NA 
HETATM   20  H2  UNL     3     -11.561   8.895  69.063  1.00  0.00     0.000 HD 
HETATM   21  H1  UNL     2     -12.884   7.713  69.817  1.00  0.00     0.000 HD 
HETATM   22  H1  UNL     3     -11.675   9.421  67.397  1.00  0.00     0.000 HD 
HETATM   23  H   UNL     3      -9.191  11.917  67.862  1.00  0.00     0.000 HD 
ENDROOT
BRANCH  14  24
HETATM   24  C   UNL     2      -9.198   6.620  70.651  1.00  0.00    -0.159 C  
BRANCH  24  25
HETATM   25  C   UNL     2      -9.175   5.104  70.733  1.00  0.00    -0.188 A  
HETATM   26  I   UNL     2      -8.519   1.770  67.999  1.00  0.00    -0.125 I  
HETATM   27  C   UNL     2      -9.431   4.447  71.949  1.00  0.00    -0.201 A  
HETATM   28  C   UNL     2      -8.893   4.323  69.595  1.00  0.00    -0.134 A  
HETATM   29  C   UNL     2      -9.476   3.057  72.021  1.00  0.00    -0.204 A  
HETATM   30  C   UNL     2      -8.916   2.930  69.681  1.00  0.00    -0.106 A  
HETATM   31  C   UNL     2      -9.218   2.294  70.886  1.00  0.00    -0.192 A  
ENDBRANCH  24  25
ENDBRANCH  14  24
BRANCH  19  32
HETATM   32  C   UNL     3     -10.917  11.626  66.567  1.00  0.00    -0.299 C  
BRANCH  32  33
HETATM   33  C   UNL     3     -10.270  11.149  65.299  1.00  0.00    -0.337 A  
HETATM   34  C   UNL     3      -8.750  10.545  63.011  1.00  0.00    -0.207 A  
HETATM   35  C   UNL     3      -9.202  10.255  65.372  1.00  0.00    -0.236 A  
HETATM   36  I   UNL     3      -6.751   8.772  64.437  1.00  0.00    -0.070 I  
HETATM   37  C   UNL     3      -9.856  11.386  62.906  1.00  0.00    -0.314 A  
HETATM   38  C   UNL     3      -8.434   9.976  64.243  1.00  0.00    -0.175 A  
HETATM   39  C   UNL     3     -10.609  11.694  64.043  1.00  0.00    -0.426 A  
ENDBRANCH  32  33
ENDBRANCH  19  32
TORSDOF 4
ENDMDL
MODEL      120
REMARK 921   NORMALIZED FREE ENERGY PREDICTED BY IDOCK:   -5.25 KCAL/MOL
REMARK 922        TOTAL FREE ENERGY PREDICTED BY IDOCK:   -7.13 KCAL/MOL
REMARK 923 INTER-LIGAND FREE ENERGY PREDICTED BY IDOCK:   -6.48 KCAL/MOL
REMARK 924 INTRA-LIGAND FREE ENERGY PREDICTED BY IDOCK:   -0.65 KCAL/MOL
REMARK 927      BINDING AFFINITY PREDICTED BY RF-SCORE:    0.00 PKD
ROOT
HETATM    1  O   UNL     1     -11.498  10.235  67.239  1.00  0.00    -0.249 OA 
HETATM    2  S   UNL     1     -11.156  11.334  68.365  1.00  0.00    -0.267 S  
HETATM    3  N   UNL     2      -9.862   9.607  63.905  1.00  0.00    -0.349 NA 
HETATM    4  H1  UNL     2     -10.091   8.922  64.625  1.00  0.00     0.000 HD 
HETATM    5  H2  UNL     2     -10.451   9.736  63.082  1.00  0.00     0.000 HD 
HETATM    6  C   UNL     2      -8.747  10.330  64.095  1.00  0.00    -0.204 C  
HETATM    7  N   UNL     3     -11.392  12.042  64.990  1.00  0.00    -0.324 NA 
HETATM    8  O   UNL     1     -12.207  12.483  67.983  1.00  0.00    -0.310 OA 
HETATM    9  O   UNL     1     -11.499  10.771  69.649  1.00  0.00    -0.254 OA 
HETATM   10  O   UNL     1      -9.843  11.838  68.070  1.00  0.00    -0.173 OA 
HETATM   11  C   UNL     3     -10.682  13.179  65.164  1.00  0.00    -0.315 C  
HETATM   12  H1  UNL     3     -12.384  11.962  65.213  1.00  0.00     0.000 HD 
HETATM   13  H2  UNL     3     -10.911  11.224  64.616  1.00  0.00     0.000 HD 
HETATM   14  N   UNL     2      -8.145  10.306  65.290  1.00  0.00    -0.148 NA 
HETATM   15  N   UNL     2      -8.459  11.193  63.188  1.00  0.00    -0.422 NA 
HETATM   16  H2  UNL     2      -9.047  11.322  62.365  1.00  0.00     0.000 HD 
HETATM   17  H   UNL     2      -7.431  11.021  65.431  1.00  0.00     0.000 HD 
HETATM   18  N   UNL     3      -9.438  13.281  64.885  1.00  0.00    -0.236 NA 
HETATM   19  N   UNL     3     -11.382  14.179  65.746  1.00  0.00    -0.312 NA 
HETATM   20  H2  UNL     3      -8.957  12.463  64.511  1.00  0.00     0.000 HD 
HETATM   21  H1  UNL     2      -7.612  11.743  63.332  1.00  0.00     0.000 HD 
HETATM   22  H1  UNL     3      -8.902  14.138  65.017  1.00  0.00     0.000 HD 
HETATM   23  H   UNL     3     -12.199  14.001  66.329  1.00  0.00     0.000 HD 
ENDROOT
BRANCH  14  24
HETATM   24  C   UNL     2      -8.355   9.414  66.415  1.00  0.00    -0.115 C  
BRANCH  24  25
HETATM   25  C   UNL     2      -7.329   8.295  66.402  1.00  0.00    -0.080 A  
HETATM   26  I   UNL     2      -5.434   5.671  69.325  1.00  0.00    -0.009 I  
HETATM   27  C   UNL     2      -6.724   7.889  65.200  1.00  0.00    -0.051 A  
HETATM   28  C   UNL     2      -6.965   7.636  67.593  1.00  0.00    -0.081 A  
HETATM   29  C   UNL     2      -5.736   6.908  65.187  1.00  0.00    -0.032 A  
HETATM   30  C   UNL     2      -5.990   6.636  67.568  1.00  0.00    -0.020 A  
HETATM   31  C   UNL     2      -5.367   6.277  66.371  1.00  0.00    -0.013 A  
ENDBRANCH  24  25
ENDBRANCH  14  24
BRANCH  19  32
HETATM   32  C   UNL     3     -10.895  15.528  65.486  1.00  0.00    -0.361 C  
BRANCH  32  33
HETATM   33  C   UNL     3     -10.485  16.246  66.739  1.00  0.00    -0.287 A  
HETATM   34  C   UNL     3     -10.120  17.740  69.093  1.00  0.00    -0.220 A  
HETATM   35  C   UNL     3     -10.842  15.715  67.978  1.00  0.00    -0.308 A  
HETATM   36  I   UNL     3     -11.388  15.704  70.941  1.00  0.00    -0.405 I  
HETATM   37  C   UNL     3      -9.693  18.257  67.872  1.00  0.00    -0.314 A  
HETATM   38  C   UNL     3     -10.684  16.467  69.141  1.00  0.00    -0.317 A  
HETATM   39  C   UNL     3      -9.880  17.520  66.698  1.00  0.00    -0.308 A  
ENDBRANCH  32  33
ENDBRANCH  19  32
TORSDOF 4
ENDMDL
MODEL      121
REMARK 921   NORMALIZED FREE ENERGY PREDICTED BY IDOCK:   -5.25 KCAL/MOL
REMARK 922        TOTAL FREE ENERGY PREDICTED BY IDOCK:   -7.12 KCAL/MOL
REMARK 923 INTER-LIGAND FREE ENERGY PREDICTED BY IDOCK:   -7.34 KCAL/MOL
REMARK 924 INTRA-LIGAND FREE ENERGY PREDICTED BY IDOCK:    0.22 KCAL/MOL
REMARK 927      BINDING AFFINITY PREDICTED BY RF-SCORE:    0.00 PKD
ROOT
HETATM    1  O   UNL     1     -10.831  13.461  66.755  1.00  0.00    -0.279 OA 
HETATM    2  S   UNL     1      -9.950  12.186  67.194  1.00  0.00    -0.201 S  
HETATM    3  N   UNL     2     -12.110  16.337  68.822  1.00  0.00    -0.146 NA 
HETATM    4  H1  UNL     2     -11.622  16.382  67.928  1.00  0.00     0.000 HD 
HETATM    5  H2  UNL     2     -13.124  16.432  68.886  1.00  0.00     0.000 HD 
HETATM    6  C   UNL     2     -11.350  16.147  69.913  1.00  0.00    -0.317 C  
HETATM    7  N   UNL     3     -12.702  13.324  68.949  1.00  0.00     0.402 NA 
HETATM    8  O   UNL     1     -11.105  11.098  67.429  1.00  0.00    -0.273 OA 
HETATM    9  O   UNL     1      -9.142  11.798  66.063  1.00  0.00    -0.212 OA 
HETATM   10  O   UNL     1      -9.383  12.494  68.478  1.00  0.00    -0.177 OA 
HETATM   11  C   UNL     3     -12.286  12.667  70.055  1.00  0.00    -0.197 C  
HETATM   12  H1  UNL     3     -13.178  12.866  68.172  1.00  0.00     0.000 HD 
HETATM   13  H2  UNL     3     -12.532  14.328  68.889  1.00  0.00     0.000 HD 
HETATM   14  N   UNL     2     -10.071  15.784  69.767  1.00  0.00    -0.286 NA 
HETATM   15  N   UNL     2     -11.965  16.090  71.040  1.00  0.00    -0.521 NA 
HETATM   16  H2  UNL     2     -12.979  16.186  71.103  1.00  0.00     0.000 HD 
HETATM   17  H   UNL     2      -9.610  15.463  70.619  1.00  0.00     0.000 HD 
HETATM   18  N   UNL     3     -11.690  13.241  71.030  1.00  0.00    -0.207 NA 
HETATM   19  N   UNL     3     -12.477  11.330  70.003  1.00  0.00    -0.223 NA 
HETATM   20  H2  UNL     3     -11.519  14.245  70.971  1.00  0.00     0.000 HD 
HETATM   21  H1  UNL     2     -11.388  15.946  71.869  1.00  0.00     0.000 HD 
HETATM   22  H1  UNL     3     -11.375  12.746  71.864  1.00  0.00     0.000 HD 
HETATM   23  H   UNL     3     -12.557  10.827  69.119  1.00  0.00     0.000 HD 
ENDROOT
BRANCH  14  24
HETATM   24  C   UNL     2      -9.240  15.780  68.577  1.00  0.00    -0.198 C  
BRANCH  24  25
HETATM   25  C   UNL     2      -8.973  17.201  68.113  1.00  0.00    -0.240 A  
HETATM   26  I   UNL     2      -6.360  19.179  65.235  1.00  0.00    -0.206 I  
HETATM   27  C   UNL     2      -9.667  18.284  68.680  1.00  0.00    -0.379 A  
HETATM   28  C   UNL     2      -8.029  17.465  67.101  1.00  0.00    -0.226 A  
HETATM   29  C   UNL     2      -9.383  19.595  68.306  1.00  0.00    -0.426 A  
HETATM   30  C   UNL     2      -7.767  18.781  66.715  1.00  0.00    -0.241 A  
HETATM   31  C   UNL     2      -8.433  19.848  67.322  1.00  0.00    -0.375 A  
ENDBRANCH  24  25
ENDBRANCH  14  24
BRANCH  19  32
HETATM   32  C   UNL     3     -12.560  10.651  71.290  1.00  0.00    -0.427 C  
BRANCH  32  33
HETATM   33  C   UNL     3     -12.235   9.188  71.195  1.00  0.00    -0.350 A  
HETATM   34  C   UNL     3     -11.866   6.453  70.660  1.00  0.00    -0.318 A  
HETATM   35  C   UNL     3     -11.240   8.767  70.315  1.00  0.00    -0.212 A  
HETATM   36  I   UNL     3      -9.694   6.843  68.585  1.00  0.00    -0.150 I  
HETATM   37  C   UNL     3     -12.818   6.853  71.594  1.00  0.00    -0.383 A  
HETATM   38  C   UNL     3     -11.074   7.411  70.030  1.00  0.00    -0.220 A  
HETATM   39  C   UNL     3     -13.010   8.213  71.857  1.00  0.00    -0.356 A  
ENDBRANCH  32  33
ENDBRANCH  19  32
TORSDOF 4
ENDMDL
MODEL      122
REMARK 921   NORMALIZED FREE ENERGY PREDICTED BY IDOCK:   -5.24 KCAL/MOL
REMARK 922        TOTAL FREE ENERGY PREDICTED BY IDOCK:   -7.12 KCAL/MOL
REMARK 923 INTER-LIGAND FREE ENERGY PREDICTED BY IDOCK:   -6.46 KCAL/MOL
REMARK 924 INTRA-LIGAND FREE ENERGY PREDICTED BY IDOCK:   -0.66 KCAL/MOL
REMARK 927      BINDING AFFINITY PREDICTED BY RF-SCORE:    0.00 PKD
ROOT
HETATM    1  O   UNL     1      -7.333   9.603  66.044  1.00  0.00    -0.095 OA 
HETATM    2  S   UNL     1      -6.950   8.989  67.482  1.00  0.00    -0.079 S  
HETATM    3  N   UNL     2     -10.300  11.684  65.022  1.00  0.00    -0.267 NA 
HETATM    4  H1  UNL     2      -9.316  11.863  64.822  1.00  0.00     0.000 HD 
HETATM    5  H2  UNL     2     -10.922  11.273  64.326  1.00  0.00     0.000 HD 
HETATM    6  C   UNL     2     -10.736  12.018  66.248  1.00  0.00    -0.267 C  
HETATM    7  N   UNL     3     -10.108   8.808  66.088  1.00  0.00    -0.424 NA 
HETATM    8  O   UNL     1      -7.545   7.507  67.337  1.00  0.00    -0.103 OA 
HETATM    9  O   UNL     1      -5.510   8.927  67.566  1.00  0.00    -0.034 OA 
HETATM   10  O   UNL     1      -7.749   9.680  68.456  1.00  0.00    -0.080 OA 
HETATM   11  C   UNL     3     -10.646   8.572  67.305  1.00  0.00    -0.245 C  
HETATM   12  H1  UNL     3      -9.639   8.090  65.534  1.00  0.00     0.000 HD 
HETATM   13  H2  UNL     3     -10.172   9.751  65.705  1.00  0.00     0.000 HD 
HETATM   14  N   UNL     2      -9.847  12.322  67.201  1.00  0.00    -0.201 NA 
HETATM   15  N   UNL     2     -11.976  11.793  66.499  1.00  0.00    -0.476 NA 
HETATM   16  H2  UNL     2     -12.598  11.381  65.803  1.00  0.00     0.000 HD 
HETATM   17  H   UNL     2     -10.224  12.368  68.147  1.00  0.00     0.000 HD 
HETATM   18  N   UNL     3     -11.233   9.471  68.000  1.00  0.00    -0.509 NA 
HETATM   19  N   UNL     3     -10.433   7.319  67.766  1.00  0.00    -0.216 NA 
HETATM   20  H2  UNL     3     -11.298  10.414  67.617  1.00  0.00     0.000 HD 
HETATM   21  H1  UNL     2     -12.307  12.047  67.430  1.00  0.00     0.000 HD 
HETATM   22  H1  UNL     3     -11.640   9.294  68.919  1.00  0.00     0.000 HD 
HETATM   23  H   UNL     3      -9.654   6.747  67.441  1.00  0.00     0.000 HD 
ENDROOT
BRANCH  14  24
HETATM   24  C   UNL     2      -8.426  12.594  67.088  1.00  0.00    -0.186 C  
BRANCH  24  25
HETATM   25  C   UNL     2      -8.108  13.979  67.624  1.00  0.00    -0.180 A  
HETATM   26  I   UNL     2     -10.226  17.753  68.165  1.00  0.00    -0.390 I  
HETATM   27  C   UNL     2      -6.822  14.288  68.099  1.00  0.00    -0.126 A  
HETATM   28  C   UNL     2      -9.097  14.982  67.663  1.00  0.00    -0.182 A  
HETATM   29  C   UNL     2      -6.504  15.572  68.533  1.00  0.00    -0.103 A  
HETATM   30  C   UNL     2      -8.776  16.261  68.123  1.00  0.00    -0.182 A  
HETATM   31  C   UNL     2      -7.481  16.563  68.547  1.00  0.00    -0.193 A  
ENDBRANCH  24  25
ENDBRANCH  14  24
BRANCH  19  32
HETATM   32  C   UNL     3     -11.387   6.838  68.757  1.00  0.00    -0.021 C  
BRANCH  32  33
HETATM   33  C   UNL     3     -10.739   6.010  69.829  1.00  0.00    -0.399 A  
HETATM   34  C   UNL     3      -9.862   4.195  71.789  1.00  0.00    -0.252 A  
HETATM   35  C   UNL     3     -10.016   4.873  69.469  1.00  0.00    -0.295 A  
HETATM   36  I   UNL     3      -8.680   2.198  69.843  1.00  0.00    -0.147 I  
HETATM   37  C   UNL     3     -10.522   5.360  72.171  1.00  0.00    -0.273 A  
HETATM   38  C   UNL     3      -9.603   3.961  70.440  1.00  0.00    -0.196 A  
HETATM   39  C   UNL     3     -10.966   6.261  71.198  1.00  0.00    -0.336 A  
ENDBRANCH  32  33
ENDBRANCH  19  32
TORSDOF 4
ENDMDL
MODEL      123
REMARK 921   NORMALIZED FREE ENERGY PREDICTED BY IDOCK:   -5.23 KCAL/MOL
REMARK 922        TOTAL FREE ENERGY PREDICTED BY IDOCK:   -7.10 KCAL/MOL
REMARK 923 INTER-LIGAND FREE ENERGY PREDICTED BY IDOCK:   -6.47 KCAL/MOL
REMARK 924 INTRA-LIGAND FREE ENERGY PREDICTED BY IDOCK:   -0.63 KCAL/MOL
REMARK 927      BINDING AFFINITY PREDICTED BY RF-SCORE:    0.00 PKD
ROOT
HETATM    1  O   UNL     1      -7.061   8.106  69.712  1.00  0.00    -0.057 OA 
HETATM    2  S   UNL     1      -6.813   8.860  68.311  1.00  0.00    -0.066 S  
HETATM    3  N   UNL     2     -10.116   6.300  70.971  1.00  0.00    -0.182 NA 
HETATM    4  H1  UNL     2      -9.151   5.970  70.979  1.00  0.00     0.000 HD 
HETATM    5  H2  UNL     2     -10.557   6.687  71.806  1.00  0.00     0.000 HD 
HETATM    6  C   UNL     2     -10.777   6.199  69.807  1.00  0.00    -0.310 C  
HETATM    7  N   UNL     3      -9.661   9.248  70.231  1.00  0.00    -0.217 NA 
HETATM    8  O   UNL     1      -7.152  10.371  68.727  1.00  0.00    -0.068 OA 
HETATM    9  O   UNL     1      -5.409   8.749  67.992  1.00  0.00    -0.034 OA 
HETATM   10  O   UNL     1      -7.845   8.420  67.412  1.00  0.00    -0.097 OA 
HETATM   11  C   UNL     3     -10.336   9.718  69.159  1.00  0.00    -0.211 C  
HETATM   12  H1  UNL     3      -9.012   9.816  70.778  1.00  0.00     0.000 HD 
HETATM   13  H2  UNL     3      -9.806   8.277  70.507  1.00  0.00     0.000 HD 
HETATM   14  N   UNL     2     -10.098   5.920  68.688  1.00  0.00    -0.154 NA 
HETATM   15  N   UNL     2     -11.993   6.614  69.797  1.00  0.00    -0.618 NA 
HETATM   16  H2  UNL     2     -12.434   7.001  70.632  1.00  0.00     0.000 HD 
HETATM   17  H   UNL     2     -10.617   6.054  67.820  1.00  0.00     0.000 HD 
HETATM   18  N   UNL     3     -11.149   9.008  68.474  1.00  0.00    -0.450 NA 
HETATM   19  N   UNL     3     -10.011  10.986  68.819  1.00  0.00    -0.202 NA 
HETATM   20  H2  UNL     3     -11.295   8.037  68.750  1.00  0.00     0.000 HD 
HETATM   21  H1  UNL     2     -12.496   6.537  68.913  1.00  0.00     0.000 HD 
HETATM   22  H1  UNL     3     -11.659   9.362  67.664  1.00  0.00     0.000 HD 
HETATM   23  H   UNL     3      -9.115  11.403  69.072  1.00  0.00     0.000 HD 
ENDROOT
BRANCH  14  24
HETATM   24  C   UNL     2      -8.733   5.455  68.526  1.00  0.00    -0.094 C  
BRANCH  24  25
HETATM   25  C   UNL     2      -8.666   4.369  67.466  1.00  0.00    -0.112 A  
HETATM   26  I   UNL     2     -10.366   3.661  63.513  1.00  0.00    -0.197 I  
HETATM   27  C   UNL     2      -7.901   3.208  67.675  1.00  0.00    -0.075 A  
HETATM   28  C   UNL     2      -9.364   4.503  66.250  1.00  0.00    -0.151 A  
HETATM   29  C   UNL     2      -7.885   2.179  66.737  1.00  0.00    -0.071 A  
HETATM   30  C   UNL     2      -9.323   3.477  65.304  1.00  0.00    -0.157 A  
HETATM   31  C   UNL     2      -8.595   2.311  65.548  1.00  0.00    -0.112 A  
ENDBRANCH  24  25
ENDBRANCH  14  24
BRANCH  19  32
HETATM   32  C   UNL     3     -11.022  11.719  68.066  1.00  0.00    -0.225 C  
BRANCH  32  33
HETATM   33  C   UNL     3     -11.373  13.034  68.699  1.00  0.00    -0.329 A  
HETATM   34  C   UNL     3     -12.428  15.426  69.735  1.00  0.00    -0.219 A  
HETATM   35  C   UNL     3     -12.027  13.046  69.931  1.00  0.00    -0.381 A  
HETATM   36  I   UNL     3     -13.686  14.164  72.184  1.00  0.00    -0.684 I  
HETATM   37  C   UNL     3     -11.717  15.444  68.537  1.00  0.00    -0.355 A  
HETATM   38  C   UNL     3     -12.573  14.227  70.431  1.00  0.00    -0.343 A  
HETATM   39  C   UNL     3     -11.198  14.256  68.016  1.00  0.00    -0.300 A  
ENDBRANCH  32  33
ENDBRANCH  19  32
TORSDOF 4
ENDMDL
MODEL      124
REMARK 921   NORMALIZED FREE ENERGY PREDICTED BY IDOCK:   -5.22 KCAL/MOL
REMARK 922        TOTAL FREE ENERGY PREDICTED BY IDOCK:   -7.09 KCAL/MOL
REMARK 923 INTER-LIGAND FREE ENERGY PREDICTED BY IDOCK:   -6.43 KCAL/MOL
REMARK 924 INTRA-LIGAND FREE ENERGY PREDICTED BY IDOCK:   -0.66 KCAL/MOL
REMARK 927      BINDING AFFINITY PREDICTED BY RF-SCORE:    0.00 PKD
ROOT
HETATM    1  O   UNL     1      -6.865  11.731  67.242  1.00  0.00    -0.110 OA 
HETATM    2  S   UNL     1      -6.580  11.478  68.806  1.00  0.00    -0.077 S  
HETATM    3  N   UNL     2      -9.630  13.673  65.578  1.00  0.00    -0.515 NA 
HETATM    4  H1  UNL     2      -8.628  13.732  65.391  1.00  0.00     0.000 HD 
HETATM    5  H2  UNL     2     -10.257  13.140  64.975  1.00  0.00     0.000 HD 
HETATM    6  C   UNL     2     -10.081  14.334  66.656  1.00  0.00    -0.273 C  
HETATM    7  N   UNL     3      -9.692  11.154  67.338  1.00  0.00    -0.172 NA 
HETATM    8  O   UNL     1      -7.280  10.050  69.005  1.00  0.00    -0.068 OA 
HETATM    9  O   UNL     1      -5.152  11.346  68.978  1.00  0.00    -0.044 OA 
HETATM   10  O   UNL     1      -7.358  12.443  69.533  1.00  0.00     0.208 OA 
HETATM   11  C   UNL     3     -10.289  11.270  68.545  1.00  0.00    -0.203 C  
HETATM   12  H1  UNL     3      -9.261  10.291  67.007  1.00  0.00     0.000 HD 
HETATM   13  H2  UNL     3      -9.672  11.972  66.728  1.00  0.00     0.000 HD 
HETATM   14  N   UNL     2      -9.205  14.811  67.548  1.00  0.00    -0.193 NA 
HETATM   15  N   UNL     2     -11.342  14.260  66.890  1.00  0.00    -0.329 NA 
HETATM   16  H2  UNL     2     -11.969  13.727  66.288  1.00  0.00     0.000 HD 
HETATM   17  H   UNL     2      -9.610  15.120  68.432  1.00  0.00     0.000 HD 
HETATM   18  N   UNL     3     -10.829  12.351  68.961  1.00  0.00    -0.374 NA 
HETATM   19  N   UNL     3     -10.187  10.163  69.315  1.00  0.00    -0.208 NA 
HETATM   20  H2  UNL     3     -10.810  13.169  68.351  1.00  0.00     0.000 HD 
HETATM   21  H1  UNL     2     -11.685  14.762  67.710  1.00  0.00     0.000 HD 
HETATM   22  H1  UNL     3     -11.280  12.439  69.872  1.00  0.00     0.000 HD 
HETATM   23  H   UNL     3      -9.443   9.478  69.185  1.00  0.00     0.000 HD 
ENDROOT
BRANCH  14  24
HETATM   24  C   UNL     2      -7.764  14.953  67.445  1.00  0.00    -0.204 C  
BRANCH  24  25
HETATM   25  C   UNL     2      -7.384  16.420  67.335  1.00  0.00    -0.184 A  
HETATM   26  I   UNL     2      -5.874  19.531  69.992  1.00  0.00    -0.296 I  
HETATM   27  C   UNL     2      -7.511  17.105  66.114  1.00  0.00    -0.295 A  
HETATM   28  C   UNL     2      -6.891  17.123  68.452  1.00  0.00    -0.191 A  
HETATM   29  C   UNL     2      -7.225  18.464  66.020  1.00  0.00    -0.290 A  
HETATM   30  C   UNL     2      -6.584  18.481  68.342  1.00  0.00    -0.226 A  
HETATM   31  C   UNL     2      -6.760  19.157  67.133  1.00  0.00    -0.205 A  
ENDBRANCH  24  25
ENDBRANCH  14  24
BRANCH  19  32
HETATM   32  C   UNL     3     -11.208  10.011  70.344  1.00  0.00    -0.323 C  
BRANCH  32  33
HETATM   33  C   UNL     3     -11.204   8.645  70.966  1.00  0.00    -0.321 A  
HETATM   34  C   UNL     3     -11.280   5.941  71.735  1.00  0.00    -0.311 A  
HETATM   35  C   UNL     3     -10.074   7.838  70.834  1.00  0.00    -0.195 A  
HETATM   36  I   UNL     3      -8.468   5.288  70.817  1.00  0.00    -0.142 I  
HETATM   37  C   UNL     3     -12.395   6.750  71.938  1.00  0.00    -0.369 A  
HETATM   38  C   UNL     3     -10.121   6.491  71.191  1.00  0.00    -0.183 A  
HETATM   39  C   UNL     3     -12.364   8.093  71.550  1.00  0.00    -0.335 A  
ENDBRANCH  32  33
ENDBRANCH  19  32
TORSDOF 4
ENDMDL
MODEL      125
REMARK 921   NORMALIZED FREE ENERGY PREDICTED BY IDOCK:   -5.20 KCAL/MOL
REMARK 922        TOTAL FREE ENERGY PREDICTED BY IDOCK:   -7.06 KCAL/MOL
REMARK 923 INTER-LIGAND FREE ENERGY PREDICTED BY IDOCK:   -6.64 KCAL/MOL
REMARK 924 INTRA-LIGAND FREE ENERGY PREDICTED BY IDOCK:   -0.42 KCAL/MOL
REMARK 927      BINDING AFFINITY PREDICTED BY RF-SCORE:    0.00 PKD
ROOT
HETATM    1  O   UNL     1     -11.962   7.987  70.349  1.00  0.00    -0.036 OA 
HETATM    2  S   UNL     1     -10.934   8.731  71.340  1.00  0.00    -0.318 S  
HETATM    3  N   UNL     2     -11.526   6.948  66.756  1.00  0.00    -0.541 NA 
HETATM    4  H1  UNL     2     -11.882   6.385  67.528  1.00  0.00     0.000 HD 
HETATM    5  H2  UNL     2     -12.151   7.387  66.080  1.00  0.00     0.000 HD 
HETATM    6  C   UNL     2     -10.192   7.083  66.674  1.00  0.00    -0.148 C  
HETATM    7  N   UNL     3     -11.528   9.721  68.082  1.00  0.00    -0.512 NA 
HETATM    8  O   UNL     1     -11.408  10.253  71.167  1.00  0.00    -0.314 OA 
HETATM    9  O   UNL     1     -11.216   8.285  72.684  1.00  0.00    -0.378 OA 
HETATM   10  O   UNL     1      -9.629   8.618  70.748  1.00  0.00    -0.167 OA 
HETATM   11  C   UNL     3     -10.363  10.406  68.063  1.00  0.00    -0.179 C  
HETATM   12  H1  UNL     3     -12.379  10.074  68.521  1.00  0.00     0.000 HD 
HETATM   13  H2  UNL     3     -11.558   8.805  67.635  1.00  0.00     0.000 HD 
HETATM   14  N   UNL     2      -9.429   6.704  67.706  1.00  0.00    -0.121 NA 
HETATM   15  N   UNL     2      -9.744   7.793  65.701  1.00  0.00    -0.125 NA 
HETATM   16  H2  UNL     2     -10.369   8.232  65.025  1.00  0.00     0.000 HD 
HETATM   17  H   UNL     2      -8.458   7.014  67.665  1.00  0.00     0.000 HD 
HETATM   18  N   UNL     3      -9.297   9.964  67.513  1.00  0.00    -0.140 NA 
HETATM   19  N   UNL     3     -10.398  11.567  68.756  1.00  0.00    -0.231 NA 
HETATM   20  H2  UNL     3      -9.327   9.048  67.065  1.00  0.00     0.000 HD 
HETATM   21  H1  UNL     2      -8.731   7.895  65.639  1.00  0.00     0.000 HD 
HETATM   22  H1  UNL     3      -8.418  10.481  67.498  1.00  0.00     0.000 HD 
HETATM   23  H   UNL     3     -11.065  11.728  69.511  1.00  0.00     0.000 HD 
ENDROOT
BRANCH  14  24
HETATM   24  C   UNL     2      -9.778   5.917  68.875  1.00  0.00    -0.135 C  
BRANCH  24  25
HETATM   25  C   UNL     2      -9.540   4.441  68.610  1.00  0.00    -0.216 A  
HETATM   26  I   UNL     2      -8.795   1.902  65.143  1.00  0.00    -0.091 I  
HETATM   27  C   UNL     2      -9.544   3.512  69.665  1.00  0.00    -0.184 A  
HETATM   28  C   UNL     2      -9.303   3.971  67.303  1.00  0.00    -0.211 A  
HETATM   29  C   UNL     2      -9.390   2.150  69.424  1.00  0.00    -0.167 A  
HETATM   30  C   UNL     2      -9.125   2.605  67.073  1.00  0.00    -0.146 A  
HETATM   31  C   UNL     2      -9.179   1.692  68.127  1.00  0.00    -0.218 A  
ENDBRANCH  24  25
ENDBRANCH  14  24
BRANCH  19  32
HETATM   32  C   UNL     3      -9.422  12.573  68.357  1.00  0.00    -0.167 C  
BRANCH  32  33
HETATM   33  C   UNL     3     -10.002  13.957  68.317  1.00  0.00    -0.238 A  
HETATM   34  C   UNL     3     -10.970  16.575  68.657  1.00  0.00    -0.344 A  
HETATM   35  C   UNL     3      -9.147  15.051  68.189  1.00  0.00    -0.178 A  
HETATM   36  I   UNL     3      -8.280  17.933  68.351  1.00  0.00    -0.267 I  
HETATM   37  C   UNL     3     -11.850  15.498  68.720  1.00  0.00    -0.335 A  
HETATM   38  C   UNL     3      -9.623  16.347  68.383  1.00  0.00    -0.219 A  
HETATM   39  C   UNL     3     -11.371  14.195  68.559  1.00  0.00    -0.312 A  
ENDBRANCH  32  33
ENDBRANCH  19  32
TORSDOF 4
ENDMDL
MODEL      126
REMARK 921   NORMALIZED FREE ENERGY PREDICTED BY IDOCK:   -5.17 KCAL/MOL
REMARK 922        TOTAL FREE ENERGY PREDICTED BY IDOCK:   -7.03 KCAL/MOL
REMARK 923 INTER-LIGAND FREE ENERGY PREDICTED BY IDOCK:   -6.66 KCAL/MOL
REMARK 924 INTRA-LIGAND FREE ENERGY PREDICTED BY IDOCK:   -0.37 KCAL/MOL
REMARK 927      BINDING AFFINITY PREDICTED BY RF-SCORE:    0.00 PKD
ROOT
HETATM    1  O   UNL     1     -10.231  11.892  69.200  1.00  0.00    -0.055 OA 
HETATM    2  S   UNL     1     -11.513  11.317  68.414  1.00  0.00    -0.316 S  
HETATM    3  N   UNL     2      -6.741  10.500  69.466  1.00  0.00    -0.075 NA 
HETATM    4  H1  UNL     2      -7.015  11.456  69.238  1.00  0.00     0.000 HD 
HETATM    5  H2  UNL     2      -6.429  10.240  70.402  1.00  0.00     0.000 HD 
HETATM    6  C   UNL     2      -6.813   9.600  68.472  1.00  0.00    -0.057 C  
HETATM    7  N   UNL     3      -9.449   9.388  70.405  1.00  0.00    -0.251 NA 
HETATM    8  O   UNL     1     -12.253  10.528  69.598  1.00  0.00    -0.244 OA 
HETATM    9  O   UNL     1     -12.320  12.442  68.004  1.00  0.00    -0.237 OA 
HETATM   10  O   UNL     1     -11.027  10.336  67.483  1.00  0.00    -0.297 OA 
HETATM   11  C   UNL     3      -9.889   8.264  69.798  1.00  0.00    -0.187 C  
HETATM   12  H1  UNL     3      -9.974   9.874  71.132  1.00  0.00     0.000 HD 
HETATM   13  H2  UNL     3      -8.546   9.769  70.123  1.00  0.00     0.000 HD 
HETATM   14  N   UNL     2      -7.454   9.920  67.342  1.00  0.00    -0.091 NA 
HETATM   15  N   UNL     2      -6.469   8.396  68.759  1.00  0.00    -0.052 NA 
HETATM   16  H2  UNL     2      -6.157   8.137  69.695  1.00  0.00     0.000 HD 
HETATM   17  H   UNL     2      -7.646   9.139  66.715  1.00  0.00     0.000 HD 
HETATM   18  N   UNL     3      -9.231   7.654  68.887  1.00  0.00    -0.140 NA 
HETATM   19  N   UNL     3     -11.132   7.887  70.175  1.00  0.00    -0.356 NA 
HETATM   20  H2  UNL     3      -8.328   8.034  68.604  1.00  0.00     0.000 HD 
HETATM   21  H1  UNL     2      -6.524   7.712  68.004  1.00  0.00     0.000 HD 
HETATM   22  H1  UNL     3      -9.563   6.805  68.427  1.00  0.00     0.000 HD 
HETATM   23  H   UNL     3     -11.806   8.549  70.559  1.00  0.00     0.000 HD 
ENDROOT
BRANCH  14  24
HETATM   24  C   UNL     2      -7.915  11.215  66.874  1.00  0.00    -0.151 C  
BRANCH  24  25
HETATM   25  C   UNL     2      -8.641  11.070  65.548  1.00  0.00    -0.104 A  
HETATM   26  I   UNL     2     -12.135  12.824  63.616  1.00  0.00    -0.503 I  
HETATM   27  C   UNL     2      -8.195  10.152  64.581  1.00  0.00    -0.165 A  
HETATM   28  C   UNL     2      -9.773  11.856  65.255  1.00  0.00    -0.214 A  
HETATM   29  C   UNL     2      -8.890   9.967  63.389  1.00  0.00    -0.249 A  
HETATM   30  C   UNL     2     -10.451  11.681  64.047  1.00  0.00    -0.367 A  
HETATM   31  C   UNL     2     -10.021  10.732  63.118  1.00  0.00    -0.341 A  
ENDBRANCH  24  25
ENDBRANCH  14  24
BRANCH  19  32
HETATM   32  C   UNL     3     -11.447   6.476  69.997  1.00  0.00    -0.412 C  
BRANCH  32  33
HETATM   33  C   UNL     3     -10.948   5.625  71.129  1.00  0.00    -0.248 A  
HETATM   34  C   UNL     3     -10.333   3.762  73.144  1.00  0.00    -0.241 A  
HETATM   35  C   UNL     3     -10.155   4.512  70.848  1.00  0.00    -0.228 A  
HETATM   36  I   UNL     3      -8.833   1.849  71.337  1.00  0.00    -0.151 I  
HETATM   37  C   UNL     3     -11.067   4.904  73.457  1.00  0.00    -0.405 A  
HETATM   38  C   UNL     3      -9.872   3.576  71.841  1.00  0.00    -0.167 A  
HETATM   39  C   UNL     3     -11.381   5.828  72.456  1.00  0.00    -0.358 A  
ENDBRANCH  32  33
ENDBRANCH  19  32
TORSDOF 4
ENDMDL
MODEL      127
REMARK 921   NORMALIZED FREE ENERGY PREDICTED BY IDOCK:   -5.17 KCAL/MOL
REMARK 922        TOTAL FREE ENERGY PREDICTED BY IDOCK:   -7.02 KCAL/MOL
REMARK 923 INTER-LIGAND FREE ENERGY PREDICTED BY IDOCK:   -6.15 KCAL/MOL
REMARK 924 INTRA-LIGAND FREE ENERGY PREDICTED BY IDOCK:   -0.87 KCAL/MOL
REMARK 927      BINDING AFFINITY PREDICTED BY RF-SCORE:    0.00 PKD
ROOT
HETATM    1  O   UNL     1      -8.949   7.713  65.785  1.00  0.00    -0.145 OA 
HETATM    2  S   UNL     1      -9.508   7.071  67.153  1.00  0.00    -0.152 S  
HETATM    3  N   UNL     2      -7.059  10.922  65.222  1.00  0.00    -0.361 NA 
HETATM    4  H1  UNL     2      -6.831   9.994  64.865  1.00  0.00     0.000 HD 
HETATM    5  H2  UNL     2      -7.520  11.622  64.641  1.00  0.00     0.000 HD 
HETATM    6  C   UNL     2      -6.721  11.176  66.497  1.00  0.00    -0.128 C  
HETATM    7  N   UNL     3      -9.895  10.395  66.285  1.00  0.00    -0.208 NA 
HETATM    8  O   UNL     1     -11.023   7.595  67.126  1.00  0.00    -0.266 OA 
HETATM    9  O   UNL     1      -9.489   5.635  67.005  1.00  0.00    -0.120 OA 
HETATM   10  O   UNL     1      -8.840   7.745  68.232  1.00  0.00    -0.130 OA 
HETATM   11  C   UNL     3     -10.131  10.719  67.576  1.00  0.00    -0.186 C  
HETATM   12  H1  UNL     3     -10.598   9.980  65.674  1.00  0.00     0.000 HD 
HETATM   13  H2  UNL     3      -8.966  10.574  65.903  1.00  0.00     0.000 HD 
HETATM   14  N   UNL     2      -6.347  10.165  67.291  1.00  0.00    -0.066 NA 
HETATM   15  N   UNL     2      -7.008  12.344  66.947  1.00  0.00    -0.377 NA 
HETATM   16  H2  UNL     2      -7.470  13.044  66.365  1.00  0.00     0.000 HD 
HETATM   17  H   UNL     2      -6.299  10.389  68.285  1.00  0.00     0.000 HD 
HETATM   18  N   UNL     3      -9.250  11.239  68.343  1.00  0.00    -0.173 NA 
HETATM   19  N   UNL     3     -11.360  10.363  68.014  1.00  0.00    -0.542 NA 
HETATM   20  H2  UNL     3      -8.321  11.419  67.961  1.00  0.00     0.000 HD 
HETATM   21  H1  UNL     2      -6.751  12.537  67.915  1.00  0.00     0.000 HD 
HETATM   22  H1  UNL     3      -9.428  11.483  69.317  1.00  0.00     0.000 HD 
HETATM   23  H   UNL     3     -11.896   9.613  67.577  1.00  0.00     0.000 HD 
ENDROOT
BRANCH  14  24
HETATM   24  C   UNL     2      -6.000   8.798  66.948  1.00  0.00    -0.057 C  
BRANCH  24  25
HETATM   25  C   UNL     2      -5.701   7.998  68.203  1.00  0.00    -0.034 A  
HETATM   26  I   UNL     2      -5.601   3.793  69.358  1.00  0.00    -0.019 I  
HETATM   27  C   UNL     2      -5.362   8.645  69.404  1.00  0.00    -0.031 A  
HETATM   28  C   UNL     2      -5.750   6.590  68.191  1.00  0.00    -0.012 A  
HETATM   29  C   UNL     2      -5.148   7.923  70.575  1.00  0.00    -0.023 A  
HETATM   30  C   UNL     2      -5.511   5.872  69.364  1.00  0.00    -0.004 A  
HETATM   31  C   UNL     2      -5.222   6.534  70.559  1.00  0.00    -0.018 A  
ENDBRANCH  24  25
ENDBRANCH  14  24
BRANCH  19  32
HETATM   32  C   UNL     3     -11.869  11.117  69.152  1.00  0.00    -0.350 C  
BRANCH  32  33
HETATM   33  C   UNL     3     -11.978  10.284  70.397  1.00  0.00    -0.391 A  
HETATM   34  C   UNL     3     -12.174   8.385  72.462  1.00  0.00    -0.381 A  
HETATM   35  C   UNL     3     -10.833   9.680  70.915  1.00  0.00    -0.409 A  
HETATM   36  I   UNL     3      -9.220   7.722  72.542  1.00  0.00    -0.311 I  
HETATM   37  C   UNL     3     -13.320   9.031  72.004  1.00  0.00    -0.494 A  
HETATM   38  C   UNL     3     -10.934   8.719  71.921  1.00  0.00    -0.365 A  
HETATM   39  C   UNL     3     -13.227   9.970  70.972  1.00  0.00    -0.399 A  
ENDBRANCH  32  33
ENDBRANCH  19  32
TORSDOF 4
ENDMDL
MODEL      128
REMARK 921   NORMALIZED FREE ENERGY PREDICTED BY IDOCK:   -5.15 KCAL/MOL
REMARK 922        TOTAL FREE ENERGY PREDICTED BY IDOCK:   -7.01 KCAL/MOL
REMARK 923 INTER-LIGAND FREE ENERGY PREDICTED BY IDOCK:   -6.07 KCAL/MOL
REMARK 924 INTRA-LIGAND FREE ENERGY PREDICTED BY IDOCK:   -0.94 KCAL/MOL
REMARK 927      BINDING AFFINITY PREDICTED BY RF-SCORE:    0.00 PKD
ROOT
HETATM    1  O   UNL     1      -9.080   5.703  69.666  1.00  0.00    -0.127 OA 
HETATM    2  S   UNL     1      -9.912   6.403  68.478  1.00  0.00    -0.151 S  
HETATM    3  N   UNL     2      -6.847   7.240  72.279  1.00  0.00    -0.059 NA 
HETATM    4  H1  UNL     2      -7.596   6.563  72.421  1.00  0.00     0.000 HD 
HETATM    5  H2  UNL     2      -5.866   6.959  72.257  1.00  0.00     0.000 HD 
HETATM    6  C   UNL     2      -7.216   8.522  72.122  1.00  0.00    -0.072 C  
HETATM    7  N   UNL     3      -6.615   7.137  69.215  1.00  0.00    -0.043 NA 
HETATM    8  O   UNL     1      -8.886   6.227  67.258  1.00  0.00    -0.109 OA 
HETATM    9  O   UNL     1     -11.092   5.608  68.237  1.00  0.00    -0.093 OA 
HETATM   10  O   UNL     1      -9.976   7.805  68.785  1.00  0.00    -0.166 OA 
HETATM   11  C   UNL     3      -6.716   8.313  68.557  1.00  0.00    -0.063 C  
HETATM   12  H1  UNL     3      -6.486   6.241  68.745  1.00  0.00     0.000 HD 
HETATM   13  H2  UNL     3      -6.673   7.146  70.234  1.00  0.00     0.000 HD 
HETATM   14  N   UNL     2      -8.505   8.813  71.912  1.00  0.00    -0.351 NA 
HETATM   15  N   UNL     2      -6.272   9.375  71.944  1.00  0.00    -0.278 NA 
HETATM   16  H2  UNL     2      -5.292   9.094  71.922  1.00  0.00     0.000 HD 
HETATM   17  H   UNL     2      -8.690   9.767  71.604  1.00  0.00     0.000 HD 
HETATM   18  N   UNL     3      -6.879   9.436  69.146  1.00  0.00    -0.050 NA 
HETATM   19  N   UNL     3      -6.717   8.190  67.211  1.00  0.00    -0.064 NA 
HETATM   20  H2  UNL     3      -6.936   9.446  70.165  1.00  0.00     0.000 HD 
HETATM   21  H1  UNL     2      -6.553  10.349  71.825  1.00  0.00     0.000 HD 
HETATM   22  H1  UNL     3      -6.954  10.325  68.650  1.00  0.00     0.000 HD 
HETATM   23  H   UNL     3      -6.998   7.327  66.745  1.00  0.00     0.000 HD 
ENDROOT
BRANCH  14  24
HETATM   24  C   UNL     2      -9.679   7.972  72.058  1.00  0.00    -0.203 C  
BRANCH  24  25
HETATM   25  C   UNL     2     -10.944   8.791  71.867  1.00  0.00    -0.435 A  
HETATM   26  I   UNL     2     -12.100  12.431  69.760  1.00  0.00    -0.032 I  
HETATM   27  C   UNL     2     -12.147   8.409  72.486  1.00  0.00    -0.403 A  
HETATM   28  C   UNL     2     -10.940   9.947  71.063  1.00  0.00    -0.360 A  
HETATM   29  C   UNL     2     -13.295   9.188  72.369  1.00  0.00    -0.527 A  
HETATM   30  C   UNL     2     -12.102  10.711  70.931  1.00  0.00    -0.385 A  
HETATM   31  C   UNL     2     -13.276  10.341  71.591  1.00  0.00    -0.509 A  
ENDBRANCH  24  25
ENDBRANCH  14  24
BRANCH  19  32
HETATM   32  C   UNL     3      -6.291   9.368  66.466  1.00  0.00    -0.066 C  
BRANCH  32  33
HETATM   33  C   UNL     3      -7.292   9.789  65.428  1.00  0.00    -0.118 A  
HETATM   34  C   UNL     3      -9.431  10.298  63.676  1.00  0.00    -0.348 A  
HETATM   35  C   UNL     3      -8.284  10.707  65.769  1.00  0.00    -0.161 A  
HETATM   36  I   UNL     3     -10.899  12.186  65.534  1.00  0.00    -0.363 I  
HETATM   37  C   UNL     3      -8.411   9.430  63.291  1.00  0.00    -0.202 A  
HETATM   38  C   UNL     3      -9.358  10.940  64.911  1.00  0.00    -0.224 A  
HETATM   39  C   UNL     3      -7.350   9.169  64.162  1.00  0.00    -0.104 A  
ENDBRANCH  32  33
ENDBRANCH  19  32
TORSDOF 4
ENDMDL
MODEL      129
REMARK 921   NORMALIZED FREE ENERGY PREDICTED BY IDOCK:   -5.12 KCAL/MOL
REMARK 922        TOTAL FREE ENERGY PREDICTED BY IDOCK:   -6.97 KCAL/MOL
REMARK 923 INTER-LIGAND FREE ENERGY PREDICTED BY IDOCK:   -6.51 KCAL/MOL
REMARK 924 INTRA-LIGAND FREE ENERGY PREDICTED BY IDOCK:   -0.46 KCAL/MOL
REMARK 927      BINDING AFFINITY PREDICTED BY RF-SCORE:    0.00 PKD
ROOT
HETATM    1  O   UNL     1     -10.347  11.825  69.561  1.00  0.00     0.121 OA 
HETATM    2  S   UNL     1     -11.316  10.861  68.709  1.00  0.00    -0.315 S  
HETATM    3  N   UNL     2      -6.627  11.627  70.114  1.00  0.00    -0.443 NA 
HETATM    4  H1  UNL     2      -7.173  12.443  69.836  1.00  0.00     0.000 HD 
HETATM    5  H2  UNL     2      -6.321  11.491  71.078  1.00  0.00     0.000 HD 
HETATM    6  C   UNL     2      -6.333  10.742  69.149  1.00  0.00    -0.055 C  
HETATM    7  N   UNL     3      -8.902   9.716  70.902  1.00  0.00    -0.360 NA 
HETATM    8  O   UNL     1     -11.854   9.889  69.865  1.00  0.00    -0.146 OA 
HETATM    9  O   UNL     1     -12.405  11.665  68.206  1.00  0.00    -0.420 OA 
HETATM   10  O   UNL     1     -10.472  10.079  67.847  1.00  0.00    -0.199 OA 
HETATM   11  C   UNL     3      -8.914   8.504  70.304  1.00  0.00    -0.149 C  
HETATM   12  H1  UNL     3      -9.609  10.016  71.574  1.00  0.00     0.000 HD 
HETATM   13  H2  UNL     3      -8.149  10.363  70.669  1.00  0.00     0.000 HD 
HETATM   14  N   UNL     2      -6.954  10.829  67.967  1.00  0.00    -0.072 NA 
HETATM   15  N   UNL     2      -5.646   9.714  69.500  1.00  0.00    -0.034 NA 
HETATM   16  H2  UNL     2      -5.339   9.578  70.463  1.00  0.00     0.000 HD 
HETATM   17  H   UNL     2      -6.839  10.020  67.355  1.00  0.00     0.000 HD 
HETATM   18  N   UNL     3      -8.028   8.128  69.461  1.00  0.00    -0.111 NA 
HETATM   19  N   UNL     3      -9.996   7.753  70.607  1.00  0.00    -0.186 NA 
HETATM   20  H2  UNL     3      -7.274   8.774  69.229  1.00  0.00     0.000 HD 
HETATM   21  H1  UNL     2      -5.422   9.041  68.766  1.00  0.00     0.000 HD 
HETATM   22  H1  UNL     3      -8.037   7.213  69.010  1.00  0.00     0.000 HD 
HETATM   23  H   UNL     3     -10.874   8.168  70.921  1.00  0.00     0.000 HD 
ENDROOT
BRANCH  14  24
HETATM   24  C   UNL     2      -7.766  11.902  67.425  1.00  0.00    -0.158 C  
BRANCH  24  25
HETATM   25  C   UNL     2      -8.436  11.460  66.135  1.00  0.00    -0.105 A  
HETATM   26  I   UNL     2     -11.968  12.569  63.830  1.00  0.00    -0.678 I  
HETATM   27  C   UNL     2      -7.898  10.410  65.370  1.00  0.00    -0.143 A  
HETATM   28  C   UNL     2      -9.605  12.095  65.674  1.00  0.00    -0.177 A  
HETATM   29  C   UNL     2      -8.538   9.956  64.221  1.00  0.00    -0.199 A  
HETATM   30  C   UNL     2     -10.229  11.648  64.507  1.00  0.00    -0.291 A  
HETATM   31  C   UNL     2      -9.706  10.574  63.785  1.00  0.00    -0.385 A  
ENDBRANCH  24  25
ENDBRANCH  14  24
BRANCH  19  32
HETATM   32  C   UNL     3      -9.831   6.313  70.456  1.00  0.00    -0.177 C  
BRANCH  32  33
HETATM   33  C   UNL     3     -10.182   5.832  69.078  1.00  0.00    -0.282 A  
HETATM   34  C   UNL     3     -10.467   5.110  66.375  1.00  0.00    -0.356 A  
HETATM   35  C   UNL     3      -9.584   4.672  68.587  1.00  0.00    -0.226 A  
HETATM   36  I   UNL     3      -8.656   2.686  66.519  1.00  0.00    -0.137 I  
HETATM   37  C   UNL     3     -11.127   6.234  66.865  1.00  0.00    -0.329 A  
HETATM   38  C   UNL     3      -9.704   4.328  67.241  1.00  0.00    -0.175 A  
HETATM   39  C   UNL     3     -10.982   6.600  68.206  1.00  0.00    -0.321 A  
ENDBRANCH  32  33
ENDBRANCH  19  32
TORSDOF 4
ENDMDL
MODEL      130
REMARK 921   NORMALIZED FREE ENERGY PREDICTED BY IDOCK:   -5.12 KCAL/MOL
REMARK 922        TOTAL FREE ENERGY PREDICTED BY IDOCK:   -6.96 KCAL/MOL
REMARK 923 INTER-LIGAND FREE ENERGY PREDICTED BY IDOCK:   -6.25 KCAL/MOL
REMARK 924 INTRA-LIGAND FREE ENERGY PREDICTED BY IDOCK:   -0.71 KCAL/MOL
REMARK 927      BINDING AFFINITY PREDICTED BY RF-SCORE:    0.00 PKD
ROOT
HETATM    1  O   UNL     1     -10.236   8.219  70.985  1.00  0.00    -0.186 OA 
HETATM    2  S   UNL     1     -11.032   7.171  70.057  1.00  0.00    -0.253 S  
HETATM    3  N   UNL     2      -7.488  10.632  70.087  1.00  0.00    -0.443 NA 
HETATM    4  H1  UNL     2      -8.336  10.825  70.620  1.00  0.00     0.000 HD 
HETATM    5  H2  UNL     2      -6.589  10.484  70.546  1.00  0.00     0.000 HD 
HETATM    6  C   UNL     2      -7.614  10.583  68.751  1.00  0.00    -0.101 C  
HETATM    7  N   UNL     3      -7.598   7.561  70.013  1.00  0.00    -0.086 NA 
HETATM    8  O   UNL     1     -10.192   5.834  70.337  1.00  0.00    -0.194 OA 
HETATM    9  O   UNL     1     -12.364   7.028  70.597  1.00  0.00    -0.319 OA 
HETATM   10  O   UNL     1     -10.790   7.554  68.694  1.00  0.00    -0.133 OA 
HETATM   11  C   UNL     3      -7.534   6.979  68.796  1.00  0.00    -0.099 C  
HETATM   12  H1  UNL     3      -7.695   7.035  70.882  1.00  0.00     0.000 HD 
HETATM   13  H2  UNL     3      -7.548   8.578  70.067  1.00  0.00     0.000 HD 
HETATM   14  N   UNL     2      -8.836  10.537  68.208  1.00  0.00    -0.134 NA 
HETATM   15  N   UNL     2      -6.545  10.340  68.080  1.00  0.00    -0.057 NA 
HETATM   16  H2  UNL     2      -5.646  10.192  68.540  1.00  0.00     0.000 HD 
HETATM   17  H   UNL     2      -8.862  10.301  67.216  1.00  0.00     0.000 HD 
HETATM   18  N   UNL     3      -7.413   7.638  67.707  1.00  0.00    -0.105 NA 
HETATM   19  N   UNL     3      -7.697   5.636  68.820  1.00  0.00    -0.088 NA 
HETATM   20  H2  UNL     3      -7.362   8.655  67.759  1.00  0.00     0.000 HD 
HETATM   21  H1  UNL     2      -6.641  10.303  67.065  1.00  0.00     0.000 HD 
HETATM   22  H1  UNL     3      -7.364   7.199  66.787  1.00  0.00     0.000 HD 
HETATM   23  H   UNL     3      -8.188   5.164  69.579  1.00  0.00     0.000 HD 
ENDROOT
BRANCH  14  24
HETATM   24  C   UNL     2     -10.130  10.774  68.821  1.00  0.00    -0.191 C  
BRANCH  24  25
HETATM   25  C   UNL     2     -10.861  11.892  68.097  1.00  0.00    -0.259 A  
HETATM   26  I   UNL     2     -12.255  12.690  64.042  1.00  0.00    -0.564 I  
HETATM   27  C   UNL     2     -11.249  13.057  68.781  1.00  0.00    -0.325 A  
HETATM   28  C   UNL     2     -11.173  11.783  66.728  1.00  0.00    -0.388 A  
HETATM   29  C   UNL     2     -11.862  14.113  68.112  1.00  0.00    -0.387 A  
HETATM   30  C   UNL     2     -11.810  12.837  66.070  1.00  0.00    -0.439 A  
HETATM   31  C   UNL     2     -12.146  14.006  66.755  1.00  0.00    -0.480 A  
ENDBRANCH  24  25
ENDBRANCH  14  24
BRANCH  19  32
HETATM   32  C   UNL     3      -7.129   4.908  67.693  1.00  0.00    -0.062 C  
BRANCH  32  33
HETATM   33  C   UNL     3      -8.178   4.382  66.756  1.00  0.00    -0.102 A  
HETATM   34  C   UNL     3     -10.014   3.710  64.735  1.00  0.00    -0.160 A  
HETATM   35  C   UNL     3      -7.796   3.560  65.697  1.00  0.00    -0.089 A  
HETATM   36  I   UNL     3      -8.039   2.163  63.038  1.00  0.00    -0.070 I  
HETATM   37  C   UNL     3     -10.430   4.475  65.822  1.00  0.00    -0.268 A  
HETATM   38  C   UNL     3      -8.700   3.248  64.682  1.00  0.00    -0.103 A  
HETATM   39  C   UNL     3      -9.518   4.818  66.825  1.00  0.00    -0.163 A  
ENDBRANCH  32  33
ENDBRANCH  19  32
TORSDOF 4
ENDMDL
MODEL      131
REMARK 921   NORMALIZED FREE ENERGY PREDICTED BY IDOCK:   -5.11 KCAL/MOL
REMARK 922        TOTAL FREE ENERGY PREDICTED BY IDOCK:   -6.95 KCAL/MOL
REMARK 923 INTER-LIGAND FREE ENERGY PREDICTED BY IDOCK:   -6.10 KCAL/MOL
REMARK 924 INTRA-LIGAND FREE ENERGY PREDICTED BY IDOCK:   -0.84 KCAL/MOL
REMARK 927      BINDING AFFINITY PREDICTED BY RF-SCORE:    0.00 PKD
ROOT
HETATM    1  O   UNL     1     -11.116  17.362  67.776  1.00  0.00    -0.240 OA 
HETATM    2  S   UNL     1     -10.363  17.021  69.158  1.00  0.00    -0.275 S  
HETATM    3  N   UNL     2     -11.183  15.451  64.531  1.00  0.00    -0.685 NA 
HETATM    4  H1  UNL     2     -11.977  15.835  65.044  1.00  0.00     0.000 HD 
HETATM    5  H2  UNL     2     -10.788  15.925  63.719  1.00  0.00     0.000 HD 
HETATM    6  C   UNL     2     -10.683  14.287  64.979  1.00  0.00    -0.420 C  
HETATM    7  N   UNL     3      -8.874  16.800  66.047  1.00  0.00    -0.502 NA 
HETATM    8  O   UNL     1      -9.023  17.884  68.982  1.00  0.00    -0.160 OA 
HETATM    9  O   UNL     1     -11.153  17.567  70.236  1.00  0.00     0.738 OA 
HETATM   10  O   UNL     1      -9.992  15.635  69.099  1.00  0.00    -0.212 OA 
HETATM   11  C   UNL     3      -7.917  15.987  66.547  1.00  0.00    -0.236 C  
HETATM   12  H1  UNL     3      -8.865  17.813  66.163  1.00  0.00     0.000 HD 
HETATM   13  H2  UNL     3      -9.643  16.378  65.526  1.00  0.00     0.000 HD 
HETATM   14  N   UNL     2     -11.064  13.827  66.177  1.00  0.00    -0.295 NA 
HETATM   15  N   UNL     2      -9.684  13.803  64.334  1.00  0.00    -0.464 NA 
HETATM   16  H2  UNL     2      -9.289  14.278  63.522  1.00  0.00     0.000 HD 
HETATM   17  H   UNL     2     -10.506  13.056  66.543  1.00  0.00     0.000 HD 
HETATM   18  N   UNL     3      -7.927  14.717  66.401  1.00  0.00     0.026 NA 
HETATM   19  N   UNL     3      -6.990  16.627  67.295  1.00  0.00    -0.158 NA 
HETATM   20  H2  UNL     3      -8.695  14.295  65.880  1.00  0.00     0.000 HD 
HETATM   21  H1  UNL     2      -9.304  12.919  64.674  1.00  0.00     0.000 HD 
HETATM   22  H1  UNL     3      -7.205  14.103  66.779  1.00  0.00     0.000 HD 
HETATM   23  H   UNL     3      -7.182  17.519  67.751  1.00  0.00     0.000 HD 
ENDROOT
BRANCH  14  24
HETATM   24  C   UNL     2     -12.153  14.263  67.032  1.00  0.00    -0.390 C  
BRANCH  24  25
HETATM   25  C   UNL     2     -12.148  13.481  68.334  1.00  0.00    -0.293 A  
HETATM   26  I   UNL     2     -13.432  14.131  72.451  1.00  0.00    -0.654 I  
HETATM   27  C   UNL     2     -11.603  12.186  68.392  1.00  0.00    -0.381 A  
HETATM   28  C   UNL     2     -12.694  14.032  69.510  1.00  0.00     0.218 A  
HETATM   29  C   UNL     2     -11.537  11.487  69.594  1.00  0.00    -0.403 A  
HETATM   30  C   UNL     2     -12.645  13.314  70.707  1.00  0.00    -0.280 A  
HETATM   31  C   UNL     2     -12.058  12.049  70.756  1.00  0.00    -0.297 A  
ENDBRANCH  24  25
ENDBRANCH  14  24
BRANCH  19  32
HETATM   32  C   UNL     3      -5.698  15.962  67.409  1.00  0.00    -0.056 C  
BRANCH  32  33
HETATM   33  C   UNL     3      -5.453  15.406  68.782  1.00  0.00    -0.093 A  
HETATM   34  C   UNL     3      -5.413  14.267  71.353  1.00  0.00    -0.193 A  
HETATM   35  C   UNL     3      -5.308  14.029  68.944  1.00  0.00    -0.079 A  
HETATM   36  I   UNL     3      -5.268  11.394  70.405  1.00  0.00    -0.141 I  
HETATM   37  C   UNL     3      -5.488  15.650  71.209  1.00  0.00     0.099 A  
HETATM   38  C   UNL     3      -5.314  13.463  70.219  1.00  0.00    -0.115 A  
HETATM   39  C   UNL     3      -5.516  16.220  69.933  1.00  0.00    -0.162 A  
ENDBRANCH  32  33
ENDBRANCH  19  32
TORSDOF 4
ENDMDL
MODEL      132
REMARK 921   NORMALIZED FREE ENERGY PREDICTED BY IDOCK:   -5.10 KCAL/MOL
REMARK 922        TOTAL FREE ENERGY PREDICTED BY IDOCK:   -6.94 KCAL/MOL
REMARK 923 INTER-LIGAND FREE ENERGY PREDICTED BY IDOCK:   -6.30 KCAL/MOL
REMARK 924 INTRA-LIGAND FREE ENERGY PREDICTED BY IDOCK:   -0.64 KCAL/MOL
REMARK 927      BINDING AFFINITY PREDICTED BY RF-SCORE:    0.00 PKD
ROOT
HETATM    1  O   UNL     1     -10.734   8.419  70.945  1.00  0.00    -0.213 OA 
HETATM    2  S   UNL     1     -11.281   7.015  70.377  1.00  0.00    -0.308 S  
HETATM    3  N   UNL     2      -8.368  10.896  69.378  1.00  0.00    -0.380 NA 
HETATM    4  H1  UNL     2      -9.271  11.087  69.813  1.00  0.00     0.000 HD 
HETATM    5  H2  UNL     2      -7.490  11.057  69.873  1.00  0.00     0.000 HD 
HETATM    6  C   UNL     2      -8.393  10.422  68.122  1.00  0.00    -0.117 C  
HETATM    7  N   UNL     3      -7.964   7.979  70.260  1.00  0.00    -0.102 NA 
HETATM    8  O   UNL     1     -10.252   5.998  71.069  1.00  0.00    -0.189 OA 
HETATM    9  O   UNL     1     -12.604   6.808  70.917  1.00  0.00    -0.336 OA 
HETATM   10  O   UNL     1     -11.013   7.003  68.966  1.00  0.00    -0.200 OA 
HETATM   11  C   UNL     3      -7.721   7.076  69.285  1.00  0.00    -0.109 C  
HETATM   12  H1  UNL     3      -8.031   7.733  71.248  1.00  0.00     0.000 HD 
HETATM   13  H2  UNL     3      -8.086   8.957  69.996  1.00  0.00     0.000 HD 
HETATM   14  N   UNL     2      -9.551   9.997  67.604  1.00  0.00    -0.147 NA 
HETATM   15  N   UNL     2      -7.256  10.182  67.574  1.00  0.00    -0.087 NA 
HETATM   16  H2  UNL     2      -6.378  10.343  68.069  1.00  0.00     0.000 HD 
HETATM   17  H   UNL     2      -9.470   9.470  66.734  1.00  0.00     0.000 HD 
HETATM   18  N   UNL     3      -7.637   7.384  68.047  1.00  0.00    -0.112 NA 
HETATM   19  N   UNL     3      -7.662   5.798  69.723  1.00  0.00    -0.083 NA 
HETATM   20  H2  UNL     3      -7.759   8.362  67.781  1.00  0.00     0.000 HD 
HETATM   21  H1  UNL     2      -7.275   9.822  66.620  1.00  0.00     0.000 HD 
HETATM   22  H1  UNL     3      -7.454   6.703  67.310  1.00  0.00     0.000 HD 
HETATM   23  H   UNL     3      -8.118   5.498  70.584  1.00  0.00     0.000 HD 
ENDROOT
BRANCH  14  24
HETATM   24  C   UNL     2     -10.905  10.174  68.095  1.00  0.00    -0.262 C  
BRANCH  24  25
HETATM   25  C   UNL     2     -11.317  11.632  67.997  1.00  0.00    -0.366 A  
HETATM   26  I   UNL     2     -12.234  14.881  70.758  1.00  0.00    -0.508 I  
HETATM   27  C   UNL     2     -11.510  12.242  66.744  1.00  0.00    -0.421 A  
HETATM   28  C   UNL     2     -11.510  12.407  69.157  1.00  0.00    -0.358 A  
HETATM   29  C   UNL     2     -11.949  13.559  66.645  1.00  0.00    -0.452 A  
HETATM   30  C   UNL     2     -11.928  13.736  69.048  1.00  0.00    -0.360 A  
HETATM   31  C   UNL     2     -12.159  14.311  67.797  1.00  0.00    -0.316 A  
ENDBRANCH  24  25
ENDBRANCH  14  24
BRANCH  19  32
HETATM   32  C   UNL     3      -6.906   4.876  68.886  1.00  0.00    -0.051 C  
BRANCH  32  33
HETATM   33  C   UNL     3      -7.661   3.612  68.589  1.00  0.00    -0.053 A  
HETATM   34  C   UNL     3      -9.393   1.505  67.906  1.00  0.00    -0.192 A  
HETATM   35  C   UNL     3      -7.738   3.157  67.274  1.00  0.00    -0.074 A  
HETATM   36  I   UNL     3      -8.824   1.601  64.933  1.00  0.00    -0.113 I  
HETATM   37  C   UNL     3      -9.276   1.902  69.236  1.00  0.00    -0.185 A  
HETATM   38  C   UNL     3      -8.617   2.129  66.931  1.00  0.00    -0.109 A  
HETATM   39  C   UNL     3      -8.421   2.954  69.578  1.00  0.00    -0.101 A  
ENDBRANCH  32  33
ENDBRANCH  19  32
TORSDOF 4
ENDMDL
MODEL      133
REMARK 921   NORMALIZED FREE ENERGY PREDICTED BY IDOCK:   -5.08 KCAL/MOL
REMARK 922        TOTAL FREE ENERGY PREDICTED BY IDOCK:   -6.91 KCAL/MOL
REMARK 923 INTER-LIGAND FREE ENERGY PREDICTED BY IDOCK:   -6.23 KCAL/MOL
REMARK 924 INTRA-LIGAND FREE ENERGY PREDICTED BY IDOCK:   -0.69 KCAL/MOL
REMARK 927      BINDING AFFINITY PREDICTED BY RF-SCORE:    0.00 PKD
ROOT
HETATM    1  O   UNL     1      -8.494  10.929  69.249  1.00  0.00    -0.108 OA 
HETATM    2  S   UNL     1      -6.996  11.243  68.748  1.00  0.00    -0.099 S  
HETATM    3  N   UNL     2     -11.781  11.408  67.474  1.00  0.00    -0.609 NA 
HETATM    4  H1  UNL     2     -11.455  10.577  67.968  1.00  0.00     0.000 HD 
HETATM    5  H2  UNL     2     -12.434  12.064  67.903  1.00  0.00     0.000 HD 
HETATM    6  C   UNL     2     -11.307  11.594  66.232  1.00  0.00    -0.227 C  
HETATM    7  N   UNL     3      -9.649  13.428  68.380  1.00  0.00    -0.281 NA 
HETATM    8  O   UNL     1      -6.772  12.698  69.384  1.00  0.00    -0.097 OA 
HETATM    9  O   UNL     1      -6.111  10.295  69.383  1.00  0.00    -0.040 OA 
HETATM   10  O   UNL     1      -7.059  11.404  67.321  1.00  0.00    -0.102 OA 
HETATM   11  C   UNL     3      -8.986  14.091  67.407  1.00  0.00    -0.206 C  
HETATM   12  H1  UNL     3      -9.462  13.559  69.374  1.00  0.00     0.000 HD 
HETATM   13  H2  UNL     3     -10.372  12.763  68.106  1.00  0.00     0.000 HD 
HETATM   14  N   UNL     2     -10.277  10.855  65.804  1.00  0.00    -0.252 NA 
HETATM   15  N   UNL     2     -11.717  12.641  65.610  1.00  0.00    -0.390 NA 
HETATM   16  H2  UNL     2     -12.370  13.298  66.039  1.00  0.00     0.000 HD 
HETATM   17  H   UNL     2      -9.840  11.178  64.941  1.00  0.00     0.000 HD 
HETATM   18  N   UNL     3      -9.220  13.928  66.160  1.00  0.00    -0.498 NA 
HETATM   19  N   UNL     3      -7.988  14.882  67.863  1.00  0.00    -0.128 NA 
HETATM   20  H2  UNL     3      -9.943  13.263  65.886  1.00  0.00     0.000 HD 
HETATM   21  H1  UNL     2     -11.357  12.783  64.666  1.00  0.00     0.000 HD 
HETATM   22  H1  UNL     3      -8.719  14.428  65.425  1.00  0.00     0.000 HD 
HETATM   23  H   UNL     3      -7.532  14.716  68.760  1.00  0.00     0.000 HD 
ENDROOT
BRANCH  14  24
HETATM   24  C   UNL     2      -9.689   9.662  66.386  1.00  0.00    -0.224 C  
BRANCH  24  25
HETATM   25  C   UNL     2      -8.707   9.029  65.416  1.00  0.00    -0.221 A  
HETATM   26  I   UNL     2      -5.898  10.397  62.372  1.00  0.00    -0.154 I  
HETATM   27  C   UNL     2      -8.559   7.633  65.352  1.00  0.00    -0.074 A  
HETATM   28  C   UNL     2      -7.919   9.827  64.563  1.00  0.00    -0.144 A  
HETATM   29  C   UNL     2      -7.709   7.041  64.423  1.00  0.00    -0.113 A  
HETATM   30  C   UNL     2      -7.051   9.226  63.649  1.00  0.00    -0.094 A  
HETATM   31  C   UNL     2      -6.951   7.836  63.568  1.00  0.00    -0.072 A  
ENDBRANCH  24  25
ENDBRANCH  14  24
BRANCH  19  32
HETATM   32  C   UNL     3      -7.605  15.985  66.992  1.00  0.00    -0.230 C  
BRANCH  32  33
HETATM   33  C   UNL     3      -7.872  17.328  67.609  1.00  0.00    -0.192 A  
HETATM   34  C   UNL     3      -8.406  19.629  69.135  1.00  0.00    -0.070 A  
HETATM   35  C   UNL     3      -6.844  17.985  68.283  1.00  0.00    -0.217 A  
HETATM   36  I   UNL     3      -5.584  19.955  70.184  1.00  0.00    -0.366 I  
HETATM   37  C   UNL     3      -9.431  19.025  68.410  1.00  0.00    -0.417 A  
HETATM   38  C   UNL     3      -7.114  19.111  69.061  1.00  0.00    -0.342 A  
HETATM   39  C   UNL     3      -9.171  17.876  67.657  1.00  0.00    -0.258 A  
ENDBRANCH  32  33
ENDBRANCH  19  32
TORSDOF 4
ENDMDL
MODEL      134
REMARK 921   NORMALIZED FREE ENERGY PREDICTED BY IDOCK:   -5.07 KCAL/MOL
REMARK 922        TOTAL FREE ENERGY PREDICTED BY IDOCK:   -6.90 KCAL/MOL
REMARK 923 INTER-LIGAND FREE ENERGY PREDICTED BY IDOCK:   -6.05 KCAL/MOL
REMARK 924 INTRA-LIGAND FREE ENERGY PREDICTED BY IDOCK:   -0.86 KCAL/MOL
REMARK 927      BINDING AFFINITY PREDICTED BY RF-SCORE:    0.00 PKD
ROOT
HETATM    1  O   UNL     1      -6.248   9.530  67.712  1.00  0.00    -0.053 OA 
HETATM    2  S   UNL     1      -7.000  10.544  66.713  1.00  0.00    -0.111 S  
HETATM    3  N   UNL     2      -7.524   6.409  69.390  1.00  0.00    -0.091 NA 
HETATM    4  H1  UNL     2      -6.652   6.526  68.873  1.00  0.00     0.000 HD 
HETATM    5  H2  UNL     2      -7.549   6.422  70.410  1.00  0.00     0.000 HD 
HETATM    6  C   UNL     2      -8.638   6.235  68.660  1.00  0.00    -0.121 C  
HETATM    7  N   UNL     3      -8.384   9.348  69.646  1.00  0.00    -0.132 NA 
HETATM    8  O   UNL     1      -7.482  11.671  67.747  1.00  0.00    -0.099 OA 
HETATM    9  O   UNL     1      -6.010  11.097  65.819  1.00  0.00    -0.100 OA 
HETATM   10  O   UNL     1      -8.175   9.867  66.238  1.00  0.00    -0.112 OA 
HETATM   11  C   UNL     3      -9.623   9.661  69.205  1.00  0.00    -0.174 C  
HETATM   12  H1  UNL     3      -7.738  10.036  70.034  1.00  0.00     0.000 HD 
HETATM   13  H2  UNL     3      -8.080   8.377  69.586  1.00  0.00     0.000 HD 
HETATM   14  N   UNL     2      -8.602   6.468  67.343  1.00  0.00    -0.118 NA 
HETATM   15  N   UNL     2      -9.735   6.088  69.310  1.00  0.00    -0.138 NA 
HETATM   16  H2  UNL     2      -9.760   6.101  70.330  1.00  0.00     0.000 HD 
HETATM   17  H   UNL     2      -9.512   6.514  66.885  1.00  0.00     0.000 HD 
HETATM   18  N   UNL     3     -10.433   8.800  68.717  1.00  0.00    -0.272 NA 
HETATM   19  N   UNL     3      -9.901  10.984  69.242  1.00  0.00    -0.414 NA 
HETATM   20  H2  UNL     3     -10.130   7.828  68.658  1.00  0.00     0.000 HD 
HETATM   21  H1  UNL     2     -10.582   5.956  68.756  1.00  0.00     0.000 HD 
HETATM   22  H1  UNL     3     -11.368   9.036  68.384  1.00  0.00     0.000 HD 
HETATM   23  H   UNL     3      -9.168  11.693  69.228  1.00  0.00     0.000 HD 
ENDROOT
BRANCH  14  24
HETATM   24  C   UNL     2      -7.460   6.664  66.468  1.00  0.00    -0.078 C  
BRANCH  24  25
HETATM   25  C   UNL     2      -7.833   6.341  65.031  1.00  0.00    -0.111 A  
HETATM   26  I   UNL     2      -9.257   2.871  62.806  1.00  0.00    -0.089 I  
HETATM   27  C   UNL     2      -7.732   7.319  64.026  1.00  0.00    -0.120 A  
HETATM   28  C   UNL     2      -8.294   5.059  64.675  1.00  0.00    -0.141 A  
HETATM   29  C   UNL     2      -8.010   7.016  62.697  1.00  0.00    -0.116 A  
HETATM   30  C   UNL     2      -8.594   4.769  63.343  1.00  0.00    -0.131 A  
HETATM   31  C   UNL     2      -8.443   5.740  62.350  1.00  0.00    -0.060 A  
ENDBRANCH  24  25
ENDBRANCH  14  24
BRANCH  19  32
HETATM   32  C   UNL     3     -11.314  11.333  69.303  1.00  0.00    -0.287 C  
BRANCH  32  33
HETATM   33  C   UNL     3     -11.701  12.360  68.278  1.00  0.00    -0.398 A  
HETATM   34  C   UNL     3     -12.005  14.306  66.271  1.00  0.00    -0.428 A  
HETATM   35  C   UNL     3     -11.781  11.988  66.936  1.00  0.00    -0.342 A  
HETATM   36  I   UNL     3     -11.849  12.370  63.948  1.00  0.00    -0.668 I  
HETATM   37  C   UNL     3     -11.997  14.688  67.611  1.00  0.00    -0.307 A  
HETATM   38  C   UNL     3     -11.906  12.956  65.940  1.00  0.00    -0.424 A  
HETATM   39  C   UNL     3     -11.838  13.723  68.611  1.00  0.00    -0.409 A  
ENDBRANCH  32  33
ENDBRANCH  19  32
TORSDOF 4
ENDMDL
MODEL      135
REMARK 921   NORMALIZED FREE ENERGY PREDICTED BY IDOCK:   -5.05 KCAL/MOL
REMARK 922        TOTAL FREE ENERGY PREDICTED BY IDOCK:   -6.88 KCAL/MOL
REMARK 923 INTER-LIGAND FREE ENERGY PREDICTED BY IDOCK:   -6.72 KCAL/MOL
REMARK 924 INTRA-LIGAND FREE ENERGY PREDICTED BY IDOCK:   -0.16 KCAL/MOL
REMARK 927      BINDING AFFINITY PREDICTED BY RF-SCORE:    0.00 PKD
ROOT
HETATM    1  O   UNL     1      -6.942   9.296  68.046  1.00  0.00    -0.074 OA 
HETATM    2  S   UNL     1      -7.244  10.341  66.859  1.00  0.00    -0.096 S  
HETATM    3  N   UNL     2      -9.251   6.874  69.773  1.00  0.00    -0.147 NA 
HETATM    4  H1  UNL     2      -8.325   6.684  69.387  1.00  0.00     0.000 HD 
HETATM    5  H2  UNL     2      -9.396   7.022  70.772  1.00  0.00     0.000 HD 
HETATM    6  C   UNL     2     -10.270   6.917  68.899  1.00  0.00    -0.177 C  
HETATM    7  N   UNL     3      -9.261   9.944  69.638  1.00  0.00    -0.217 NA 
HETATM    8  O   UNL     1      -7.507  11.678  67.705  1.00  0.00    -0.103 OA 
HETATM    9  O   UNL     1      -6.035  10.489  66.083  1.00  0.00    -0.078 OA 
HETATM   10  O   UNL     1      -8.496   9.953  66.270  1.00  0.00    -0.126 OA 
HETATM   11  C   UNL     3     -10.295  10.522  68.987  1.00  0.00    -0.213 C  
HETATM   12  H1  UNL     3      -8.498  10.475  70.060  1.00  0.00     0.000 HD 
HETATM   13  H2  UNL     3      -9.242   8.927  69.710  1.00  0.00     0.000 HD 
HETATM   14  N   UNL     2     -10.007   6.963  67.587  1.00  0.00    -0.136 NA 
HETATM   15  N   UNL     2     -11.435   7.155  69.384  1.00  0.00    -0.505 NA 
HETATM   16  H2  UNL     2     -11.580   7.304  70.383  1.00  0.00     0.000 HD 
HETATM   17  H   UNL     2     -10.804   7.196  66.993  1.00  0.00     0.000 HD 
HETATM   18  N   UNL     3     -11.251   9.858  68.458  1.00  0.00    -0.491 NA 
HETATM   19  N   UNL     3     -10.186  11.864  68.866  1.00  0.00    -0.391 NA 
HETATM   20  H2  UNL     3     -11.233   8.841  68.530  1.00  0.00     0.000 HD 
HETATM   21  H1  UNL     2     -12.209   7.189  68.720  1.00  0.00     0.000 HD 
HETATM   22  H1  UNL     3     -12.032  10.293  67.966  1.00  0.00     0.000 HD 
HETATM   23  H   UNL     3      -9.285  12.341  68.903  1.00  0.00     0.000 HD 
ENDROOT
BRANCH  14  24
HETATM   24  C   UNL     2      -8.759   6.731  66.884  1.00  0.00    -0.117 C  
BRANCH  24  25
HETATM   25  C   UNL     2      -8.932   5.635  65.847  1.00  0.00    -0.160 A  
HETATM   26  I   UNL     2      -6.767   4.180  62.352  1.00  0.00    -0.032 I  
HETATM   27  C   UNL     2     -10.050   4.784  65.881  1.00  0.00    -0.265 A  
HETATM   28  C   UNL     2      -7.973   5.443  64.833  1.00  0.00    -0.108 A  
HETATM   29  C   UNL     2     -10.249   3.818  64.898  1.00  0.00    -0.121 A  
HETATM   30  C   UNL     2      -8.169   4.456  63.864  1.00  0.00    -0.099 A  
HETATM   31  C   UNL     2      -9.309   3.651  63.887  1.00  0.00    -0.134 A  
ENDBRANCH  24  25
ENDBRANCH  14  24
BRANCH  19  32
HETATM   32  C   UNL     3     -11.438  12.587  68.679  1.00  0.00    -0.306 C  
BRANCH  32  33
HETATM   33  C   UNL     3     -12.202  12.761  69.960  1.00  0.00    -0.279 A  
HETATM   34  C   UNL     3     -13.255  13.033  72.553  1.00  0.00    -0.379 A  
HETATM   35  C   UNL     3     -12.170  13.993  70.612  1.00  0.00    -0.442 A  
HETATM   36  I   UNL     3     -12.445  15.931  72.903  1.00  0.00    -0.673 I  
HETATM   37  C   UNL     3     -13.358  11.813  71.888  1.00  0.00    -0.401 A  
HETATM   38  C   UNL     3     -12.669  14.121  71.907  1.00  0.00    -0.320 A  
HETATM   39  C   UNL     3     -12.828  11.672  70.602  1.00  0.00    -0.124 A  
ENDBRANCH  32  33
ENDBRANCH  19  32
TORSDOF 4
ENDMDL
MODEL      136
REMARK 921   NORMALIZED FREE ENERGY PREDICTED BY IDOCK:   -5.02 KCAL/MOL
REMARK 922        TOTAL FREE ENERGY PREDICTED BY IDOCK:   -6.85 KCAL/MOL
REMARK 923 INTER-LIGAND FREE ENERGY PREDICTED BY IDOCK:   -7.21 KCAL/MOL
REMARK 924 INTRA-LIGAND FREE ENERGY PREDICTED BY IDOCK:    0.36 KCAL/MOL
REMARK 927      BINDING AFFINITY PREDICTED BY RF-SCORE:    0.00 PKD
ROOT
HETATM    1  O   UNL     1      -9.937  12.266  68.361  1.00  0.00    -0.215 OA 
HETATM    2  S   UNL     1     -11.545  12.354  68.340  1.00  0.00    -0.342 S  
HETATM    3  N   UNL     2      -7.683   9.257  68.144  1.00  0.00    -0.087 NA 
HETATM    4  H1  UNL     2      -7.616  10.125  67.611  1.00  0.00     0.000 HD 
HETATM    5  H2  UNL     2      -7.089   9.078  68.954  1.00  0.00     0.000 HD 
HETATM    6  C   UNL     2      -8.591   8.362  67.724  1.00  0.00    -0.130 C  
HETATM    7  N   UNL     3      -9.763  10.089  70.248  1.00  0.00    -0.395 NA 
HETATM    8  O   UNL     1     -11.857  12.395  69.912  1.00  0.00    -0.322 OA 
HETATM    9  O   UNL     1     -11.910  13.616  67.740  1.00  0.00    -0.340 OA 
HETATM   10  O   UNL     1     -12.024  11.095  67.840  1.00  0.00    -0.624 OA 
HETATM   11  C   UNL     3     -10.858   9.305  70.365  1.00  0.00    -0.254 C  
HETATM   12  H1  UNL     3      -9.614  10.930  70.806  1.00  0.00     0.000 HD 
HETATM   13  H2  UNL     3      -9.050   9.826  69.568  1.00  0.00     0.000 HD 
HETATM   14  N   UNL     2      -9.508   8.731  66.822  1.00  0.00    -0.175 NA 
HETATM   15  N   UNL     2      -8.676   7.269  68.394  1.00  0.00    -0.123 NA 
HETATM   16  H2  UNL     2      -8.082   7.090  69.205  1.00  0.00     0.000 HD 
HETATM   17  H   UNL     2     -10.282   8.077  66.697  1.00  0.00     0.000 HD 
HETATM   18  N   UNL     3     -11.045   8.250  69.667  1.00  0.00    -0.439 NA 
HETATM   19  N   UNL     3     -11.784   9.782  71.227  1.00  0.00    -0.368 NA 
HETATM   20  H2  UNL     3     -10.332   7.987  68.986  1.00  0.00     0.000 HD 
HETATM   21  H1  UNL     2      -9.366   6.589  68.076  1.00  0.00     0.000 HD 
HETATM   22  H1  UNL     3     -11.871   7.659  69.755  1.00  0.00     0.000 HD 
HETATM   23  H   UNL     3     -11.846  10.772  71.463  1.00  0.00     0.000 HD 
ENDROOT
BRANCH  14  24
HETATM   24  C   UNL     2      -9.566   9.922  65.995  1.00  0.00    -0.225 C  
BRANCH  24  25
HETATM   25  C   UNL     2      -8.769   9.719  64.718  1.00  0.00    -0.216 A  
HETATM   26  I   UNL     2      -5.989   6.758  63.129  1.00  0.00    -0.040 I  
HETATM   27  C   UNL     2      -8.827  10.662  63.677  1.00  0.00    -0.183 A  
HETATM   28  C   UNL     2      -7.959   8.579  64.546  1.00  0.00    -0.145 A  
HETATM   29  C   UNL     2      -8.052  10.517  62.530  1.00  0.00    -0.201 A  
HETATM   30  C   UNL     2      -7.203   8.429  63.382  1.00  0.00    -0.093 A  
HETATM   31  C   UNL     2      -7.237   9.399  62.378  1.00  0.00    -0.101 A  
ENDBRANCH  24  25
ENDBRANCH  14  24
BRANCH  19  32
HETATM   32  C   UNL     3     -12.689   8.792  71.796  1.00  0.00    -0.359 C  
BRANCH  32  33
HETATM   33  C   UNL     3     -11.962   7.651  72.448  1.00  0.00    -0.298 A  
HETATM   34  C   UNL     3     -10.360   5.507  73.311  1.00  0.00    -0.233 A  
HETATM   35  C   UNL     3     -10.734   7.887  73.064  1.00  0.00    -0.408 A  
HETATM   36  I   UNL     3      -8.034   7.219  74.224  1.00  0.00    -0.232 I  
HETATM   37  C   UNL     3     -11.615   5.256  72.762  1.00  0.00    -0.270 A  
HETATM   38  C   UNL     3      -9.929   6.823  73.468  1.00  0.00    -0.243 A  
HETATM   39  C   UNL     3     -12.411   6.319  72.324  1.00  0.00    -0.147 A  
ENDBRANCH  32  33
ENDBRANCH  19  32
TORSDOF 4
ENDMDL
MODEL      137
REMARK 921   NORMALIZED FREE ENERGY PREDICTED BY IDOCK:   -5.02 KCAL/MOL
REMARK 922        TOTAL FREE ENERGY PREDICTED BY IDOCK:   -6.84 KCAL/MOL
REMARK 923 INTER-LIGAND FREE ENERGY PREDICTED BY IDOCK:   -5.92 KCAL/MOL
REMARK 924 INTRA-LIGAND FREE ENERGY PREDICTED BY IDOCK:   -0.92 KCAL/MOL
REMARK 927      BINDING AFFINITY PREDICTED BY RF-SCORE:    0.00 PKD
ROOT
HETATM    1  O   UNL     1     -11.108   7.024  67.836  1.00  0.00    -0.160 OA 
HETATM    2  S   UNL     1      -9.918   6.197  68.539  1.00  0.00    -0.159 S  
HETATM    3  N   UNL     2     -12.143  10.616  68.292  1.00  0.00    -0.789 NA 
HETATM    4  H1  UNL     2     -11.987  10.120  67.415  1.00  0.00     0.000 HD 
HETATM    5  H2  UNL     2     -13.082  10.772  68.660  1.00  0.00     0.000 HD 
HETATM    6  C   UNL     2     -11.051  11.054  68.939  1.00  0.00    -0.239 C  
HETATM    7  N   UNL     3     -12.113   8.247  70.251  1.00  0.00    -0.308 NA 
HETATM    8  O   UNL     1     -10.720   5.488  69.734  1.00  0.00    -0.322 OA 
HETATM    9  O   UNL     1      -9.463   5.197  67.602  1.00  0.00    -0.118 OA 
HETATM   10  O   UNL     1      -9.032   7.161  69.129  1.00  0.00    -0.138 OA 
HETATM   11  C   UNL     3     -11.251   8.327  71.289  1.00  0.00    -0.259 C  
HETATM   12  H1  UNL     3     -12.724   7.446  70.090  1.00  0.00     0.000 HD 
HETATM   13  H2  UNL     3     -12.153   9.027  69.595  1.00  0.00     0.000 HD 
HETATM   14  N   UNL     2      -9.844  10.621  68.556  1.00  0.00    -0.162 NA 
HETATM   15  N   UNL     2     -11.248  11.679  70.044  1.00  0.00    -0.489 NA 
HETATM   16  H2  UNL     2     -12.186  11.835  70.411  1.00  0.00     0.000 HD 
HETATM   17  H   UNL     2      -9.083  10.827  69.204  1.00  0.00     0.000 HD 
HETATM   18  N   UNL     3     -10.484   9.330  71.490  1.00  0.00    -0.345 NA 
HETATM   19  N   UNL     3     -11.205   7.210  72.050  1.00  0.00    -0.244 NA 
HETATM   20  H2  UNL     3     -10.525  10.111  70.835  1.00  0.00     0.000 HD 
HETATM   21  H1  UNL     2     -10.418  12.012  70.535  1.00  0.00     0.000 HD 
HETATM   22  H1  UNL     3      -9.833   9.390  72.274  1.00  0.00     0.000 HD 
HETATM   23  H   UNL     3     -11.474   6.295  71.688  1.00  0.00     0.000 HD 
ENDROOT
BRANCH  14  24
HETATM   24  C   UNL     2      -9.456   9.900  67.358  1.00  0.00    -0.149 C  
BRANCH  24  25
HETATM   25  C   UNL     2      -7.977  10.099  67.077  1.00  0.00    -0.110 A  
HETATM   26  I   UNL     2      -5.380  10.195  63.574  1.00  0.00    -0.157 I  
HETATM   27  C   UNL     2      -7.067  10.304  68.129  1.00  0.00    -0.082 A  
HETATM   28  C   UNL     2      -7.485  10.087  65.757  1.00  0.00    -0.121 A  
HETATM   29  C   UNL     2      -5.702  10.424  67.886  1.00  0.00    -0.040 A  
HETATM   30  C   UNL     2      -6.116  10.231  65.520  1.00  0.00    -0.113 A  
HETATM   31  C   UNL     2      -5.222  10.388  66.580  1.00  0.00    -0.043 A  
ENDBRANCH  24  25
ENDBRANCH  14  24
BRANCH  19  32
HETATM   32  C   UNL     3     -10.745   7.396  73.420  1.00  0.00    -0.357 C  
BRANCH  32  33
HETATM   33  C   UNL     3      -9.363   6.853  73.645  1.00  0.00    -0.207 A  
HETATM   34  C   UNL     3      -6.691   5.978  73.669  1.00  0.00    -0.079 A  
HETATM   35  C   UNL     3      -8.333   7.729  73.987  1.00  0.00    -0.285 A  
HETATM   36  I   UNL     3      -5.494   8.683  74.320  1.00  0.00    -0.131 I  
HETATM   37  C   UNL     3      -7.714   5.073  73.394  1.00  0.00    -0.096 A  
HETATM   38  C   UNL     3      -7.007   7.301  73.973  1.00  0.00    -0.087 A  
HETATM   39  C   UNL     3      -9.043   5.507  73.374  1.00  0.00    -0.129 A  
ENDBRANCH  32  33
ENDBRANCH  19  32
TORSDOF 4
ENDMDL
MODEL      138
REMARK 921   NORMALIZED FREE ENERGY PREDICTED BY IDOCK:   -5.02 KCAL/MOL
REMARK 922        TOTAL FREE ENERGY PREDICTED BY IDOCK:   -6.84 KCAL/MOL
REMARK 923 INTER-LIGAND FREE ENERGY PREDICTED BY IDOCK:   -6.02 KCAL/MOL
REMARK 924 INTRA-LIGAND FREE ENERGY PREDICTED BY IDOCK:   -0.82 KCAL/MOL
REMARK 927      BINDING AFFINITY PREDICTED BY RF-SCORE:    0.00 PKD
ROOT
HETATM    1  O   UNL     1      -6.233   9.921  68.356  1.00  0.00    -0.049 OA 
HETATM    2  S   UNL     1      -7.223   9.850  69.624  1.00  0.00    -0.126 S  
HETATM    3  N   UNL     2      -6.824   8.911  64.776  1.00  0.00    -0.073 NA 
HETATM    4  H1  UNL     2      -6.427   9.786  65.119  1.00  0.00     0.000 HD 
HETATM    5  H2  UNL     2      -6.235   8.160  64.415  1.00  0.00     0.000 HD 
HETATM    6  C   UNL     2      -8.161   8.798  64.823  1.00  0.00    -0.162 C  
HETATM    7  N   UNL     3      -6.789   7.264  67.371  1.00  0.00    -0.074 NA 
HETATM    8  O   UNL     1      -6.772   8.453  70.270  1.00  0.00    -0.035 OA 
HETATM    9  O   UNL     1      -6.874  10.931  70.516  1.00  0.00    -0.241 OA 
HETATM   10  O   UNL     1      -8.552   9.675  69.106  1.00  0.00    -0.130 OA 
HETATM   11  C   UNL     3      -7.961   6.713  67.758  1.00  0.00    -0.112 C  
HETATM   12  H1  UNL     3      -5.923   7.170  67.902  1.00  0.00     0.000 HD 
HETATM   13  H2  UNL     3      -6.770   7.803  66.505  1.00  0.00     0.000 HD 
HETATM   14  N   UNL     2      -8.871   9.691  65.521  1.00  0.00    -0.160 NA 
HETATM   15  N   UNL     2      -8.661   7.696  64.391  1.00  0.00    -0.360 NA 
HETATM   16  H2  UNL     2      -8.072   6.945  64.031  1.00  0.00     0.000 HD 
HETATM   17  H   UNL     2      -9.846   9.440  65.683  1.00  0.00     0.000 HD 
HETATM   18  N   UNL     3      -9.047   6.831  67.093  1.00  0.00    -0.123 NA 
HETATM   19  N   UNL     3      -7.906   6.095  68.959  1.00  0.00    -0.099 NA 
HETATM   20  H2  UNL     3      -9.028   7.369  66.226  1.00  0.00     0.000 HD 
HETATM   21  H1  UNL     2      -9.677   7.610  64.427  1.00  0.00     0.000 HD 
HETATM   22  H1  UNL     3      -9.931   6.415  67.384  1.00  0.00     0.000 HD 
HETATM   23  H   UNL     3      -7.207   6.336  69.662  1.00  0.00     0.000 HD 
ENDROOT
BRANCH  14  24
HETATM   24  C   UNL     2      -8.461  10.966  66.081  1.00  0.00    -0.171 C  
BRANCH  24  25
HETATM   25  C   UNL     2      -9.675  11.833  66.369  1.00  0.00    -0.234 A  
HETATM   26  I   UNL     2     -11.361  15.562  64.863  1.00  0.00    -0.071 I  
HETATM   27  C   UNL     2     -10.590  11.476  67.375  1.00  0.00    -0.252 A  
HETATM   28  C   UNL     2      -9.914  13.008  65.631  1.00  0.00    -0.239 A  
HETATM   29  C   UNL     2     -11.669  12.296  67.689  1.00  0.00    -0.403 A  
HETATM   30  C   UNL     2     -11.013  13.814  65.936  1.00  0.00    -0.283 A  
HETATM   31  C   UNL     2     -11.885  13.468  66.970  1.00  0.00    -0.447 A  
ENDBRANCH  24  25
ENDBRANCH  14  24
BRANCH  19  32
HETATM   32  C   UNL     3      -8.910   5.064  69.188  1.00  0.00    -0.092 C  
BRANCH  32  33
HETATM   33  C   UNL     3      -9.840   5.401  70.317  1.00  0.00    -0.272 A  
HETATM   34  C   UNL     3     -11.252   6.260  72.592  1.00  0.00    -0.302 A  
HETATM   35  C   UNL     3     -10.474   6.643  70.330  1.00  0.00    -0.249 A  
HETATM   36  I   UNL     3     -11.936   9.003  71.503  1.00  0.00    -0.483 I  
HETATM   37  C   UNL     3     -10.683   4.989  72.569  1.00  0.00    -0.271 A  
HETATM   38  C   UNL     3     -11.153   7.078  71.468  1.00  0.00    -0.243 A  
HETATM   39  C   UNL     3      -9.973   4.562  71.443  1.00  0.00    -0.259 A  
ENDBRANCH  32  33
ENDBRANCH  19  32
TORSDOF 4
ENDMDL
MODEL      139
REMARK 921   NORMALIZED FREE ENERGY PREDICTED BY IDOCK:   -5.00 KCAL/MOL
REMARK 922        TOTAL FREE ENERGY PREDICTED BY IDOCK:   -6.82 KCAL/MOL
REMARK 923 INTER-LIGAND FREE ENERGY PREDICTED BY IDOCK:   -6.19 KCAL/MOL
REMARK 924 INTRA-LIGAND FREE ENERGY PREDICTED BY IDOCK:   -0.63 KCAL/MOL
REMARK 927      BINDING AFFINITY PREDICTED BY RF-SCORE:    0.00 PKD
ROOT
HETATM    1  O   UNL     1      -7.909   6.507  70.565  1.00  0.00    -0.102 OA 
HETATM    2  S   UNL     1      -7.184   7.941  70.457  1.00  0.00    -0.053 S  
HETATM    3  N   UNL     2     -10.279   4.816  68.177  1.00  0.00    -0.047 NA 
HETATM    4  H1  UNL     2      -9.451   4.416  68.619  1.00  0.00     0.000 HD 
HETATM    5  H2  UNL     2     -11.218   4.628  68.529  1.00  0.00     0.000 HD 
HETATM    6  C   UNL     2     -10.071   5.600  67.107  1.00  0.00    -0.183 C  
HETATM    7  N   UNL     3     -10.536   7.419  69.790  1.00  0.00    -0.223 NA 
HETATM    8  O   UNL     1      -8.197   8.846  71.310  1.00  0.00    -0.162 OA 
HETATM    9  O   UNL     1      -5.919   7.849  71.146  1.00  0.00    -0.034 OA 
HETATM   10  O   UNL     1      -7.287   8.357  69.086  1.00  0.00    -0.076 OA 
HETATM   11  C   UNL     3     -10.588   8.570  69.084  1.00  0.00    -0.173 C  
HETATM   12  H1  UNL     3     -10.561   7.386  70.809  1.00  0.00     0.000 HD 
HETATM   13  H2  UNL     3     -10.466   6.540  69.278  1.00  0.00     0.000 HD 
HETATM   14  N   UNL     2      -8.830   6.015  66.829  1.00  0.00    -0.118 NA 
HETATM   15  N   UNL     2     -11.113   6.102  66.549  1.00  0.00    -0.749 NA 
HETATM   16  H2  UNL     2     -12.052   5.915  66.902  1.00  0.00     0.000 HD 
HETATM   17  H   UNL     2      -8.766   6.760  66.135  1.00  0.00     0.000 HD 
HETATM   18  N   UNL     3     -10.556   8.613  67.806  1.00  0.00    -0.410 NA 
HETATM   19  N   UNL     3     -10.590   9.684  69.850  1.00  0.00    -0.231 NA 
HETATM   20  H2  UNL     3     -10.487   7.734  67.294  1.00  0.00     0.000 HD 
HETATM   21  H1  UNL     2     -10.956   6.698  65.736  1.00  0.00     0.000 HD 
HETATM   22  H1  UNL     3     -10.596   9.482  67.273  1.00  0.00     0.000 HD 
HETATM   23  H   UNL     3     -10.212   9.692  70.798  1.00  0.00     0.000 HD 
ENDROOT
BRANCH  14  24
HETATM   24  C   UNL     2      -7.560   5.564  67.369  1.00  0.00    -0.089 C  
BRANCH  24  25
HETATM   25  C   UNL     2      -7.106   4.297  66.665  1.00  0.00    -0.063 A  
HETATM   26  I   UNL     2      -7.002   2.780  62.577  1.00  0.00    -0.033 I  
HETATM   27  C   UNL     2      -6.563   3.225  67.395  1.00  0.00    -0.038 A  
HETATM   28  C   UNL     2      -7.213   4.170  65.266  1.00  0.00    -0.071 A  
HETATM   29  C   UNL     2      -6.204   2.036  66.767  1.00  0.00    -0.023 A  
HETATM   30  C   UNL     2      -6.828   2.982  64.641  1.00  0.00    -0.041 A  
HETATM   31  C   UNL     2      -6.334   1.911  65.388  1.00  0.00    -0.023 A  
ENDBRANCH  24  25
ENDBRANCH  14  24
BRANCH  19  32
HETATM   32  C   UNL     3     -11.165  10.874  69.237  1.00  0.00    -0.265 C  
BRANCH  32  33
HETATM   33  C   UNL     3     -12.017  11.662  70.190  1.00  0.00    -0.441 A  
HETATM   34  C   UNL     3     -13.271  13.127  72.237  1.00  0.00    -0.555 A  
HETATM   35  C   UNL     3     -11.834  13.041  70.289  1.00  0.00    -0.294 A  
HETATM   36  I   UNL     3     -11.997  15.782  71.530  1.00  0.00    -0.590 I  
HETATM   37  C   UNL     3     -13.520  11.762  72.110  1.00  0.00    -0.273 A  
HETATM   38  C   UNL     3     -12.435  13.762  71.320  1.00  0.00    -0.345 A  
HETATM   39  C   UNL     3     -12.892  11.030  71.098  1.00  0.00    -0.491 A  
ENDBRANCH  32  33
ENDBRANCH  19  32
TORSDOF 4
ENDMDL
MODEL      140
REMARK 921   NORMALIZED FREE ENERGY PREDICTED BY IDOCK:   -5.00 KCAL/MOL
REMARK 922        TOTAL FREE ENERGY PREDICTED BY IDOCK:   -6.82 KCAL/MOL
REMARK 923 INTER-LIGAND FREE ENERGY PREDICTED BY IDOCK:   -6.09 KCAL/MOL
REMARK 924 INTRA-LIGAND FREE ENERGY PREDICTED BY IDOCK:   -0.72 KCAL/MOL
REMARK 927      BINDING AFFINITY PREDICTED BY RF-SCORE:    0.00 PKD
ROOT
HETATM    1  O   UNL     1      -9.258   9.684  70.371  1.00  0.00    -0.250 OA 
HETATM    2  S   UNL     1     -10.811   9.550  69.965  1.00  0.00    -0.265 S  
HETATM    3  N   UNL     2      -6.203   9.907  68.179  1.00  0.00    -0.054 NA 
HETATM    4  H1  UNL     2      -6.448  10.505  68.969  1.00  0.00     0.000 HD 
HETATM    5  H2  UNL     2      -5.526   9.149  68.271  1.00  0.00     0.000 HD 
HETATM    6  C   UNL     2      -6.817  10.167  67.014  1.00  0.00    -0.083 C  
HETATM    7  N   UNL     3      -8.279   7.670  68.549  1.00  0.00    -0.124 NA 
HETATM    8  O   UNL     1     -11.004   7.961  70.067  1.00  0.00    -0.249 OA 
HETATM    9  O   UNL     1     -11.592  10.200  70.990  1.00  0.00    -0.349 OA 
HETATM   10  O   UNL     1     -10.911   9.906  68.577  1.00  0.00    -0.229 OA 
HETATM   11  C   UNL     3      -9.065   7.387  67.486  1.00  0.00    -0.125 C  
HETATM   12  H1  UNL     3      -8.358   7.193  69.447  1.00  0.00     0.000 HD 
HETATM   13  H2  UNL     3      -7.571   8.398  68.448  1.00  0.00     0.000 HD 
HETATM   14  N   UNL     2      -7.867  10.997  66.995  1.00  0.00    -0.131 NA 
HETATM   15  N   UNL     2      -6.509   9.414  66.020  1.00  0.00    -0.068 NA 
HETATM   16  H2  UNL     2      -5.831   8.656  66.111  1.00  0.00     0.000 HD 
HETATM   17  H   UNL     2      -8.406  10.995  66.130  1.00  0.00     0.000 HD 
HETATM   18  N   UNL     3      -8.966   7.984  66.360  1.00  0.00    -0.160 NA 
HETATM   19  N   UNL     3     -10.028   6.474  67.744  1.00  0.00    -0.126 NA 
HETATM   20  H2  UNL     3      -8.258   8.712  66.258  1.00  0.00     0.000 HD 
HETATM   21  H1  UNL     2      -6.975   9.611  65.134  1.00  0.00     0.000 HD 
HETATM   22  H1  UNL     3      -9.559   7.771  65.558  1.00  0.00     0.000 HD 
HETATM   23  H   UNL     3     -10.377   6.305  68.688  1.00  0.00     0.000 HD 
ENDROOT
BRANCH  14  24
HETATM   24  C   UNL     2      -8.352  11.898  68.024  1.00  0.00    -0.160 C  
BRANCH  24  25
HETATM   25  C   UNL     2      -9.638  12.570  67.575  1.00  0.00    -0.187 A  
HETATM   26  I   UNL     2     -12.141  12.604  64.004  1.00  0.00    -0.617 I  
HETATM   27  C   UNL     2     -10.317  13.461  68.425  1.00  0.00    -0.253 A  
HETATM   28  C   UNL     2     -10.182  12.310  66.302  1.00  0.00    -0.251 A  
HETATM   29  C   UNL     2     -11.462  14.129  67.999  1.00  0.00    -0.342 A  
HETATM   30  C   UNL     2     -11.344  12.967  65.891  1.00  0.00    -0.313 A  
HETATM   31  C   UNL     2     -11.979  13.884  66.731  1.00  0.00    -0.472 A  
ENDBRANCH  24  25
ENDBRANCH  14  24
BRANCH  19  32
HETATM   32  C   UNL     3     -10.536   5.746  66.589  1.00  0.00    -0.280 C  
BRANCH  32  33
HETATM   33  C   UNL     3      -9.831   4.438  66.373  1.00  0.00    -0.245 A  
HETATM   34  C   UNL     3      -8.149   2.206  66.058  1.00  0.00    -0.085 A  
HETATM   35  C   UNL     3      -9.444   3.681  67.478  1.00  0.00    -0.237 A  
HETATM   36  I   UNL     3      -7.902   1.596  69.014  1.00  0.00    -0.060 I  
HETATM   37  C   UNL     3      -8.583   2.910  64.937  1.00  0.00    -0.100 A  
HETATM   38  C   UNL     3      -8.589   2.590  67.323  1.00  0.00    -0.107 A  
HETATM   39  C   UNL     3      -9.413   4.025  65.090  1.00  0.00    -0.172 A  
ENDBRANCH  32  33
ENDBRANCH  19  32
TORSDOF 4
ENDMDL
MODEL      141
REMARK 921   NORMALIZED FREE ENERGY PREDICTED BY IDOCK:   -5.00 KCAL/MOL
REMARK 922        TOTAL FREE ENERGY PREDICTED BY IDOCK:   -6.82 KCAL/MOL
REMARK 923 INTER-LIGAND FREE ENERGY PREDICTED BY IDOCK:   -5.98 KCAL/MOL
REMARK 924 INTRA-LIGAND FREE ENERGY PREDICTED BY IDOCK:   -0.83 KCAL/MOL
REMARK 927      BINDING AFFINITY PREDICTED BY RF-SCORE:    0.00 PKD
ROOT
HETATM    1  O   UNL     1     -11.521   7.044  67.978  1.00  0.00     0.125 OA 
HETATM    2  S   UNL     1     -10.229   6.186  68.414  1.00  0.00    -0.196 S  
HETATM    3  N   UNL     2     -12.027  10.775  67.908  1.00  0.00    -0.707 NA 
HETATM    4  H1  UNL     2     -12.240  10.104  67.170  1.00  0.00     0.000 HD 
HETATM    5  H2  UNL     2     -12.754  11.144  68.522  1.00  0.00     0.000 HD 
HETATM    6  C   UNL     2     -10.744  11.149  68.031  1.00  0.00    -0.211 C  
HETATM    7  N   UNL     3     -11.483   8.843  70.236  1.00  0.00    -0.438 NA 
HETATM    8  O   UNL     1     -10.600   5.851  69.938  1.00  0.00    -0.241 OA 
HETATM    9  O   UNL     1     -10.226   4.969  67.638  1.00  0.00    -0.163 OA 
HETATM   10  O   UNL     1      -9.114   7.092  68.432  1.00  0.00    -0.129 OA 
HETATM   11  C   UNL     3     -10.301   8.979  70.877  1.00  0.00    -0.256 C  
HETATM   12  H1  UNL     3     -12.174   8.133  70.480  1.00  0.00     0.000 HD 
HETATM   13  H2  UNL     3     -11.695   9.482  69.470  1.00  0.00     0.000 HD 
HETATM   14  N   UNL     2      -9.796  10.466  67.378  1.00  0.00    -0.174 NA 
HETATM   15  N   UNL     2     -10.476  11.994  68.961  1.00  0.00    -0.405 NA 
HETATM   16  H2  UNL     2     -11.203  12.363  69.575  1.00  0.00     0.000 HD 
HETATM   17  H   UNL     2      -8.838  10.668  67.667  1.00  0.00     0.000 HD 
HETATM   18  N   UNL     3      -9.435   9.869  70.571  1.00  0.00    -0.345 NA 
HETATM   19  N   UNL     3     -10.074   8.033  71.816  1.00  0.00    -0.181 NA 
HETATM   20  H2  UNL     3      -9.646  10.508  69.806  1.00  0.00     0.000 HD 
HETATM   21  H1  UNL     2      -9.501  12.278  69.054  1.00  0.00     0.000 HD 
HETATM   22  H1  UNL     3      -8.542   9.972  71.055  1.00  0.00     0.000 HD 
HETATM   23  H   UNL     3     -10.529   7.121  71.788  1.00  0.00     0.000 HD 
ENDROOT
BRANCH  14  24
HETATM   24  C   UNL     2      -9.927   9.481  66.321  1.00  0.00    -0.274 C  
BRANCH  24  25
HETATM   25  C   UNL     2      -9.339  10.013  65.025  1.00  0.00    -0.314 A  
HETATM   26  I   UNL     2      -5.458   9.985  63.035  1.00  0.00    -0.138 I  
HETATM   27  C   UNL     2     -10.131  10.746  64.125  1.00  0.00    -0.418 A  
HETATM   28  C   UNL     2      -7.990   9.779  64.696  1.00  0.00    -0.139 A  
HETATM   29  C   UNL     2      -9.585  11.292  62.966  1.00  0.00    -0.397 A  
HETATM   30  C   UNL     2      -7.455  10.310  63.519  1.00  0.00    -0.098 A  
HETATM   31  C   UNL     2      -8.245  11.075  62.659  1.00  0.00    -0.122 A  
ENDBRANCH  24  25
ENDBRANCH  14  24
BRANCH  19  32
HETATM   32  C   UNL     3      -9.136   8.399  72.870  1.00  0.00    -0.212 C  
BRANCH  32  33
HETATM   33  C   UNL     3      -8.020   7.406  73.021  1.00  0.00    -0.125 A  
HETATM   34  C   UNL     3      -6.238   5.248  73.291  1.00  0.00    -0.051 A  
HETATM   35  C   UNL     3      -7.552   6.729  71.896  1.00  0.00    -0.095 A  
HETATM   36  I   UNL     3      -6.153   4.558  70.343  1.00  0.00    -0.023 I  
HETATM   37  C   UNL     3      -6.641   5.958  74.419  1.00  0.00    -0.076 A  
HETATM   38  C   UNL     3      -6.688   5.642  72.033  1.00  0.00    -0.063 A  
HETATM   39  C   UNL     3      -7.533   7.027  74.290  1.00  0.00    -0.119 A  
ENDBRANCH  32  33
ENDBRANCH  19  32
TORSDOF 4
ENDMDL
MODEL      142
REMARK 921   NORMALIZED FREE ENERGY PREDICTED BY IDOCK:   -4.99 KCAL/MOL
REMARK 922        TOTAL FREE ENERGY PREDICTED BY IDOCK:   -6.80 KCAL/MOL
REMARK 923 INTER-LIGAND FREE ENERGY PREDICTED BY IDOCK:   -6.23 KCAL/MOL
REMARK 924 INTRA-LIGAND FREE ENERGY PREDICTED BY IDOCK:   -0.57 KCAL/MOL
REMARK 927      BINDING AFFINITY PREDICTED BY RF-SCORE:    0.00 PKD
ROOT
HETATM    1  O   UNL     1     -12.973   8.623  70.469  1.00  0.00     0.393 OA 
HETATM    2  S   UNL     1     -12.514   9.660  71.613  1.00  0.00    -0.424 S  
HETATM    3  N   UNL     2     -10.968   7.046  67.698  1.00  0.00    -0.503 NA 
HETATM    4  H1  UNL     2     -11.597   6.582  68.354  1.00  0.00     0.000 HD 
HETATM    5  H2  UNL     2     -11.258   7.273  66.746  1.00  0.00     0.000 HD 
HETATM    6  C   UNL     2      -9.740   7.345  68.151  1.00  0.00    -0.151 C  
HETATM    7  N   UNL     3     -11.680   9.981  68.274  1.00  0.00    -0.569 NA 
HETATM    8  O   UNL     1     -12.939  11.050  70.936  1.00  0.00    -0.316 OA 
HETATM    9  O   UNL     1     -13.330   9.419  72.779  1.00  0.00    -0.322 OA 
HETATM   10  O   UNL     1     -11.078   9.624  71.656  1.00  0.00    -0.348 OA 
HETATM   11  C   UNL     3     -10.657  10.804  68.594  1.00  0.00    -0.199 C  
HETATM   12  H1  UNL     3     -12.653  10.286  68.233  1.00  0.00     0.000 HD 
HETATM   13  H2  UNL     3     -11.469   9.005  68.063  1.00  0.00     0.000 HD 
HETATM   14  N   UNL     2      -9.484   7.257  69.462  1.00  0.00    -0.155 NA 
HETATM   15  N   UNL     2      -8.948   7.930  67.326  1.00  0.00    -0.126 NA 
HETATM   16  H2  UNL     2      -9.238   8.156  66.374  1.00  0.00     0.000 HD 
HETATM   17  H   UNL     2      -8.608   7.684  69.763  1.00  0.00     0.000 HD 
HETATM   18  N   UNL     3      -9.438  10.422  68.646  1.00  0.00    -0.159 NA 
HETATM   19  N   UNL     3     -11.045  12.051  68.943  1.00  0.00    -0.235 NA 
HETATM   20  H2  UNL     3      -9.226   9.447  68.435  1.00  0.00     0.000 HD 
HETATM   21  H1  UNL     2      -8.014   8.157  67.669  1.00  0.00     0.000 HD 
HETATM   22  H1  UNL     3      -8.665  11.043  68.888  1.00  0.00     0.000 HD 
HETATM   23  H   UNL     3     -11.981  12.249  69.298  1.00  0.00     0.000 HD 
ENDROOT
BRANCH  14  24
HETATM   24  C   UNL     2     -10.268   6.645  70.519  1.00  0.00    -0.189 C  
BRANCH  24  25
HETATM   25  C   UNL     2      -9.672   5.304  70.910  1.00  0.00    -0.244 A  
HETATM   26  I   UNL     2      -8.717   1.538  68.929  1.00  0.00    -0.147 I  
HETATM   27  C   UNL     2      -9.288   5.049  72.238  1.00  0.00    -0.161 A  
HETATM   28  C   UNL     2      -9.487   4.289  69.951  1.00  0.00    -0.260 A  
HETATM   29  C   UNL     2      -8.800   3.801  72.618  1.00  0.00    -0.106 A  
HETATM   30  C   UNL     2      -8.975   3.048  70.336  1.00  0.00    -0.100 A  
HETATM   31  C   UNL     2      -8.642   2.797  71.669  1.00  0.00    -0.099 A  
ENDBRANCH  24  25
ENDBRANCH  14  24
BRANCH  19  32
HETATM   32  C   UNL     3     -10.043  13.096  68.779  1.00  0.00    -0.061 C  
BRANCH  32  33
HETATM   33  C   UNL     3     -10.332  13.999  67.615  1.00  0.00    -0.242 A  
HETATM   34  C   UNL     3     -11.171  15.868  65.689  1.00  0.00     0.003 A  
HETATM   35  C   UNL     3      -9.809  15.291  67.607  1.00  0.00    -0.217 A  
HETATM   36  I   UNL     3      -9.566  18.184  66.800  1.00  0.00    -0.343 I  
HETATM   37  C   UNL     3     -11.651  14.562  65.641  1.00  0.00    -0.344 A  
HETATM   38  C   UNL     3     -10.244  16.225  66.668  1.00  0.00    -0.284 A  
HETATM   39  C   UNL     3     -11.242  13.632  66.601  1.00  0.00    -0.324 A  
ENDBRANCH  32  33
ENDBRANCH  19  32
TORSDOF 4
ENDMDL
MODEL      143
REMARK 921   NORMALIZED FREE ENERGY PREDICTED BY IDOCK:   -4.96 KCAL/MOL
REMARK 922        TOTAL FREE ENERGY PREDICTED BY IDOCK:   -6.77 KCAL/MOL
REMARK 923 INTER-LIGAND FREE ENERGY PREDICTED BY IDOCK:   -6.23 KCAL/MOL
REMARK 924 INTRA-LIGAND FREE ENERGY PREDICTED BY IDOCK:   -0.54 KCAL/MOL
REMARK 927      BINDING AFFINITY PREDICTED BY RF-SCORE:    0.00 PKD
ROOT
HETATM    1  O   UNL     1      -9.836   9.250  70.539  1.00  0.00    -0.215 OA 
HETATM    2  S   UNL     1     -10.573   8.037  69.778  1.00  0.00    -0.225 S  
HETATM    3  N   UNL     2      -8.037  12.243  69.130  1.00  0.00    -0.285 NA 
HETATM    4  H1  UNL     2      -8.747  12.231  69.863  1.00  0.00     0.000 HD 
HETATM    5  H2  UNL     2      -7.043  12.316  69.348  1.00  0.00     0.000 HD 
HETATM    6  C   UNL     2      -8.476  12.158  67.865  1.00  0.00    -0.163 C  
HETATM    7  N   UNL     3      -7.446   9.234  68.921  1.00  0.00    -0.074 NA 
HETATM    8  O   UNL     1      -9.403   6.940  69.772  1.00  0.00    -0.147 OA 
HETATM    9  O   UNL     1     -11.658   7.584  70.617  1.00  0.00    -0.288 OA 
HETATM   10  O   UNL     1     -10.774   8.458  68.419  1.00  0.00    -0.146 OA 
HETATM   11  C   UNL     3      -7.553   8.676  67.695  1.00  0.00    -0.098 C  
HETATM   12  H1  UNL     3      -7.198   8.705  69.757  1.00  0.00     0.000 HD 
HETATM   13  H2  UNL     3      -7.622  10.234  69.015  1.00  0.00     0.000 HD 
HETATM   14  N   UNL     2      -9.750  11.819  67.634  1.00  0.00    -0.179 NA 
HETATM   15  N   UNL     2      -7.582  12.172  66.942  1.00  0.00    -0.344 NA 
HETATM   16  H2  UNL     2      -6.588  12.245  67.160  1.00  0.00     0.000 HD 
HETATM   17  H   UNL     2      -9.966  11.577  66.667  1.00  0.00     0.000 HD 
HETATM   18  N   UNL     3      -7.863   9.339  66.646  1.00  0.00    -0.103 NA 
HETATM   19  N   UNL     3      -7.390   7.334  67.686  1.00  0.00    -0.090 NA 
HETATM   20  H2  UNL     3      -8.039  10.339  66.739  1.00  0.00     0.000 HD 
HETATM   21  H1  UNL     2      -7.916  12.108  65.980  1.00  0.00     0.000 HD 
HETATM   22  H1  UNL     3      -7.945   8.918  65.720  1.00  0.00     0.000 HD 
HETATM   23  H   UNL     3      -7.552   6.762  68.515  1.00  0.00     0.000 HD 
ENDROOT
BRANCH  14  24
HETATM   24  C   UNL     2     -10.870  11.744  68.554  1.00  0.00    -0.224 C  
BRANCH  24  25
HETATM   25  C   UNL     2     -11.322  13.139  68.951  1.00  0.00    -0.335 A  
HETATM   26  I   UNL     2     -13.470  14.971  72.275  1.00  0.00    -0.725 I  
HETATM   27  C   UNL     2     -11.066  14.241  68.117  1.00  0.00    -0.275 A  
HETATM   28  C   UNL     2     -12.003  13.359  70.164  1.00  0.00    -0.396 A  
HETATM   29  C   UNL     2     -11.533  15.512  68.441  1.00  0.00    -0.370 A  
HETATM   30  C   UNL     2     -12.447  14.642  70.493  1.00  0.00    -0.347 A  
HETATM   31  C   UNL     2     -12.224  15.717  69.631  1.00  0.00    -0.264 A  
ENDBRANCH  24  25
ENDBRANCH  14  24
BRANCH  19  32
HETATM   32  C   UNL     3      -6.967   6.755  66.418  1.00  0.00    -0.062 C  
BRANCH  32  33
HETATM   33  C   UNL     3      -7.818   5.590  66.001  1.00  0.00    -0.104 A  
HETATM   34  C   UNL     3      -9.446   3.611  64.843  1.00  0.00    -0.161 A  
HETATM   35  C   UNL     3      -7.259   4.584  65.215  1.00  0.00    -0.068 A  
HETATM   36  I   UNL     3      -7.215   2.241  63.320  1.00  0.00    -0.047 I  
HETATM   37  C   UNL     3     -10.010   4.569  65.682  1.00  0.00    -0.245 A  
HETATM   38  C   UNL     3      -8.070   3.618  64.620  1.00  0.00    -0.090 A  
HETATM   39  C   UNL     3      -9.205   5.559  66.253  1.00  0.00    -0.161 A  
ENDBRANCH  32  33
ENDBRANCH  19  32
TORSDOF 4
ENDMDL
MODEL      144
REMARK 921   NORMALIZED FREE ENERGY PREDICTED BY IDOCK:   -4.96 KCAL/MOL
REMARK 922        TOTAL FREE ENERGY PREDICTED BY IDOCK:   -6.76 KCAL/MOL
REMARK 923 INTER-LIGAND FREE ENERGY PREDICTED BY IDOCK:   -6.01 KCAL/MOL
REMARK 924 INTRA-LIGAND FREE ENERGY PREDICTED BY IDOCK:   -0.75 KCAL/MOL
REMARK 927      BINDING AFFINITY PREDICTED BY RF-SCORE:    0.00 PKD
ROOT
HETATM    1  O   UNL     1      -6.996   9.918  64.298  1.00  0.00    -0.119 OA 
HETATM    2  S   UNL     1      -8.489   9.864  63.698  1.00  0.00    -0.199 S  
HETATM    3  N   UNL     2      -5.837   9.953  67.881  1.00  0.00    -0.040 NA 
HETATM    4  H1  UNL     2      -5.497   9.361  67.123  1.00  0.00     0.000 HD 
HETATM    5  H2  UNL     2      -5.327  10.783  68.183  1.00  0.00     0.000 HD 
HETATM    6  C   UNL     2      -6.990   9.583  68.463  1.00  0.00    -0.065 C  
HETATM    7  N   UNL     3      -7.521  11.958  66.272  1.00  0.00    -0.320 NA 
HETATM    8  O   UNL     1      -8.759  11.424  63.444  1.00  0.00     0.049 OA 
HETATM    9  O   UNL     1      -8.431   9.170  62.433  1.00  0.00    -0.174 OA 
HETATM   10  O   UNL     1      -9.354   9.447  64.767  1.00  0.00    -0.219 OA 
HETATM   11  C   UNL     3      -8.809  12.113  66.649  1.00  0.00    -0.182 C  
HETATM   12  H1  UNL     3      -7.104  12.457  65.485  1.00  0.00     0.000 HD 
HETATM   13  H2  UNL     3      -6.936  11.310  66.799  1.00  0.00     0.000 HD 
HETATM   14  N   UNL     2      -7.745   8.642  67.885  1.00  0.00    -0.101 NA 
HETATM   15  N   UNL     2      -7.417  10.328  69.418  1.00  0.00    -0.113 NA 
HETATM   16  H2  UNL     2      -6.907  11.158  69.720  1.00  0.00     0.000 HD 
HETATM   17  H   UNL     2      -8.689   8.551  68.260  1.00  0.00     0.000 HD 
HETATM   18  N   UNL     3      -9.333  11.488  67.635  1.00  0.00    -0.168 NA 
HETATM   19  N   UNL     3      -9.526  12.923  65.837  1.00  0.00    -0.458 NA 
HETATM   20  H2  UNL     3      -8.748  10.840  68.163  1.00  0.00     0.000 HD 
HETATM   21  H1  UNL     2      -8.293  10.047  69.861  1.00  0.00     0.000 HD 
HETATM   22  H1  UNL     3     -10.305  11.604  67.920  1.00  0.00     0.000 HD 
HETATM   23  H   UNL     3      -9.262  13.087  64.865  1.00  0.00     0.000 HD 
ENDROOT
BRANCH  14  24
HETATM   24  C   UNL     2      -7.420   7.731  66.802  1.00  0.00    -0.090 C  
BRANCH  24  25
HETATM   25  C   UNL     2      -8.554   6.744  66.584  1.00  0.00    -0.123 A  
HETATM   26  I   UNL     2      -9.356   3.330  63.992  1.00  0.00    -0.155 I  
HETATM   27  C   UNL     2      -9.739   6.833  67.335  1.00  0.00    -0.164 A  
HETATM   28  C   UNL     2      -8.441   5.715  65.629  1.00  0.00    -0.147 A  
HETATM   29  C   UNL     2     -10.807   5.973  67.098  1.00  0.00    -0.414 A  
HETATM   30  C   UNL     2      -9.509   4.840  65.414  1.00  0.00    -0.151 A  
HETATM   31  C   UNL     2     -10.696   4.973  66.137  1.00  0.00    -0.264 A  
ENDBRANCH  24  25
ENDBRANCH  14  24
BRANCH  19  32
HETATM   32  C   UNL     3     -10.698  13.546  66.438  1.00  0.00    -0.287 C  
BRANCH  32  33
HETATM   33  C   UNL     3     -10.422  14.936  66.936  1.00  0.00    -0.280 A  
HETATM   34  C   UNL     3      -9.618  17.353  68.127  1.00  0.00    -0.287 A  
HETATM   35  C   UNL     3      -9.303  15.620  66.464  1.00  0.00    -0.305 A  
HETATM   36  I   UNL     3      -7.121  17.699  66.448  1.00  0.00    -0.341 I  
HETATM   37  C   UNL     3     -10.778  16.717  68.564  1.00  0.00    -0.358 A  
HETATM   38  C   UNL     3      -8.890  16.805  67.072  1.00  0.00    -0.207 A  
HETATM   39  C   UNL     3     -11.177  15.512  67.979  1.00  0.00    -0.332 A  
ENDBRANCH  32  33
ENDBRANCH  19  32
TORSDOF 4
ENDMDL
MODEL      145
REMARK 921   NORMALIZED FREE ENERGY PREDICTED BY IDOCK:   -4.89 KCAL/MOL
REMARK 922        TOTAL FREE ENERGY PREDICTED BY IDOCK:   -6.68 KCAL/MOL
REMARK 923 INTER-LIGAND FREE ENERGY PREDICTED BY IDOCK:   -6.02 KCAL/MOL
REMARK 924 INTRA-LIGAND FREE ENERGY PREDICTED BY IDOCK:   -0.66 KCAL/MOL
REMARK 927      BINDING AFFINITY PREDICTED BY RF-SCORE:    0.00 PKD
ROOT
HETATM    1  O   UNL     1     -11.621   6.229  69.704  1.00  0.00    -0.430 OA 
HETATM    2  S   UNL     1     -10.811   7.197  70.705  1.00  0.00    -0.253 S  
HETATM    3  N   UNL     2     -10.717   5.031  66.250  1.00  0.00    -0.500 NA 
HETATM    4  H1  UNL     2     -11.046   4.471  67.037  1.00  0.00     0.000 HD 
HETATM    5  H2  UNL     2     -11.343   5.315  65.496  1.00  0.00     0.000 HD 
HETATM    6  C   UNL     2      -9.419   5.376  66.257  1.00  0.00    -0.157 C  
HETATM    7  N   UNL     3     -11.270   7.851  67.342  1.00  0.00    -0.273 NA 
HETATM    8  O   UNL     1     -11.502   8.605  70.374  1.00  0.00    -0.239 OA 
HETATM    9  O   UNL     1     -11.135   6.804  72.056  1.00  0.00    -0.234 OA 
HETATM   10  O   UNL     1      -9.459   7.258  70.222  1.00  0.00    -0.165 OA 
HETATM   11  C   UNL     3     -10.230   8.714  67.354  1.00  0.00    -0.262 C  
HETATM   12  H1  UNL     3     -12.200   8.089  67.687  1.00  0.00     0.000 HD 
HETATM   13  H2  UNL     3     -11.117   6.913  66.970  1.00  0.00     0.000 HD 
HETATM   14  N   UNL     2      -8.699   5.198  67.370  1.00  0.00    -0.104 NA 
HETATM   15  N   UNL     2      -9.006   6.081  65.266  1.00  0.00    -0.367 NA 
HETATM   16  H2  UNL     2      -9.632   6.365  64.511  1.00  0.00     0.000 HD 
HETATM   17  H   UNL     2      -7.789   5.659  67.376  1.00  0.00     0.000 HD 
HETATM   18  N   UNL     3      -9.064   8.415  66.922  1.00  0.00    -0.142 NA 
HETATM   19  N   UNL     3     -10.507   9.898  67.945  1.00  0.00    -0.219 NA 
HETATM   20  H2  UNL     3      -8.911   7.478  66.549  1.00  0.00     0.000 HD 
HETATM   21  H1  UNL     2      -8.020   6.343  65.270  1.00  0.00     0.000 HD 
HETATM   22  H1  UNL     3      -8.279   9.066  66.931  1.00  0.00     0.000 HD 
HETATM   23  H   UNL     3     -11.254  10.000  68.633  1.00  0.00     0.000 HD 
ENDROOT
BRANCH  14  24
HETATM   24  C   UNL     2      -9.019   4.447  68.570  1.00  0.00    -0.115 C  
BRANCH  24  25
HETATM   25  C   UNL     2      -7.748   3.957  69.242  1.00  0.00    -0.053 A  
HETATM   26  I   UNL     2      -5.426   4.963  72.794  1.00  0.00    -0.010 I  
HETATM   27  C   UNL     2      -6.997   2.910  68.681  1.00  0.00    -0.048 A  
HETATM   28  C   UNL     2      -7.298   4.536  70.445  1.00  0.00    -0.049 A  
HETATM   29  C   UNL     2      -5.798   2.497  69.255  1.00  0.00    -0.023 A  
HETATM   30  C   UNL     2      -6.107   4.099  71.028  1.00  0.00    -0.014 A  
HETATM   31  C   UNL     2      -5.349   3.090  70.431  1.00  0.00    -0.012 A  
ENDBRANCH  24  25
ENDBRANCH  14  24
BRANCH  19  32
HETATM   32  C   UNL     3      -9.671  11.020  67.539  1.00  0.00    -0.172 C  
BRANCH  32  33
HETATM   33  C   UNL     3     -10.383  12.338  67.637  1.00  0.00    -0.214 A  
HETATM   34  C   UNL     3     -11.423  14.906  68.117  1.00  0.00    -0.348 A  
HETATM   35  C   UNL     3      -9.853  13.450  66.985  1.00  0.00    -0.250 A  
HETATM   36  I   UNL     3      -9.419  16.371  66.380  1.00  0.00    -0.375 I  
HETATM   37  C   UNL     3     -12.009  13.797  68.723  1.00  0.00    -0.400 A  
HETATM   38  C   UNL     3     -10.352  14.726  67.243  1.00  0.00    -0.247 A  
HETATM   39  C   UNL     3     -11.490  12.520  68.492  1.00  0.00    -0.346 A  
ENDBRANCH  32  33
ENDBRANCH  19  32
TORSDOF 4
ENDMDL
MODEL      146
REMARK 921   NORMALIZED FREE ENERGY PREDICTED BY IDOCK:   -4.87 KCAL/MOL
REMARK 922        TOTAL FREE ENERGY PREDICTED BY IDOCK:   -6.66 KCAL/MOL
REMARK 923 INTER-LIGAND FREE ENERGY PREDICTED BY IDOCK:   -5.72 KCAL/MOL
REMARK 924 INTRA-LIGAND FREE ENERGY PREDICTED BY IDOCK:   -0.93 KCAL/MOL
REMARK 927      BINDING AFFINITY PREDICTED BY RF-SCORE:    0.00 PKD
ROOT
HETATM    1  O   UNL     1      -9.576  11.962  66.845  1.00  0.00    -0.193 OA 
HETATM    2  S   UNL     1     -10.125  10.618  66.148  1.00  0.00    -0.252 S  
HETATM    3  N   UNL     2      -7.046  12.388  69.602  1.00  0.00    -0.315 NA 
HETATM    4  H1  UNL     2      -7.084  12.881  68.710  1.00  0.00     0.000 HD 
HETATM    5  H2  UNL     2      -7.386  12.813  70.465  1.00  0.00     0.000 HD 
HETATM    6  C   UNL     2      -6.527  11.149  69.584  1.00  0.00    -0.128 C  
HETATM    7  N   UNL     3      -9.800  11.022  69.565  1.00  0.00    -0.428 NA 
HETATM    8  O   UNL     1     -11.467  10.378  66.992  1.00  0.00    -0.189 OA 
HETATM    9  O   UNL     1     -10.463  10.938  64.781  1.00  0.00    -0.328 OA 
HETATM   10  O   UNL     1      -9.208   9.567  66.489  1.00  0.00    -0.148 OA 
HETATM   11  C   UNL     3      -9.817   9.682  69.739  1.00  0.00    -0.229 C  
HETATM   12  H1  UNL     3     -10.641  11.578  69.411  1.00  0.00     0.000 HD 
HETATM   13  H2  UNL     3      -8.900  11.501  69.589  1.00  0.00     0.000 HD 
HETATM   14  N   UNL     2      -6.324  10.540  68.411  1.00  0.00    -0.054 NA 
HETATM   15  N   UNL     2      -6.480  10.528  70.708  1.00  0.00    -0.344 NA 
HETATM   16  H2  UNL     2      -6.820  10.954  71.570  1.00  0.00     0.000 HD 
HETATM   17  H   UNL     2      -6.121   9.542  68.469  1.00  0.00     0.000 HD 
HETATM   18  N   UNL     3      -8.763   8.984  69.932  1.00  0.00    -0.145 NA 
HETATM   19  N   UNL     3     -11.043   9.127  69.603  1.00  0.00    -0.405 NA 
HETATM   20  H2  UNL     3      -7.863   9.464  69.956  1.00  0.00     0.000 HD 
HETATM   21  H1  UNL     2      -6.086   9.587  70.694  1.00  0.00     0.000 HD 
HETATM   22  H1  UNL     3      -8.775   7.973  70.063  1.00  0.00     0.000 HD 
HETATM   23  H   UNL     3     -11.784   9.574  69.064  1.00  0.00     0.000 HD 
ENDROOT
BRANCH  14  24
HETATM   24  C   UNL     2      -6.348  11.088  67.067  1.00  0.00    -0.088 C  
BRANCH  24  25
HETATM   25  C   UNL     2      -5.994  10.015  66.052  1.00  0.00    -0.074 A  
HETATM   26  I   UNL     2      -5.146   5.737  66.095  1.00  0.00    -0.009 I  
HETATM   27  C   UNL     2      -5.850  10.334  64.690  1.00  0.00    -0.133 A  
HETATM   28  C   UNL     2      -5.807   8.677  66.450  1.00  0.00    -0.047 A  
HETATM   29  C   UNL     2      -5.463   9.371  63.763  1.00  0.00    -0.067 A  
HETATM   30  C   UNL     2      -5.442   7.712  65.509  1.00  0.00    -0.029 A  
HETATM   31  C   UNL     2      -5.258   8.056  64.169  1.00  0.00    -0.040 A  
ENDBRANCH  24  25
ENDBRANCH  14  24
BRANCH  19  32
HETATM   32  C   UNL     3     -11.238   7.849  70.275  1.00  0.00    -0.200 C  
BRANCH  32  33
HETATM   33  C   UNL     3     -10.913   6.677  69.394  1.00  0.00    -0.361 A  
HETATM   34  C   UNL     3      -9.899   4.624  67.761  1.00  0.00    -0.183 A  
HETATM   35  C   UNL     3     -10.355   5.532  69.960  1.00  0.00    -0.358 A  
HETATM   36  I   UNL     3      -8.854   2.919  70.037  1.00  0.00    -0.195 I  
HETATM   37  C   UNL     3     -10.517   5.729  67.181  1.00  0.00    -0.337 A  
HETATM   38  C   UNL     3      -9.829   4.526  69.150  1.00  0.00    -0.152 A  
HETATM   39  C   UNL     3     -11.015   6.755  67.989  1.00  0.00    -0.289 A  
ENDBRANCH  32  33
ENDBRANCH  19  32
TORSDOF 4
ENDMDL
MODEL      147
REMARK 921   NORMALIZED FREE ENERGY PREDICTED BY IDOCK:   -4.85 KCAL/MOL
REMARK 922        TOTAL FREE ENERGY PREDICTED BY IDOCK:   -6.63 KCAL/MOL
REMARK 923 INTER-LIGAND FREE ENERGY PREDICTED BY IDOCK:   -5.91 KCAL/MOL
REMARK 924 INTRA-LIGAND FREE ENERGY PREDICTED BY IDOCK:   -0.72 KCAL/MOL
REMARK 927      BINDING AFFINITY PREDICTED BY RF-SCORE:    0.00 PKD
ROOT
HETATM    1  O   UNL     1     -10.680  12.583  67.951  1.00  0.00    -0.208 OA 
HETATM    2  S   UNL     1     -11.277  12.425  66.463  1.00  0.00    -0.339 S  
HETATM    3  N   UNL     2      -7.107  12.918  69.093  1.00  0.00    -0.279 NA 
HETATM    4  H1  UNL     2      -7.904  13.493  69.365  1.00  0.00     0.000 HD 
HETATM    5  H2  UNL     2      -6.754  12.173  69.694  1.00  0.00     0.000 HD 
HETATM    6  C   UNL     2      -6.546  13.190  67.904  1.00  0.00    -0.137 C  
HETATM    7  N   UNL     3      -8.574  10.630  67.657  1.00  0.00    -0.118 NA 
HETATM    8  O   UNL     1     -11.426  10.831  66.376  1.00  0.00    -0.045 OA 
HETATM    9  O   UNL     1     -12.585  13.036  66.446  1.00  0.00    -0.343 OA 
HETATM   10  O   UNL     1     -10.234  12.809  65.553  1.00  0.00    -0.275 OA 
HETATM   11  C   UNL     3      -8.182  10.354  66.393  1.00  0.00    -0.141 C  
HETATM   12  H1  UNL     3      -9.328  10.132  68.131  1.00  0.00     0.000 HD 
HETATM   13  H2  UNL     3      -8.093  11.375  68.161  1.00  0.00     0.000 HD 
HETATM   14  N   UNL     2      -7.182  13.998  67.048  1.00  0.00    -0.342 NA 
HETATM   15  N   UNL     2      -5.542  12.465  67.561  1.00  0.00    -0.119 NA 
HETATM   16  H2  UNL     2      -5.189  11.721  68.162  1.00  0.00     0.000 HD 
HETATM   17  H   UNL     2      -6.810  14.004  66.098  1.00  0.00     0.000 HD 
HETATM   18  N   UNL     3      -7.238  10.978  65.798  1.00  0.00    -0.360 NA 
HETATM   19  N   UNL     3      -8.936   9.415  65.778  1.00  0.00    -0.172 NA 
HETATM   20  H2  UNL     3      -6.756  11.722  66.302  1.00  0.00     0.000 HD 
HETATM   21  H1  UNL     2      -5.116  12.672  66.658  1.00  0.00     0.000 HD 
HETATM   22  H1  UNL     3      -6.942  10.769  64.845  1.00  0.00     0.000 HD 
HETATM   23  H   UNL     3      -9.896   9.219  66.062  1.00  0.00     0.000 HD 
ENDROOT
BRANCH  14  24
HETATM   24  C   UNL     2      -8.324  14.866  67.269  1.00  0.00    -0.210 C  
BRANCH  24  25
HETATM   25  C   UNL     2      -7.928  16.320  67.076  1.00  0.00    -0.248 A  
HETATM   26  I   UNL     2      -9.876  20.215  67.308  1.00  0.00    -0.545 I  
HETATM   27  C   UNL     2      -6.615  16.664  66.708  1.00  0.00    -0.217 A  
HETATM   28  C   UNL     2      -8.864  17.355  67.267  1.00  0.00    -0.238 A  
HETATM   29  C   UNL     2      -6.260  17.988  66.467  1.00  0.00    -0.219 A  
HETATM   30  C   UNL     2      -8.493  18.683  67.046  1.00  0.00    -0.271 A  
HETATM   31  C   UNL     2      -7.197  19.002  66.636  1.00  0.00    -0.227 A  
ENDBRANCH  24  25
ENDBRANCH  14  24
BRANCH  19  32
HETATM   32  C   UNL     3      -8.291   8.702  64.684  1.00  0.00    -0.155 C  
BRANCH  32  33
HETATM   33  C   UNL     3      -7.677   7.403  65.121  1.00  0.00    -0.112 A  
HETATM   34  C   UNL     3      -6.576   5.121  66.342  1.00  0.00    -0.049 A  
HETATM   35  C   UNL     3      -8.503   6.381  65.586  1.00  0.00    -0.147 A  
HETATM   36  I   UNL     3      -9.232   3.846  67.043  1.00  0.00    -0.227 I  
HETATM   37  C   UNL     3      -5.735   6.101  65.820  1.00  0.00    -0.024 A  
HETATM   38  C   UNL     3      -7.957   5.261  66.214  1.00  0.00    -0.104 A  
HETATM   39  C   UNL     3      -6.279   7.241  65.220  1.00  0.00    -0.038 A  
ENDBRANCH  32  33
ENDBRANCH  19  32
TORSDOF 4
ENDMDL
MODEL      148
REMARK 921   NORMALIZED FREE ENERGY PREDICTED BY IDOCK:   -4.83 KCAL/MOL
REMARK 922        TOTAL FREE ENERGY PREDICTED BY IDOCK:   -6.60 KCAL/MOL
REMARK 923 INTER-LIGAND FREE ENERGY PREDICTED BY IDOCK:   -6.32 KCAL/MOL
REMARK 924 INTRA-LIGAND FREE ENERGY PREDICTED BY IDOCK:   -0.28 KCAL/MOL
REMARK 927      BINDING AFFINITY PREDICTED BY RF-SCORE:    0.00 PKD
ROOT
HETATM    1  O   UNL     1     -11.861  15.555  66.295  1.00  0.00     0.186 OA 
HETATM    2  S   UNL     1     -10.643  14.747  65.619  1.00  0.00    -0.367 S  
HETATM    3  N   UNL     2     -12.754  15.977  69.929  1.00  0.00    -0.573 NA 
HETATM    4  H1  UNL     2     -12.683  16.704  69.217  1.00  0.00     0.000 HD 
HETATM    5  H2  UNL     2     -13.655  15.597  70.220  1.00  0.00     0.000 HD 
HETATM    6  C   UNL     2     -11.601  15.546  70.465  1.00  0.00    -0.346 C  
HETATM    7  N   UNL     3     -12.632  13.477  68.145  1.00  0.00     0.053 NA 
HETATM    8  O   UNL     1     -11.365  13.356  65.282  1.00  0.00    -0.293 OA 
HETATM    9  O   UNL     1     -10.293  15.422  64.392  1.00  0.00    -0.008 OA 
HETATM   10  O   UNL     1      -9.684  14.492  66.659  1.00  0.00    -0.251 OA 
HETATM   11  C   UNL     3     -11.688  12.559  68.446  1.00  0.00    -0.328 C  
HETATM   12  H1  UNL     3     -13.277  13.381  67.360  1.00  0.00     0.000 HD 
HETATM   13  H2  UNL     3     -12.704  14.309  68.731  1.00  0.00     0.000 HD 
HETATM   14  N   UNL     2     -10.441  15.886  69.890  1.00  0.00    -0.308 NA 
HETATM   15  N   UNL     2     -11.690  14.630  71.362  1.00  0.00    -0.464 NA 
HETATM   16  H2  UNL     2     -12.591  14.250  71.653  1.00  0.00     0.000 HD 
HETATM   17  H   UNL     2      -9.625  15.370  70.219  1.00  0.00     0.000 HD 
HETATM   18  N   UNL     3     -10.879  12.680  69.430  1.00  0.00    -0.446 NA 
HETATM   19  N   UNL     3     -11.612  11.539  67.562  1.00  0.00    -0.544 NA 
HETATM   20  H2  UNL     3     -10.951  13.511  70.017  1.00  0.00     0.000 HD 
HETATM   21  H1  UNL     2     -10.814  14.302  71.770  1.00  0.00     0.000 HD 
HETATM   22  H1  UNL     3     -10.166  11.987  69.658  1.00  0.00     0.000 HD 
HETATM   23  H   UNL     3     -11.936  11.631  66.599  1.00  0.00     0.000 HD 
ENDROOT
BRANCH  14  24
HETATM   24  C   UNL     2     -10.172  16.881  68.868  1.00  0.00    -0.314 C  
BRANCH  24  25
HETATM   25  C   UNL     2      -8.748  16.743  68.358  1.00  0.00    -0.236 A  
HETATM   26  I   UNL     2      -5.495  13.861  68.718  1.00  0.00    -0.100 I  
HETATM   27  C   UNL     2      -8.175  17.741  67.550  1.00  0.00    -0.228 A  
HETATM   28  C   UNL     2      -7.973  15.611  68.678  1.00  0.00    -0.152 A  
HETATM   29  C   UNL     2      -6.850  17.653  67.131  1.00  0.00    -0.192 A  
HETATM   30  C   UNL     2      -6.652  15.520  68.233  1.00  0.00    -0.123 A  
HETATM   31  C   UNL     2      -6.085  16.543  67.470  1.00  0.00    -0.175 A  
ENDBRANCH  24  25
ENDBRANCH  14  24
BRANCH  19  32
HETATM   32  C   UNL     3     -11.039  10.300  68.072  1.00  0.00    -0.274 C  
BRANCH  32  33
HETATM   33  C   UNL     3      -9.543  10.262  67.948  1.00  0.00    -0.161 A  
HETATM   34  C   UNL     3      -6.792   9.772  67.627  1.00  0.00    -0.085 A  
HETATM   35  C   UNL     3      -8.962  10.284  66.681  1.00  0.00    -0.156 A  
HETATM   36  I   UNL     3      -6.817   9.891  64.601  1.00  0.00    -0.101 I  
HETATM   37  C   UNL     3      -7.343   9.816  68.905  1.00  0.00    -0.073 A  
HETATM   38  C   UNL     3      -7.603  10.016  66.520  1.00  0.00    -0.106 A  
HETATM   39  C   UNL     3      -8.712  10.051  69.068  1.00  0.00    -0.158 A  
ENDBRANCH  32  33
ENDBRANCH  19  32
TORSDOF 4
ENDMDL
MODEL      149
REMARK 921   NORMALIZED FREE ENERGY PREDICTED BY IDOCK:   -4.81 KCAL/MOL
REMARK 922        TOTAL FREE ENERGY PREDICTED BY IDOCK:   -6.59 KCAL/MOL
REMARK 923 INTER-LIGAND FREE ENERGY PREDICTED BY IDOCK:   -5.88 KCAL/MOL
REMARK 924 INTRA-LIGAND FREE ENERGY PREDICTED BY IDOCK:   -0.71 KCAL/MOL
REMARK 927      BINDING AFFINITY PREDICTED BY RF-SCORE:    0.00 PKD
ROOT
HETATM    1  O   UNL     1     -11.755  10.740  67.748  1.00  0.00    -0.547 OA 
HETATM    2  S   UNL     1     -11.448  11.435  69.168  1.00  0.00    -0.331 S  
HETATM    3  N   UNL     2      -9.568   8.534  65.620  1.00  0.00    -0.444 NA 
HETATM    4  H1  UNL     2     -10.537   8.371  65.894  1.00  0.00     0.000 HD 
HETATM    5  H2  UNL     2      -9.326   8.894  64.696  1.00  0.00     0.000 HD 
HETATM    6  C   UNL     2      -8.627   8.251  66.535  1.00  0.00    -0.132 C  
HETATM    7  N   UNL     3      -9.257  11.464  66.495  1.00  0.00    -0.184 NA 
HETATM    8  O   UNL     1     -10.981  12.892  68.687  1.00  0.00    -0.244 OA 
HETATM    9  O   UNL     1     -12.696  11.539  69.887  1.00  0.00    -0.034 OA 
HETATM   10  O   UNL     1     -10.296  10.773  69.715  1.00  0.00    -0.171 OA 
HETATM   11  C   UNL     3      -8.227  11.746  67.324  1.00  0.00    -0.163 C  
HETATM   12  H1  UNL     3      -9.924  12.165  66.172  1.00  0.00     0.000 HD 
HETATM   13  H2  UNL     3      -9.373  10.502  66.177  1.00  0.00     0.000 HD 
HETATM   14  N   UNL     2      -8.991   8.018  67.801  1.00  0.00    -0.132 NA 
HETATM   15  N   UNL     2      -7.407   8.456  66.189  1.00  0.00    -0.083 NA 
HETATM   16  H2  UNL     2      -7.165   8.816  65.265  1.00  0.00     0.000 HD 
HETATM   17  H   UNL     2      -8.228   8.009  68.478  1.00  0.00     0.000 HD 
HETATM   18  N   UNL     3      -7.391  10.868  67.730  1.00  0.00    -0.091 NA 
HETATM   19  N   UNL     3      -8.209  13.026  67.760  1.00  0.00    -0.153 NA 
HETATM   20  H2  UNL     3      -7.507   9.906  67.412  1.00  0.00     0.000 HD 
HETATM   21  H1  UNL     2      -6.691   8.240  66.884  1.00  0.00     0.000 HD 
HETATM   22  H1  UNL     3      -6.614  11.080  68.356  1.00  0.00     0.000 HD 
HETATM   23  H   UNL     3      -9.051  13.602  67.788  1.00  0.00     0.000 HD 
ENDROOT
BRANCH  14  24
HETATM   24  C   UNL     2     -10.311   7.778  68.355  1.00  0.00    -0.196 C  
BRANCH  24  25
HETATM   25  C   UNL     2     -10.200   7.178  69.746  1.00  0.00    -0.215 A  
HETATM   26  I   UNL     2      -7.728   7.776  73.289  1.00  0.00    -0.210 I  
HETATM   27  C   UNL     2     -11.045   6.128  70.145  1.00  0.00    -0.448 A  
HETATM   28  C   UNL     2      -9.253   7.665  70.668  1.00  0.00    -0.162 A  
HETATM   29  C   UNL     2     -10.908   5.530  71.395  1.00  0.00    -0.256 A  
HETATM   30  C   UNL     2      -9.138   7.075  71.929  1.00  0.00    -0.139 A  
HETATM   31  C   UNL     2      -9.954   6.002  72.291  1.00  0.00    -0.189 A  
ENDBRANCH  24  25
ENDBRANCH  14  24
BRANCH  19  32
HETATM   32  C   UNL     3      -6.911  13.531  68.187  1.00  0.00    -0.119 C  
BRANCH  32  33
HETATM   33  C   UNL     3      -6.964  14.967  68.624  1.00  0.00    -0.108 A  
HETATM   34  C   UNL     3      -6.725  17.713  69.182  1.00  0.00    -0.243 A  
HETATM   35  C   UNL     3      -7.552  15.913  67.787  1.00  0.00    -0.157 A  
HETATM   36  I   UNL     3      -8.157  18.652  66.683  1.00  0.00    -0.296 I  
HETATM   37  C   UNL     3      -6.192  16.778  70.066  1.00  0.00    -0.071 A  
HETATM   38  C   UNL     3      -7.411  17.275  68.050  1.00  0.00    -0.194 A  
HETATM   39  C   UNL     3      -6.302  15.412  69.788  1.00  0.00    -0.163 A  
ENDBRANCH  32  33
ENDBRANCH  19  32
TORSDOF 4
ENDMDL
MODEL      150
REMARK 921   NORMALIZED FREE ENERGY PREDICTED BY IDOCK:   -4.80 KCAL/MOL
REMARK 922        TOTAL FREE ENERGY PREDICTED BY IDOCK:   -6.57 KCAL/MOL
REMARK 923 INTER-LIGAND FREE ENERGY PREDICTED BY IDOCK:   -5.93 KCAL/MOL
REMARK 924 INTRA-LIGAND FREE ENERGY PREDICTED BY IDOCK:   -0.64 KCAL/MOL
REMARK 927      BINDING AFFINITY PREDICTED BY RF-SCORE:    0.00 PKD
ROOT
HETATM    1  O   UNL     1     -10.207  14.197  68.955  1.00  0.00    -0.230 OA 
HETATM    2  S   UNL     1     -11.002  13.816  67.607  1.00  0.00    -0.269 S  
HETATM    3  N   UNL     2      -6.503  14.485  69.571  1.00  0.00    -0.124 NA 
HETATM    4  H1  UNL     2      -7.230  15.153  69.826  1.00  0.00     0.000 HD 
HETATM    5  H2  UNL     2      -6.107  13.838  70.253  1.00  0.00     0.000 HD 
HETATM    6  C   UNL     2      -6.092  14.500  68.292  1.00  0.00    -0.118 C  
HETATM    7  N   UNL     3      -8.249  12.083  68.777  1.00  0.00    -0.344 NA 
HETATM    8  O   UNL     1     -11.234  12.246  67.838  1.00  0.00    -0.239 OA 
HETATM    9  O   UNL     1     -12.272  14.502  67.635  1.00  0.00    -0.298 OA 
HETATM   10  O   UNL     1     -10.072  13.958  66.521  1.00  0.00    -0.271 OA 
HETATM   11  C   UNL     3      -8.040  11.558  67.549  1.00  0.00    -0.137 C  
HETATM   12  H1  UNL     3      -8.955  11.731  69.424  1.00  0.00     0.000 HD 
HETATM   13  H2  UNL     3      -7.672  12.871  69.071  1.00  0.00     0.000 HD 
HETATM   14  N   UNL     2      -6.799  15.183  67.384  1.00  0.00    -0.232 NA 
HETATM   15  N   UNL     2      -5.177  13.658  67.972  1.00  0.00    -0.109 NA 
HETATM   16  H2  UNL     2      -4.781  13.011  68.654  1.00  0.00     0.000 HD 
HETATM   17  H   UNL     2      -6.556  14.993  66.412  1.00  0.00     0.000 HD 
HETATM   18  N   UNL     3      -7.156  11.999  66.738  1.00  0.00    -0.373 NA 
HETATM   19  N   UNL     3      -8.911  10.578  67.217  1.00  0.00    -0.136 NA 
HETATM   20  H2  UNL     3      -6.578  12.786  67.031  1.00  0.00     0.000 HD 
HETATM   21  H1  UNL     2      -4.865  13.670  67.000  1.00  0.00     0.000 HD 
HETATM   22  H1  UNL     3      -6.998  11.603  65.811  1.00  0.00     0.000 HD 
HETATM   23  H   UNL     3      -9.833  10.502  67.647  1.00  0.00     0.000 HD 
ENDROOT
BRANCH  14  24
HETATM   24  C   UNL     2      -7.861  16.153  67.577  1.00  0.00    -0.147 C  
BRANCH  24  25
HETATM   25  C   UNL     2      -7.334  17.563  67.368  1.00  0.00    -0.198 A  
HETATM   26  I   UNL     2      -5.238  20.567  69.735  1.00  0.00    -0.400 I  
HETATM   27  C   UNL     2      -7.503  18.218  66.136  1.00  0.00    -0.291 A  
HETATM   28  C   UNL     2      -6.660  18.241  68.402  1.00  0.00    -0.213 A  
HETATM   29  C   UNL     2      -7.080  19.532  65.956  1.00  0.00    -0.293 A  
HETATM   30  C   UNL     2      -6.217  19.551  68.206  1.00  0.00    -0.229 A  
HETATM   31  C   UNL     2      -6.435  20.203  66.991  1.00  0.00    -0.235 A  
ENDBRANCH  24  25
ENDBRANCH  14  24
BRANCH  19  32
HETATM   32  C   UNL     3      -8.449   9.637  66.204  1.00  0.00    -0.120 C  
BRANCH  32  33
HETATM   33  C   UNL     3      -8.556   8.208  66.651  1.00  0.00    -0.140 A  
HETATM   34  C   UNL     3      -9.165   5.556  67.361  1.00  0.00    -0.110 A  
HETATM   35  C   UNL     3      -8.504   7.190  65.700  1.00  0.00    -0.141 A  
HETATM   36  I   UNL     3      -8.907   4.429  64.562  1.00  0.00    -0.140 I  
HETATM   37  C   UNL     3      -9.154   6.549  68.338  1.00  0.00    -0.123 A  
HETATM   38  C   UNL     3      -8.831   5.880  66.047  1.00  0.00    -0.149 A  
HETATM   39  C   UNL     3      -8.859   7.870  67.987  1.00  0.00    -0.124 A  
ENDBRANCH  32  33
ENDBRANCH  19  32
TORSDOF 4
ENDMDL
MODEL      151
REMARK 921   NORMALIZED FREE ENERGY PREDICTED BY IDOCK:   -4.80 KCAL/MOL
REMARK 922        TOTAL FREE ENERGY PREDICTED BY IDOCK:   -6.57 KCAL/MOL
REMARK 923 INTER-LIGAND FREE ENERGY PREDICTED BY IDOCK:   -5.91 KCAL/MOL
REMARK 924 INTRA-LIGAND FREE ENERGY PREDICTED BY IDOCK:   -0.66 KCAL/MOL
REMARK 927      BINDING AFFINITY PREDICTED BY RF-SCORE:    0.00 PKD
ROOT
HETATM    1  O   UNL     1      -9.627  10.533  64.461  1.00  0.00    -0.247 OA 
HETATM    2  S   UNL     1      -8.117  10.021  64.691  1.00  0.00    -0.160 S  
HETATM    3  N   UNL     2     -12.005  12.188  66.866  1.00  0.00    -0.609 NA 
HETATM    4  H1  UNL     2     -11.774  12.483  65.917  1.00  0.00     0.000 HD 
HETATM    5  H2  UNL     2     -12.864  11.678  67.075  1.00  0.00     0.000 HD 
HETATM    6  C   UNL     2     -11.123  12.506  67.827  1.00  0.00    -0.249 C  
HETATM    7  N   UNL     3     -10.718   9.397  66.880  1.00  0.00    -0.164 NA 
HETATM    8  O   UNL     1      -8.378   8.472  65.013  1.00  0.00    -0.153 OA 
HETATM    9  O   UNL     1      -7.414  10.143  63.436  1.00  0.00    -0.145 OA 
HETATM   10  O   UNL     1      -7.648  10.639  65.901  1.00  0.00    -0.148 OA 
HETATM   11  C   UNL     3      -9.839   9.137  67.873  1.00  0.00    -0.169 C  
HETATM   12  H1  UNL     3     -10.952   8.726  66.149  1.00  0.00     0.000 HD 
HETATM   13  H2  UNL     3     -11.171  10.311  66.862  1.00  0.00     0.000 HD 
HETATM   14  N   UNL     2      -9.909  12.951  67.482  1.00  0.00    -0.205 NA 
HETATM   15  N   UNL     2     -11.413  12.136  69.022  1.00  0.00    -0.274 NA 
HETATM   16  H2  UNL     2     -12.272  11.626  69.231  1.00  0.00     0.000 HD 
HETATM   17  H   UNL     2      -9.226  12.982  68.239  1.00  0.00     0.000 HD 
HETATM   18  N   UNL     3      -9.546   9.978  68.791  1.00  0.00    -0.162 NA 
HETATM   19  N   UNL     3      -9.226   7.937  67.762  1.00  0.00    -0.137 NA 
HETATM   20  H2  UNL     3      -9.999  10.892  68.773  1.00  0.00     0.000 HD 
HETATM   21  H1  UNL     2     -10.743  12.377  69.752  1.00  0.00     0.000 HD 
HETATM   22  H1  UNL     3      -8.882   9.782  69.540  1.00  0.00     0.000 HD 
HETATM   23  H   UNL     3      -9.132   7.456  66.868  1.00  0.00     0.000 HD 
ENDROOT
BRANCH  14  24
HETATM   24  C   UNL     2      -9.419  13.396  66.190  1.00  0.00    -0.140 C  
BRANCH  24  25
HETATM   25  C   UNL     2      -9.768  14.858  65.966  1.00  0.00    -0.358 A  
HETATM   26  I   UNL     2      -8.470  18.721  67.518  1.00  0.00    -0.310 I  
HETATM   27  C   UNL     2     -10.771  15.225  65.052  1.00  0.00    -0.461 A  
HETATM   28  C   UNL     2      -9.091  15.876  66.664  1.00  0.00    -0.290 A  
HETATM   29  C   UNL     2     -11.141  16.556  64.887  1.00  0.00    -0.199 A  
HETATM   30  C   UNL     2      -9.452  17.212  66.476  1.00  0.00    -0.273 A  
HETATM   31  C   UNL     2     -10.483  17.555  65.598  1.00  0.00    -0.156 A  
ENDBRANCH  24  25
ENDBRANCH  14  24
BRANCH  19  32
HETATM   32  C   UNL     3      -8.707   7.374  69.002  1.00  0.00    -0.133 C  
BRANCH  32  33
HETATM   33  C   UNL     3      -8.482   5.892  68.915  1.00  0.00    -0.105 A  
HETATM   34  C   UNL     3      -8.364   3.122  68.445  1.00  0.00    -0.091 A  
HETATM   35  C   UNL     3      -7.694   5.381  67.885  1.00  0.00    -0.092 A  
HETATM   36  I   UNL     3      -6.606   3.309  65.986  1.00  0.00    -0.042 I  
HETATM   37  C   UNL     3      -9.100   3.611  69.522  1.00  0.00    -0.201 A  
HETATM   38  C   UNL     3      -7.656   4.009  67.636  1.00  0.00    -0.068 A  
HETATM   39  C   UNL     3      -9.168   4.988  69.753  1.00  0.00    -0.168 A  
ENDBRANCH  32  33
ENDBRANCH  19  32
TORSDOF 4
ENDMDL
MODEL      152
REMARK 921   NORMALIZED FREE ENERGY PREDICTED BY IDOCK:   -4.80 KCAL/MOL
REMARK 922        TOTAL FREE ENERGY PREDICTED BY IDOCK:   -6.56 KCAL/MOL
REMARK 923 INTER-LIGAND FREE ENERGY PREDICTED BY IDOCK:   -5.91 KCAL/MOL
REMARK 924 INTRA-LIGAND FREE ENERGY PREDICTED BY IDOCK:   -0.66 KCAL/MOL
REMARK 927      BINDING AFFINITY PREDICTED BY RF-SCORE:    0.00 PKD
ROOT
HETATM    1  O   UNL     1      -8.078  11.077  63.697  1.00  0.00     0.158 OA 
HETATM    2  S   UNL     1      -9.463  10.256  63.686  1.00  0.00    -0.272 S  
HETATM    3  N   UNL     2      -5.684  11.731  66.530  1.00  0.00    -0.429 NA 
HETATM    4  H1  UNL     2      -5.462  11.395  65.592  1.00  0.00     0.000 HD 
HETATM    5  H2  UNL     2      -5.553  12.707  66.794  1.00  0.00     0.000 HD 
HETATM    6  C   UNL     2      -6.156  10.822  67.399  1.00  0.00    -0.054 C  
HETATM    7  N   UNL     3      -8.612  12.566  66.112  1.00  0.00    -0.354 NA 
HETATM    8  O   UNL     1     -10.514  11.450  63.887  1.00  0.00    -0.321 OA 
HETATM    9  O   UNL     1      -9.625   9.683  62.370  1.00  0.00    -0.119 OA 
HETATM   10  O   UNL     1      -9.484   9.459  64.882  1.00  0.00    -0.229 OA 
HETATM   11  C   UNL     3      -9.523  12.035  66.957  1.00  0.00    -0.198 C  
HETATM   12  H1  UNL     3      -8.856  13.203  65.354  1.00  0.00     0.000 HD 
HETATM   13  H2  UNL     3      -7.631  12.317  66.239  1.00  0.00     0.000 HD 
HETATM   14  N   UNL     2      -6.542   9.623  66.949  1.00  0.00    -0.067 NA 
HETATM   15  N   UNL     2      -6.435  11.245  68.579  1.00  0.00    -0.050 NA 
HETATM   16  H2  UNL     2      -6.304  12.222  68.844  1.00  0.00     0.000 HD 
HETATM   17  H   UNL     2      -7.072   9.059  67.615  1.00  0.00     0.000 HD 
HETATM   18  N   UNL     3      -9.218  11.236  67.908  1.00  0.00    -0.153 NA 
HETATM   19  N   UNL     3     -10.803  12.352  66.655  1.00  0.00    -0.239 NA 
HETATM   20  H2  UNL     3      -8.237  10.987  68.036  1.00  0.00     0.000 HD 
HETATM   21  H1  UNL     2      -6.794  10.555  69.240  1.00  0.00     0.000 HD 
HETATM   22  H1  UNL     3      -9.906  10.835  68.546  1.00  0.00     0.000 HD 
HETATM   23  H   UNL     3     -11.086  12.622  65.713  1.00  0.00     0.000 HD 
ENDROOT
BRANCH  14  24
HETATM   24  C   UNL     2      -6.319   9.004  65.656  1.00  0.00    -0.063 C  
BRANCH  24  25
HETATM   25  C   UNL     2      -6.375   7.490  65.776  1.00  0.00    -0.042 A  
HETATM   26  I   UNL     2      -9.456   4.404  65.799  1.00  0.00    -0.231 I  
HETATM   27  C   UNL     2      -5.199   6.739  65.946  1.00  0.00    -0.022 A  
HETATM   28  C   UNL     2      -7.605   6.807  65.716  1.00  0.00    -0.088 A  
HETATM   29  C   UNL     2      -5.246   5.359  66.121  1.00  0.00    -0.012 A  
HETATM   30  C   UNL     2      -7.641   5.419  65.869  1.00  0.00    -0.083 A  
HETATM   31  C   UNL     2      -6.467   4.694  66.082  1.00  0.00    -0.041 A  
ENDBRANCH  24  25
ENDBRANCH  14  24
BRANCH  19  32
HETATM   32  C   UNL     3     -11.750  12.284  67.760  1.00  0.00    -0.337 C  
BRANCH  32  33
HETATM   33  C   UNL     3     -11.755  13.532  68.596  1.00  0.00    -0.389 A  
HETATM   34  C   UNL     3     -12.187  15.878  70.085  1.00  0.00    -0.244 A  
HETATM   35  C   UNL     3     -12.172  13.461  69.924  1.00  0.00    -0.337 A  
HETATM   36  I   UNL     3     -13.196  14.473  72.572  1.00  0.00    -0.644 I  
HETATM   37  C   UNL     3     -11.703  15.964  68.781  1.00  0.00    -0.355 A  
HETATM   38  C   UNL     3     -12.411  14.625  70.653  1.00  0.00    -0.344 A  
HETATM   39  C   UNL     3     -11.494  14.800  68.036  1.00  0.00    -0.351 A  
ENDBRANCH  32  33
ENDBRANCH  19  32
TORSDOF 4
ENDMDL
MODEL      153
REMARK 921   NORMALIZED FREE ENERGY PREDICTED BY IDOCK:   -4.75 KCAL/MOL
REMARK 922        TOTAL FREE ENERGY PREDICTED BY IDOCK:   -6.50 KCAL/MOL
REMARK 923 INTER-LIGAND FREE ENERGY PREDICTED BY IDOCK:   -5.76 KCAL/MOL
REMARK 924 INTRA-LIGAND FREE ENERGY PREDICTED BY IDOCK:   -0.74 KCAL/MOL
REMARK 927      BINDING AFFINITY PREDICTED BY RF-SCORE:    0.00 PKD
ROOT
HETATM    1  O   UNL     1      -6.218   9.927  68.349  1.00  0.00    -0.049 OA 
HETATM    2  S   UNL     1      -7.182   9.868  69.637  1.00  0.00    -0.126 S  
HETATM    3  N   UNL     2      -6.880   8.881  64.792  1.00  0.00    -0.073 NA 
HETATM    4  H1  UNL     2      -6.476   9.760  65.118  1.00  0.00     0.000 HD 
HETATM    5  H2  UNL     2      -6.297   8.127  64.427  1.00  0.00     0.000 HD 
HETATM    6  C   UNL     2      -8.216   8.768  64.867  1.00  0.00    -0.159 C  
HETATM    7  N   UNL     3      -6.791   7.260  67.402  1.00  0.00    -0.074 NA 
HETATM    8  O   UNL     1      -6.717   8.478  70.288  1.00  0.00    -0.038 OA 
HETATM    9  O   UNL     1      -6.817  10.958  70.511  1.00  0.00    -0.241 OA 
HETATM   10  O   UNL     1      -8.521   9.687  69.148  1.00  0.00    -0.127 OA 
HETATM   11  C   UNL     3      -7.955   6.712  67.817  1.00  0.00    -0.112 C  
HETATM   12  H1  UNL     3      -5.915   7.172  67.916  1.00  0.00     0.000 HD 
HETATM   13  H2  UNL     3      -6.790   7.790  66.531  1.00  0.00     0.000 HD 
HETATM   14  N   UNL     2      -8.912   9.668  65.570  1.00  0.00    -0.170 NA 
HETATM   15  N   UNL     2      -8.723   7.661  64.456  1.00  0.00    -0.311 NA 
HETATM   16  H2  UNL     2      -8.141   6.907  64.091  1.00  0.00     0.000 HD 
HETATM   17  H   UNL     2      -9.884   9.417  65.755  1.00  0.00     0.000 HD 
HETATM   18  N   UNL     3      -9.054   6.823  67.174  1.00  0.00    -0.123 NA 
HETATM   19  N   UNL     3      -7.875   6.106  69.024  1.00  0.00    -0.099 NA 
HETATM   20  H2  UNL     3      -9.053   7.352  66.302  1.00  0.00     0.000 HD 
HETATM   21  H1  UNL     2      -9.738   7.575  64.513  1.00  0.00     0.000 HD 
HETATM   22  H1  UNL     3      -9.932   6.409  67.487  1.00  0.00     0.000 HD 
HETATM   23  H   UNL     3      -7.162   6.355  69.710  1.00  0.00     0.000 HD 
ENDROOT
BRANCH  14  24
HETATM   24  C   UNL     2      -8.492  10.948  66.110  1.00  0.00    -0.171 C  
BRANCH  24  25
HETATM   25  C   UNL     2      -9.698  11.832  66.376  1.00  0.00    -0.234 A  
HETATM   26  I   UNL     2     -11.338  15.553  64.800  1.00  0.00    -0.048 I  
HETATM   27  C   UNL     2     -10.622  11.501  67.383  1.00  0.00    -0.252 A  
HETATM   28  C   UNL     2      -9.921  12.997  65.618  1.00  0.00    -0.239 A  
HETATM   29  C   UNL     2     -11.696  12.337  67.677  1.00  0.00    -0.403 A  
HETATM   30  C   UNL     2     -11.014  13.819  65.904  1.00  0.00    -0.283 A  
HETATM   31  C   UNL     2     -11.895  13.499  66.938  1.00  0.00    -0.452 A  
ENDBRANCH  24  25
ENDBRANCH  14  24
BRANCH  19  32
HETATM   32  C   UNL     3      -8.873   5.076  69.283  1.00  0.00    -0.091 C  
BRANCH  32  33
HETATM   33  C   UNL     3      -9.757   5.408  70.451  1.00  0.00    -0.254 A  
HETATM   34  C   UNL     3     -11.643   5.686  72.517  1.00  0.00    -0.303 A  
HETATM   35  C   UNL     3      -9.623   4.683  71.634  1.00  0.00    -0.221 A  
HETATM   36  I   UNL     3     -10.427   3.578  74.320  1.00  0.00    -0.160 I  
HETATM   37  C   UNL     3     -11.752   6.468  71.370  1.00  0.00    -0.378 A  
HETATM   38  C   UNL     3     -10.573   4.803  72.648  1.00  0.00    -0.211 A  
HETATM   39  C   UNL     3     -10.821   6.327  70.338  1.00  0.00    -0.360 A  
ENDBRANCH  32  33
ENDBRANCH  19  32
TORSDOF 4
ENDMDL
MODEL      154
REMARK 921   NORMALIZED FREE ENERGY PREDICTED BY IDOCK:   -4.73 KCAL/MOL
REMARK 922        TOTAL FREE ENERGY PREDICTED BY IDOCK:   -6.48 KCAL/MOL
REMARK 923 INTER-LIGAND FREE ENERGY PREDICTED BY IDOCK:   -6.07 KCAL/MOL
REMARK 924 INTRA-LIGAND FREE ENERGY PREDICTED BY IDOCK:   -0.41 KCAL/MOL
REMARK 927      BINDING AFFINITY PREDICTED BY RF-SCORE:    0.00 PKD
ROOT
HETATM    1  O   UNL     1      -8.421   8.295  73.586  1.00  0.00    -0.243 OA 
HETATM    2  S   UNL     1      -7.087   7.948  72.753  1.00  0.00    -0.090 S  
HETATM    3  N   UNL     2     -12.039   7.882  72.627  1.00  0.00    -0.592 NA 
HETATM    4  H1  UNL     2     -11.588   7.591  73.495  1.00  0.00     0.000 HD 
HETATM    5  H2  UNL     2     -12.592   8.738  72.571  1.00  0.00     0.000 HD 
HETATM    6  C   UNL     2     -11.869   7.081  71.563  1.00  0.00    -0.314 C  
HETATM    7  N   UNL     3      -9.806   9.622  71.429  1.00  0.00    -0.220 NA 
HETATM    8  O   UNL     1      -6.759   9.383  72.115  1.00  0.00    -0.292 OA 
HETATM    9  O   UNL     1      -6.056   7.592  73.699  1.00  0.00    -0.059 OA 
HETATM   10  O   UNL     1      -7.481   7.080  71.678  1.00  0.00    -0.085 OA 
HETATM   11  C   UNL     3      -9.402   9.315  70.176  1.00  0.00    -0.228 C  
HETATM   12  H1  UNL     3      -9.398  10.377  71.980  1.00  0.00     0.000 HD 
HETATM   13  H2  UNL     3     -10.557   9.069  71.844  1.00  0.00     0.000 HD 
HETATM   14  N   UNL     2     -10.947   6.112  71.611  1.00  0.00    -0.257 NA 
HETATM   15  N   UNL     2     -12.437   7.447  70.470  1.00  0.00    -0.557 NA 
HETATM   16  H2  UNL     2     -12.990   8.303  70.414  1.00  0.00     0.000 HD 
HETATM   17  H   UNL     2     -10.729   5.676  70.715  1.00  0.00     0.000 HD 
HETATM   18  N   UNL     3      -9.913   8.369  69.484  1.00  0.00    -0.186 NA 
HETATM   19  N   UNL     3      -8.346  10.043  69.747  1.00  0.00    -0.224 NA 
HETATM   20  H2  UNL     3     -10.664   7.817  69.899  1.00  0.00     0.000 HD 
HETATM   21  H1  UNL     2     -12.308   6.839  69.661  1.00  0.00     0.000 HD 
HETATM   22  H1  UNL     3      -9.608   8.138  68.539  1.00  0.00     0.000 HD 
HETATM   23  H   UNL     3      -7.691  10.482  70.394  1.00  0.00     0.000 HD 
ENDROOT
BRANCH  14  24
HETATM   24  C   UNL     2     -10.212   5.590  72.748  1.00  0.00    -0.186 C  
BRANCH  24  25
HETATM   25  C   UNL     2      -9.104   4.662  72.280  1.00  0.00    -0.146 A  
HETATM   26  I   UNL     2      -7.597   3.157  68.474  1.00  0.00    -0.050 I  
HETATM   27  C   UNL     2      -8.259   4.027  73.207  1.00  0.00    -0.089 A  
HETATM   28  C   UNL     2      -8.896   4.421  70.908  1.00  0.00    -0.146 A  
HETATM   29  C   UNL     2      -7.283   3.126  72.792  1.00  0.00    -0.044 A  
HETATM   30  C   UNL     2      -7.898   3.533  70.498  1.00  0.00    -0.046 A  
HETATM   31  C   UNL     2      -7.099   2.877  71.436  1.00  0.00    -0.032 A  
ENDBRANCH  24  25
ENDBRANCH  14  24
BRANCH  19  32
HETATM   32  C   UNL     3      -8.202  10.160  68.302  1.00  0.00    -0.110 C  
BRANCH  32  33
HETATM   33  C   UNL     3      -9.027  11.275  67.726  1.00  0.00    -0.141 A  
HETATM   34  C   UNL     3     -10.220  13.460  66.420  1.00  0.00    -0.293 A  
HETATM   35  C   UNL     3      -9.596  11.120  66.463  1.00  0.00    -0.222 A  
HETATM   36  I   UNL     3     -10.846  11.972  63.857  1.00  0.00    -0.601 I  
HETATM   37  C   UNL     3      -9.718  13.614  67.710  1.00  0.00    -0.225 A  
HETATM   38  C   UNL     3     -10.164  12.210  65.805  1.00  0.00    -0.254 A  
HETATM   39  C   UNL     3      -9.117  12.532  68.359  1.00  0.00    -0.135 A  
ENDBRANCH  32  33
ENDBRANCH  19  32
TORSDOF 4
ENDMDL
MODEL      155
REMARK 921   NORMALIZED FREE ENERGY PREDICTED BY IDOCK:   -4.73 KCAL/MOL
REMARK 922        TOTAL FREE ENERGY PREDICTED BY IDOCK:   -6.48 KCAL/MOL
REMARK 923 INTER-LIGAND FREE ENERGY PREDICTED BY IDOCK:   -5.63 KCAL/MOL
REMARK 924 INTRA-LIGAND FREE ENERGY PREDICTED BY IDOCK:   -0.85 KCAL/MOL
REMARK 927      BINDING AFFINITY PREDICTED BY RF-SCORE:    0.00 PKD
ROOT
HETATM    1  O   UNL     1      -8.806   9.934  69.367  1.00  0.00    -0.160 OA 
HETATM    2  S   UNL     1      -7.690   8.829  69.009  1.00  0.00    -0.092 S  
HETATM    3  N   UNL     2     -12.259   9.496  70.805  1.00  0.00    -0.440 NA 
HETATM    4  H1  UNL     2     -11.535  10.147  71.111  1.00  0.00     0.000 HD 
HETATM    5  H2  UNL     2     -13.035   9.797  70.215  1.00  0.00     0.000 HD 
HETATM    6  C   UNL     2     -12.139   8.224  71.218  1.00  0.00    -0.280 C  
HETATM    7  N   UNL     3     -11.028   8.545  68.154  1.00  0.00    -0.457 NA 
HETATM    8  O   UNL     1      -7.977   8.620  67.445  1.00  0.00    -0.101 OA 
HETATM    9  O   UNL     1      -6.394   9.439  69.186  1.00  0.00    -0.041 OA 
HETATM   10  O   UNL     1      -8.072   7.619  69.681  1.00  0.00    -0.121 OA 
HETATM   11  C   UNL     3     -10.887   7.211  67.992  1.00  0.00    -0.128 C  
HETATM   12  H1  UNL     3     -10.734   9.229  67.456  1.00  0.00     0.000 HD 
HETATM   13  H2  UNL     3     -11.448   8.886  69.019  1.00  0.00     0.000 HD 
HETATM   14  N   UNL     2     -10.992   7.821  71.777  1.00  0.00    -0.233 NA 
HETATM   15  N   UNL     2     -13.051   7.405  70.833  1.00  0.00    -0.603 NA 
HETATM   16  H2  UNL     2     -13.827   7.706  70.243  1.00  0.00     0.000 HD 
HETATM   17  H   UNL     2     -10.892   6.811  71.883  1.00  0.00     0.000 HD 
HETATM   18  N   UNL     3     -11.254   6.354  68.867  1.00  0.00    -0.531 NA 
HETATM   19  N   UNL     3     -10.241   6.862  66.857  1.00  0.00    -0.266 NA 
HETATM   20  H2  UNL     3     -11.675   6.695  69.732  1.00  0.00     0.000 HD 
HETATM   21  H1  UNL     2     -12.960   6.439  71.147  1.00  0.00     0.000 HD 
HETATM   22  H1  UNL     3     -11.148   5.347  68.746  1.00  0.00     0.000 HD 
HETATM   23  H   UNL     3      -9.602   7.497  66.379  1.00  0.00     0.000 HD 
ENDROOT
BRANCH  14  24
HETATM   24  C   UNL     2      -9.869   8.606  72.254  1.00  0.00    -0.289 C  
BRANCH  24  25
HETATM   25  C   UNL     2      -8.892   7.725  73.014  1.00  0.00    -0.247 A  
HETATM   26  I   UNL     2      -8.578   3.515  74.106  1.00  0.00    -0.092 I  
HETATM   27  C   UNL     2      -7.733   8.271  73.592  1.00  0.00    -0.202 A  
HETATM   28  C   UNL     2      -9.122   6.343  73.150  1.00  0.00    -0.134 A  
HETATM   29  C   UNL     2      -6.865   7.484  74.344  1.00  0.00    -0.110 A  
HETATM   30  C   UNL     2      -8.234   5.555  73.885  1.00  0.00    -0.110 A  
HETATM   31  C   UNL     2      -7.112   6.122  74.492  1.00  0.00    -0.090 A  
ENDBRANCH  24  25
ENDBRANCH  14  24
BRANCH  19  32
HETATM   32  C   UNL     3     -10.514   5.519  66.360  1.00  0.00    -0.236 C  
BRANCH  32  33
HETATM   33  C   UNL     3      -9.287   4.840  65.824  1.00  0.00    -0.163 A  
HETATM   34  C   UNL     3      -7.128   3.696  64.432  1.00  0.00    -0.054 A  
HETATM   35  C   UNL     3      -8.175   5.610  65.484  1.00  0.00    -0.129 A  
HETATM   36  I   UNL     3      -5.560   6.270  64.139  1.00  0.00    -0.023 I  
HETATM   37  C   UNL     3      -8.200   2.898  64.825  1.00  0.00    -0.087 A  
HETATM   38  C   UNL     3      -7.116   5.047  64.772  1.00  0.00    -0.058 A  
HETATM   39  C   UNL     3      -9.278   3.465  65.510  1.00  0.00    -0.153 A  
ENDBRANCH  32  33
ENDBRANCH  19  32
TORSDOF 4
ENDMDL
MODEL      156
REMARK 921   NORMALIZED FREE ENERGY PREDICTED BY IDOCK:   -4.73 KCAL/MOL
REMARK 922        TOTAL FREE ENERGY PREDICTED BY IDOCK:   -6.48 KCAL/MOL
REMARK 923 INTER-LIGAND FREE ENERGY PREDICTED BY IDOCK:   -5.82 KCAL/MOL
REMARK 924 INTRA-LIGAND FREE ENERGY PREDICTED BY IDOCK:   -0.65 KCAL/MOL
REMARK 927      BINDING AFFINITY PREDICTED BY RF-SCORE:    0.00 PKD
ROOT
HETATM    1  O   UNL     1      -9.055   8.771  68.368  1.00  0.00    -0.140 OA 
HETATM    2  S   UNL     1      -9.759   7.330  68.216  1.00  0.00    -0.150 S  
HETATM    3  N   UNL     2      -8.062  11.260  65.723  1.00  0.00    -0.370 NA 
HETATM    4  H1  UNL     2      -8.583  11.439  66.581  1.00  0.00     0.000 HD 
HETATM    5  H2  UNL     2      -7.065  11.467  65.648  1.00  0.00     0.000 HD 
HETATM    6  C   UNL     2      -8.753  10.740  64.695  1.00  0.00    -0.097 C  
HETATM    7  N   UNL     3      -7.104   8.392  66.274  1.00  0.00    -0.076 NA 
HETATM    8  O   UNL     1      -8.473   6.372  68.239  1.00  0.00    -0.115 OA 
HETATM    9  O   UNL     1     -10.555   7.102  69.399  1.00  0.00    -0.222 OA 
HETATM   10  O   UNL     1     -10.313   7.275  66.892  1.00  0.00    -0.265 OA 
HETATM   11  C   UNL     3      -7.398   7.462  65.339  1.00  0.00    -0.072 C  
HETATM   12  H1  UNL     3      -6.604   8.180  67.138  1.00  0.00     0.000 HD 
HETATM   13  H2  UNL     3      -7.397   9.355  66.108  1.00  0.00     0.000 HD 
HETATM   14  N   UNL     2      -9.984  10.261  64.908  1.00  0.00    -0.334 NA 
HETATM   15  N   UNL     2      -8.096  10.516  63.614  1.00  0.00    -0.317 NA 
HETATM   16  H2  UNL     2      -7.100  10.722  63.540  1.00  0.00     0.000 HD 
HETATM   17  H   UNL     2     -10.371   9.705  64.146  1.00  0.00     0.000 HD 
HETATM   18  N   UNL     3      -8.024   7.727  64.257  1.00  0.00    -0.185 NA 
HETATM   19  N   UNL     3      -7.048   6.203  65.689  1.00  0.00    -0.071 NA 
HETATM   20  H2  UNL     3      -8.317   8.689  64.089  1.00  0.00     0.000 HD 
HETATM   21  H1  UNL     2      -8.621  10.121  62.834  1.00  0.00     0.000 HD 
HETATM   22  H1  UNL     3      -8.246   7.025  63.550  1.00  0.00     0.000 HD 
HETATM   23  H   UNL     3      -6.940   5.921  66.663  1.00  0.00     0.000 HD 
ENDROOT
BRANCH  14  24
HETATM   24  C   UNL     2     -10.850  10.413  66.063  1.00  0.00     0.117 C  
BRANCH  24  25
HETATM   25  C   UNL     2     -11.367  11.839  66.152  1.00  0.00    -0.342 A  
HETATM   26  I   UNL     2     -11.786  14.893  69.237  1.00  0.00    -0.353 I  
HETATM   27  C   UNL     2     -11.899  12.482  65.021  1.00  0.00    -0.445 A  
HETATM   28  C   UNL     2     -11.319  12.549  67.367  1.00  0.00    -0.371 A  
HETATM   29  C   UNL     2     -12.433  13.764  65.108  1.00  0.00    -0.483 A  
HETATM   30  C   UNL     2     -11.835  13.845  67.440  1.00  0.00    -0.402 A  
HETATM   31  C   UNL     2     -12.402  14.450  66.317  1.00  0.00    -0.325 A  
ENDBRANCH  24  25
ENDBRANCH  14  24
BRANCH  19  32
HETATM   32  C   UNL     3      -6.837   5.275  64.586  1.00  0.00    -0.048 C  
BRANCH  32  33
HETATM   33  C   UNL     3      -7.515   3.953  64.805  1.00  0.00    -0.076 A  
HETATM   34  C   UNL     3      -9.115   1.710  65.367  1.00  0.00    -0.093 A  
HETATM   35  C   UNL     3      -8.475   3.519  63.890  1.00  0.00    -0.090 A  
HETATM   36  I   UNL     3     -10.814   1.918  62.868  1.00  0.00    -0.231 I  
HETATM   37  C   UNL     3      -8.114   2.088  66.259  1.00  0.00    -0.081 A  
HETATM   38  C   UNL     3      -9.285   2.422  64.182  1.00  0.00    -0.116 A  
HETATM   39  C   UNL     3      -7.322   3.207  65.986  1.00  0.00    -0.072 A  
ENDBRANCH  32  33
ENDBRANCH  19  32
TORSDOF 4
ENDMDL
MODEL      157
REMARK 921   NORMALIZED FREE ENERGY PREDICTED BY IDOCK:   -4.72 KCAL/MOL
REMARK 922        TOTAL FREE ENERGY PREDICTED BY IDOCK:   -6.47 KCAL/MOL
REMARK 923 INTER-LIGAND FREE ENERGY PREDICTED BY IDOCK:   -5.84 KCAL/MOL
REMARK 924 INTRA-LIGAND FREE ENERGY PREDICTED BY IDOCK:   -0.64 KCAL/MOL
REMARK 927      BINDING AFFINITY PREDICTED BY RF-SCORE:    0.00 PKD
ROOT
HETATM    1  O   UNL     1      -8.128  10.390  70.188  1.00  0.00    -0.028 OA 
HETATM    2  S   UNL     1      -6.565  10.695  69.952  1.00  0.00    -0.147 S  
HETATM    3  N   UNL     2     -11.009  10.548  67.768  1.00  0.00    -0.294 NA 
HETATM    4  H1  UNL     2     -10.777   9.791  68.411  1.00  0.00     0.000 HD 
HETATM    5  H2  UNL     2     -11.740  11.227  67.980  1.00  0.00     0.000 HD 
HETATM    6  C   UNL     2     -10.303  10.606  66.627  1.00  0.00    -0.241 C  
HETATM    7  N   UNL     3      -9.118  12.731  68.820  1.00  0.00    -0.393 NA 
HETATM    8  O   UNL     1      -6.486  12.220  70.441  1.00  0.00    -0.061 OA 
HETATM    9  O   UNL     1      -5.811   9.857  70.855  1.00  0.00    -0.074 OA 
HETATM   10  O   UNL     1      -6.349  10.687  68.532  1.00  0.00    -0.053 OA 
HETATM   11  C   UNL     3      -8.284  13.299  67.921  1.00  0.00    -0.163 C  
HETATM   12  H1  UNL     3      -9.131  12.982  69.809  1.00  0.00     0.000 HD 
HETATM   13  H2  UNL     3      -9.766  12.015  68.493  1.00  0.00     0.000 HD 
HETATM   14  N   UNL     2      -9.201   9.858  66.498  1.00  0.00    -0.151 NA 
HETATM   15  N   UNL     2     -10.595  11.559  65.817  1.00  0.00    -0.258 NA 
HETATM   16  H2  UNL     2     -11.326  12.238  66.029  1.00  0.00     0.000 HD 
HETATM   17  H   UNL     2      -8.606  10.094  65.704  1.00  0.00     0.000 HD 
HETATM   18  N   UNL     3      -8.268  12.985  66.681  1.00  0.00    -0.398 NA 
HETATM   19  N   UNL     3      -7.404  14.171  68.463  1.00  0.00    -0.112 NA 
HETATM   20  H2  UNL     3      -8.916  12.270  66.354  1.00  0.00     0.000 HD 
HETATM   21  H1  UNL     2     -10.058  11.604  64.950  1.00  0.00     0.000 HD 
HETATM   22  H1  UNL     3      -7.639  13.414  66.002  1.00  0.00     0.000 HD 
HETATM   23  H   UNL     3      -7.131  14.125  69.445  1.00  0.00     0.000 HD 
ENDROOT
BRANCH  14  24
HETATM   24  C   UNL     2      -8.725   8.761  67.321  1.00  0.00    -0.129 C  
BRANCH  24  25
HETATM   25  C   UNL     2      -9.286   7.442  66.820  1.00  0.00    -0.202 A  
HETATM   26  I   UNL     2      -8.009   4.244  64.144  1.00  0.00    -0.100 I  
HETATM   27  C   UNL     2     -10.557   7.000  67.228  1.00  0.00    -0.395 A  
HETATM   28  C   UNL     2      -8.544   6.630  65.940  1.00  0.00    -0.153 A  
HETATM   29  C   UNL     2     -11.105   5.824  66.724  1.00  0.00    -0.091 A  
HETATM   30  C   UNL     2      -9.092   5.439  65.458  1.00  0.00    -0.118 A  
HETATM   31  C   UNL     2     -10.374   5.039  65.838  1.00  0.00    -0.223 A  
ENDBRANCH  24  25
ENDBRANCH  14  24
BRANCH  19  32
HETATM   32  C   UNL     3      -6.870  15.179  67.557  1.00  0.00    -0.174 C  
BRANCH  32  33
HETATM   33  C   UNL     3      -7.401  16.554  67.843  1.00  0.00    -0.148 A  
HETATM   34  C   UNL     3      -8.430  18.995  68.788  1.00  0.00    -0.359 A  
HETATM   35  C   UNL     3      -6.556  17.508  68.409  1.00  0.00    -0.190 A  
HETATM   36  I   UNL     3      -5.802  20.022  69.889  1.00  0.00    -0.396 I  
HETATM   37  C   UNL     3      -9.276  18.083  68.162  1.00  0.00    -0.283 A  
HETATM   38  C   UNL     3      -7.071  18.707  68.900  1.00  0.00    -0.293 A  
HETATM   39  C   UNL     3      -8.770  16.865  67.699  1.00  0.00    -0.212 A  
ENDBRANCH  32  33
ENDBRANCH  19  32
TORSDOF 4
ENDMDL
MODEL      158
REMARK 921   NORMALIZED FREE ENERGY PREDICTED BY IDOCK:   -4.69 KCAL/MOL
REMARK 922        TOTAL FREE ENERGY PREDICTED BY IDOCK:   -6.44 KCAL/MOL
REMARK 923 INTER-LIGAND FREE ENERGY PREDICTED BY IDOCK:   -5.65 KCAL/MOL
REMARK 924 INTRA-LIGAND FREE ENERGY PREDICTED BY IDOCK:   -0.79 KCAL/MOL
REMARK 927      BINDING AFFINITY PREDICTED BY RF-SCORE:    0.00 PKD
ROOT
HETATM    1  O   UNL     1      -9.109   5.551  70.437  1.00  0.00    -0.135 OA 
HETATM    2  S   UNL     1      -9.827   6.446  69.308  1.00  0.00    -0.151 S  
HETATM    3  N   UNL     2      -7.713   6.560  73.787  1.00  0.00    -0.087 NA 
HETATM    4  H1  UNL     2      -8.336   5.778  73.581  1.00  0.00     0.000 HD 
HETATM    5  H2  UNL     2      -6.710   6.427  73.917  1.00  0.00     0.000 HD 
HETATM    6  C   UNL     2      -8.281   7.774  73.878  1.00  0.00    -0.214 C  
HETATM    7  N   UNL     3      -6.915   7.363  70.929  1.00  0.00    -0.058 NA 
HETATM    8  O   UNL     1      -8.583   6.759  68.346  1.00  0.00    -0.124 OA 
HETATM    9  O   UNL     1     -10.775   5.605  68.616  1.00  0.00    -0.229 OA 
HETATM   10  O   UNL     1     -10.207   7.682  69.934  1.00  0.00    -0.205 OA 
HETATM   11  C   UNL     3      -7.112   8.654  70.582  1.00  0.00    -0.056 C  
HETATM   12  H1  UNL     3      -6.537   6.663  70.291  1.00  0.00     0.000 HD 
HETATM   13  H2  UNL     3      -7.158   7.074  71.877  1.00  0.00     0.000 HD 
HETATM   14  N   UNL     2      -9.541   7.941  73.462  1.00  0.00    -0.270 NA 
HETATM   15  N   UNL     2      -7.497   8.758  74.136  1.00  0.00    -0.421 NA 
HETATM   16  H2  UNL     2      -6.494   8.625  74.266  1.00  0.00     0.000 HD 
HETATM   17  H   UNL     2      -9.843   8.912  73.370  1.00  0.00     0.000 HD 
HETATM   18  N   UNL     3      -7.586   9.533  71.382  1.00  0.00    -0.253 NA 
HETATM   19  N   UNL     3      -6.846   8.920  69.283  1.00  0.00    -0.049 NA 
HETATM   20  H2  UNL     3      -7.828   9.244  72.330  1.00  0.00     0.000 HD 
HETATM   21  H1  UNL     2      -7.928   9.680  74.205  1.00  0.00     0.000 HD 
HETATM   22  H1  UNL     3      -7.735  10.507  71.120  1.00  0.00     0.000 HD 
HETATM   23  H   UNL     3      -6.872   8.196  68.565  1.00  0.00     0.000 HD 
ENDROOT
BRANCH  14  24
HETATM   24  C   UNL     2     -10.544   6.948  73.124  1.00  0.00    -0.302 C  
BRANCH  24  25
HETATM   25  C   UNL     2     -11.770   7.617  72.524  1.00  0.00    -0.352 A  
HETATM   26  I   UNL     2     -13.121  11.689  71.744  1.00  0.00     0.150 I  
HETATM   27  C   UNL     2     -12.853   6.849  72.063  1.00  0.00    -0.204 A  
HETATM   28  C   UNL     2     -11.845   9.019  72.412  1.00  0.00    -0.212 A  
HETATM   29  C   UNL     2     -14.006   7.455  71.571  1.00  0.00    -0.517 A  
HETATM   30  C   UNL     2     -12.995   9.618  71.895  1.00  0.00    -0.435 A  
HETATM   31  C   UNL     2     -14.081   8.842  71.485  1.00  0.00    -0.383 A  
ENDBRANCH  24  25
ENDBRANCH  14  24
BRANCH  19  32
HETATM   32  C   UNL     3      -6.521  10.306  68.974  1.00  0.00    -0.045 C  
BRANCH  32  33
HETATM   33  C   UNL     3      -7.595  10.989  68.177  1.00  0.00    -0.095 A  
HETATM   34  C   UNL     3      -9.740  12.425  67.062  1.00  0.00    -0.211 A  
HETATM   35  C   UNL     3      -7.454  12.339  67.858  1.00  0.00    -0.121 A  
HETATM   36  I   UNL     3      -8.325  15.102  67.030  1.00  0.00    -0.147 I  
HETATM   37  C   UNL     3      -9.874  11.061  67.309  1.00  0.00    -0.204 A  
HETATM   38  C   UNL     3      -8.527  13.056  67.329  1.00  0.00    -0.199 A  
HETATM   39  C   UNL     3      -8.812  10.345  67.871  1.00  0.00    -0.125 A  
ENDBRANCH  32  33
ENDBRANCH  19  32
TORSDOF 4
ENDMDL
MODEL      159
REMARK 921   NORMALIZED FREE ENERGY PREDICTED BY IDOCK:   -4.69 KCAL/MOL
REMARK 922        TOTAL FREE ENERGY PREDICTED BY IDOCK:   -6.43 KCAL/MOL
REMARK 923 INTER-LIGAND FREE ENERGY PREDICTED BY IDOCK:   -6.12 KCAL/MOL
REMARK 924 INTRA-LIGAND FREE ENERGY PREDICTED BY IDOCK:   -0.32 KCAL/MOL
REMARK 927      BINDING AFFINITY PREDICTED BY RF-SCORE:    0.00 PKD
ROOT
HETATM    1  O   UNL     1     -10.595  16.817  67.777  1.00  0.00    -0.327 OA 
HETATM    2  S   UNL     1      -9.817  16.698  69.182  1.00  0.00    -0.210 S  
HETATM    3  N   UNL     2     -11.103  14.242  65.076  1.00  0.00    -0.353 NA 
HETATM    4  H1  UNL     2     -11.808  14.845  65.502  1.00  0.00     0.000 HD 
HETATM    5  H2  UNL     2     -10.695  14.456  64.165  1.00  0.00     0.000 HD 
HETATM    6  C   UNL     2     -10.741  13.153  65.773  1.00  0.00    -0.279 C  
HETATM    7  N   UNL     3      -8.551  15.555  66.175  1.00  0.00    -0.401 NA 
HETATM    8  O   UNL     1      -8.385  17.295  68.776  1.00  0.00    -0.266 OA 
HETATM    9  O   UNL     1     -10.464  17.585  70.120  1.00  0.00     0.310 OA 
HETATM   10  O   UNL     1      -9.640  15.296  69.442  1.00  0.00    -0.241 OA 
HETATM   11  C   UNL     3      -7.686  14.750  66.830  1.00  0.00     0.153 C  
HETATM   12  H1  UNL     3      -8.399  16.556  66.050  1.00  0.00     0.000 HD 
HETATM   13  H2  UNL     3      -9.398  15.141  65.787  1.00  0.00     0.000 HD 
HETATM   14  N   UNL     2     -11.111  13.041  67.054  1.00  0.00    -0.273 NA 
HETATM   15  N   UNL     2      -9.854  12.395  65.236  1.00  0.00    -0.414 NA 
HETATM   16  H2  UNL     2      -9.446  12.609  64.325  1.00  0.00     0.000 HD 
HETATM   17  H   UNL     2     -10.643  12.302  67.578  1.00  0.00     0.000 HD 
HETATM   18  N   UNL     3      -7.875  13.495  66.987  1.00  0.00    -0.380 NA 
HETATM   19  N   UNL     3      -6.639  15.404  67.384  1.00  0.00    -0.269 NA 
HETATM   20  H2  UNL     3      -8.722  13.080  66.599  1.00  0.00     0.000 HD 
HETATM   21  H1  UNL     2      -9.578  11.567  65.765  1.00  0.00     0.000 HD 
HETATM   22  H1  UNL     3      -7.222  12.887  67.482  1.00  0.00     0.000 HD 
HETATM   23  H   UNL     3      -6.684  16.394  67.622  1.00  0.00     0.000 HD 
ENDROOT
BRANCH  14  24
HETATM   24  C   UNL     2     -12.081  13.814  67.808  1.00  0.00    -0.290 C  
BRANCH  24  25
HETATM   25  C   UNL     2     -12.256  13.229  69.199  1.00  0.00    -0.168 A  
HETATM   26  I   UNL     2     -11.889   9.313  71.084  1.00  0.00    -0.425 I  
HETATM   27  C   UNL     2     -12.655  14.042  70.275  1.00  0.00    -0.354 A  
HETATM   28  C   UNL     2     -12.017  11.863  69.443  1.00  0.00    -0.350 A  
HETATM   29  C   UNL     2     -12.879  13.503  71.539  1.00  0.00    -0.440 A  
HETATM   30  C   UNL     2     -12.221  11.335  70.720  1.00  0.00    -0.380 A  
HETATM   31  C   UNL     2     -12.663  12.148  71.766  1.00  0.00    -0.265 A  
ENDBRANCH  24  25
ENDBRANCH  14  24
BRANCH  19  32
HETATM   32  C   UNL     3      -5.445  14.603  67.620  1.00  0.00     0.068 C  
BRANCH  32  33
HETATM   33  C   UNL     3      -5.582  13.698  68.811  1.00  0.00    -0.083 A  
HETATM   34  C   UNL     3      -5.411  12.049  71.082  1.00  0.00    -0.029 A  
HETATM   35  C   UNL     3      -5.593  14.251  70.090  1.00  0.00    -0.119 A  
HETATM   36  I   UNL     3      -5.330  14.313  73.092  1.00  0.00    -0.012 I  
HETATM   37  C   UNL     3      -5.470  11.476  69.813  1.00  0.00    -0.073 A  
HETATM   38  C   UNL     3      -5.482  13.434  71.215  1.00  0.00    -0.198 A  
HETATM   39  C   UNL     3      -5.546  12.294  68.682  1.00  0.00    -0.053 A  
ENDBRANCH  32  33
ENDBRANCH  19  32
TORSDOF 4
ENDMDL
MODEL      160
REMARK 921   NORMALIZED FREE ENERGY PREDICTED BY IDOCK:   -4.65 KCAL/MOL
REMARK 922        TOTAL FREE ENERGY PREDICTED BY IDOCK:   -6.39 KCAL/MOL
REMARK 923 INTER-LIGAND FREE ENERGY PREDICTED BY IDOCK:   -5.93 KCAL/MOL
REMARK 924 INTRA-LIGAND FREE ENERGY PREDICTED BY IDOCK:   -0.46 KCAL/MOL
REMARK 927      BINDING AFFINITY PREDICTED BY RF-SCORE:    0.00 PKD
ROOT
HETATM    1  O   UNL     1      -7.129   8.369  68.210  1.00  0.00    -0.081 OA 
HETATM    2  S   UNL     1      -7.344   8.343  66.614  1.00  0.00    -0.082 S  
HETATM    3  N   UNL     2      -9.673   8.367  70.986  1.00  0.00    -0.166 NA 
HETATM    4  H1  UNL     2      -8.848   7.774  70.898  1.00  0.00     0.000 HD 
HETATM    5  H2  UNL     2      -9.681   9.188  71.592  1.00  0.00     0.000 HD 
HETATM    6  C   UNL     2     -10.750   8.013  70.265  1.00  0.00    -0.239 C  
HETATM    7  N   UNL     3      -9.098  10.408  68.761  1.00  0.00    -0.156 NA 
HETATM    8  O   UNL     1      -7.251   9.909  66.280  1.00  0.00    -0.096 OA 
HETATM    9  O   UNL     1      -6.218   7.655  66.029  1.00  0.00    -0.040 OA 
HETATM   10  O   UNL     1      -8.702   7.935  66.383  1.00  0.00    -0.137 OA 
HETATM   11  C   UNL     3     -10.061  10.581  67.829  1.00  0.00    -0.175 C  
HETATM   12  H1  UNL     3      -8.206  10.904  68.744  1.00  0.00     0.000 HD 
HETATM   13  H2  UNL     3      -9.270   9.748  69.519  1.00  0.00     0.000 HD 
HETATM   14  N   UNL     2     -10.622   7.087  69.308  1.00  0.00    -0.217 NA 
HETATM   15  N   UNL     2     -11.789   8.760  70.377  1.00  0.00    -0.472 NA 
HETATM   16  H2  UNL     2     -11.796   9.581  70.983  1.00  0.00     0.000 HD 
HETATM   17  H   UNL     2     -11.415   7.010  68.671  1.00  0.00     0.000 HD 
HETATM   18  N   UNL     3     -11.179   9.960  67.850  1.00  0.00    -0.509 NA 
HETATM   19  N   UNL     3      -9.706  11.407  66.819  1.00  0.00    -0.195 NA 
HETATM   20  H2  UNL     3     -11.352   9.300  68.609  1.00  0.00     0.000 HD 
HETATM   21  H1  UNL     2     -12.607   8.491  69.829  1.00  0.00     0.000 HD 
HETATM   22  H1  UNL     3     -11.906  10.090  67.148  1.00  0.00     0.000 HD 
HETATM   23  H   UNL     3      -8.730  11.572  66.571  1.00  0.00     0.000 HD 
ENDROOT
BRANCH  14  24
HETATM   24  C   UNL     2      -9.524   6.177  69.040  1.00  0.00    -0.127 C  
BRANCH  24  25
HETATM   25  C   UNL     2      -9.797   5.374  67.780  1.00  0.00    -0.174 A  
HETATM   26  I   UNL     2      -7.998   1.988  65.703  1.00  0.00    -0.082 I  
HETATM   27  C   UNL     2     -10.880   5.696  66.944  1.00  0.00    -0.287 A  
HETATM   28  C   UNL     2      -8.976   4.286  67.426  1.00  0.00    -0.134 A  
HETATM   29  C   UNL     2     -11.101   5.007  65.755  1.00  0.00     0.145 A  
HETATM   30  C   UNL     2      -9.219   3.584  66.243  1.00  0.00    -0.171 A  
HETATM   31  C   UNL     2     -10.271   3.948  65.401  1.00  0.00    -0.051 A  
ENDBRANCH  24  25
ENDBRANCH  14  24
BRANCH  19  32
HETATM   32  C   UNL     3     -10.804  12.046  66.107  1.00  0.00    -0.286 C  
BRANCH  32  33
HETATM   33  C   UNL     3     -10.528  13.488  65.791  1.00  0.00    -0.293 A  
HETATM   34  C   UNL     3     -10.238  16.275  65.554  1.00  0.00    -0.326 A  
HETATM   35  C   UNL     3      -9.519  14.157  66.483  1.00  0.00    -0.303 A  
HETATM   36  I   UNL     3      -7.987  16.515  67.566  1.00  0.00    -0.216 I  
HETATM   37  C   UNL     3     -11.206  15.613  64.803  1.00  0.00    -0.391 A  
HETATM   38  C   UNL     3      -9.393  15.542  66.385  1.00  0.00    -0.298 A  
HETATM   39  C   UNL     3     -11.358  14.229  64.924  1.00  0.00    -0.372 A  
ENDBRANCH  32  33
ENDBRANCH  19  32
TORSDOF 4
ENDMDL
MODEL      161
REMARK 921   NORMALIZED FREE ENERGY PREDICTED BY IDOCK:   -4.64 KCAL/MOL
REMARK 922        TOTAL FREE ENERGY PREDICTED BY IDOCK:   -6.38 KCAL/MOL
REMARK 923 INTER-LIGAND FREE ENERGY PREDICTED BY IDOCK:   -6.08 KCAL/MOL
REMARK 924 INTRA-LIGAND FREE ENERGY PREDICTED BY IDOCK:   -0.30 KCAL/MOL
REMARK 927      BINDING AFFINITY PREDICTED BY RF-SCORE:    0.00 PKD
ROOT
HETATM    1  O   UNL     1      -8.966   6.120  67.721  1.00  0.00    -0.117 OA 
HETATM    2  S   UNL     1     -10.278   6.208  66.790  1.00  0.00    -0.202 S  
HETATM    3  N   UNL     2      -8.428   7.321  71.249  1.00  0.00    -0.115 NA 
HETATM    4  H1  UNL     2      -8.198   6.406  70.861  1.00  0.00     0.000 HD 
HETATM    5  H2  UNL     2      -7.718   8.042  71.377  1.00  0.00     0.000 HD 
HETATM    6  C   UNL     2      -9.712   7.528  71.584  1.00  0.00    -0.161 C  
HETATM    7  N   UNL     3      -9.060   8.849  68.658  1.00  0.00    -0.137 NA 
HETATM    8  O   UNL     1      -9.958   7.540  65.957  1.00  0.00     0.099 OA 
HETATM    9  O   UNL     1     -10.267   5.068  65.904  1.00  0.00    -0.204 OA 
HETATM   10  O   UNL     1     -11.385   6.499  67.658  1.00  0.00    -0.268 OA 
HETATM   11  C   UNL     3     -10.260   9.466  68.593  1.00  0.00    -0.201 C  
HETATM   12  H1  UNL     3      -8.383   8.858  67.895  1.00  0.00     0.000 HD 
HETATM   13  H2  UNL     3      -8.819   8.348  69.513  1.00  0.00     0.000 HD 
HETATM   14  N   UNL     2     -10.644   6.658  71.177  1.00  0.00    -0.224 NA 
HETATM   15  N   UNL     2     -10.001   8.680  72.072  1.00  0.00    -0.312 NA 
HETATM   16  H2  UNL     2      -9.291   9.401  72.200  1.00  0.00     0.000 HD 
HETATM   17  H   UNL     2     -11.608   6.973  71.288  1.00  0.00     0.000 HD 
HETATM   18  N   UNL     3     -11.109   9.455  69.549  1.00  0.00    -0.404 NA 
HETATM   19  N   UNL     3     -10.524  10.027  67.391  1.00  0.00    -0.242 NA 
HETATM   20  H2  UNL     3     -10.869   8.954  70.405  1.00  0.00     0.000 HD 
HETATM   21  H1  UNL     2     -10.976   8.837  72.326  1.00  0.00     0.000 HD 
HETATM   22  H1  UNL     3     -12.016   9.921  69.501  1.00  0.00     0.000 HD 
HETATM   23  H   UNL     3     -10.076   9.706  66.533  1.00  0.00     0.000 HD 
ENDROOT
BRANCH  14  24
HETATM   24  C   UNL     2     -10.488   5.335  70.601  1.00  0.00    -0.236 C  
BRANCH  24  25
HETATM   25  C   UNL     2      -9.638   4.461  71.507  1.00  0.00    -0.228 A  
HETATM   26  I   UNL     2      -6.028   2.042  71.135  1.00  0.00    -0.019 I  
HETATM   27  C   UNL     2      -9.987   4.270  72.855  1.00  0.00    -0.197 A  
HETATM   28  C   UNL     2      -8.478   3.828  71.018  1.00  0.00    -0.099 A  
HETATM   29  C   UNL     2      -9.251   3.421  73.676  1.00  0.00    -0.103 A  
HETATM   30  C   UNL     2      -7.731   2.996  71.855  1.00  0.00    -0.053 A  
HETATM   31  C   UNL     2      -8.119   2.782  73.179  1.00  0.00    -0.060 A  
ENDBRANCH  24  25
ENDBRANCH  14  24
BRANCH  19  32
HETATM   32  C   UNL     3     -11.491  11.117  67.399  1.00  0.00    -0.180 C  
BRANCH  32  33
HETATM   33  C   UNL     3     -11.266  12.098  66.285  1.00  0.00    -0.382 A  
HETATM   34  C   UNL     3     -11.199  14.131  64.343  1.00  0.00    -0.290 A  
HETATM   35  C   UNL     3     -10.684  13.333  66.571  1.00  0.00    -0.290 A  
HETATM   36  I   UNL     3      -9.953  16.225  66.142  1.00  0.00    -0.382 I  
HETATM   37  C   UNL     3     -11.720  12.880  64.019  1.00  0.00    -0.499 A  
HETATM   38  C   UNL     3     -10.675  14.349  65.616  1.00  0.00    -0.320 A  
HETATM   39  C   UNL     3     -11.762  11.870  64.985  1.00  0.00    -0.253 A  
ENDBRANCH  32  33
ENDBRANCH  19  32
TORSDOF 4
ENDMDL
MODEL      162
REMARK 921   NORMALIZED FREE ENERGY PREDICTED BY IDOCK:   -4.61 KCAL/MOL
REMARK 922        TOTAL FREE ENERGY PREDICTED BY IDOCK:   -6.33 KCAL/MOL
REMARK 923 INTER-LIGAND FREE ENERGY PREDICTED BY IDOCK:   -5.74 KCAL/MOL
REMARK 924 INTRA-LIGAND FREE ENERGY PREDICTED BY IDOCK:   -0.59 KCAL/MOL
REMARK 927      BINDING AFFINITY PREDICTED BY RF-SCORE:    0.00 PKD
ROOT
HETATM    1  O   UNL     1     -10.015  16.929  67.125  1.00  0.00    -0.261 OA 
HETATM    2  S   UNL     1      -9.223  16.156  65.955  1.00  0.00    -0.277 S  
HETATM    3  N   UNL     2     -11.806  15.556  70.140  1.00  0.00    -0.329 NA 
HETATM    4  H1  UNL     2     -11.129  16.318  70.112  1.00  0.00     0.000 HD 
HETATM    5  H2  UNL     2     -12.810  15.732  70.188  1.00  0.00     0.000 HD 
HETATM    6  C   UNL     2     -11.310  14.308  70.111  1.00  0.00    -0.129 C  
HETATM    7  N   UNL     3     -12.332  15.207  67.132  1.00  0.00    -0.046 NA 
HETATM    8  O   UNL     1     -10.372  16.057  64.840  1.00  0.00    -0.543 OA 
HETATM    9  O   UNL     1      -8.168  17.024  65.488  1.00  0.00    -0.208 OA 
HETATM   10  O   UNL     1      -8.972  14.824  66.432  1.00  0.00    -0.259 OA 
HETATM   11  C   UNL     3     -12.161  13.966  66.624  1.00  0.00    -0.448 C  
HETATM   12  H1  UNL     3     -12.606  16.011  66.567  1.00  0.00     0.000 HD 
HETATM   13  H2  UNL     3     -12.179  15.346  68.130  1.00  0.00     0.000 HD 
HETATM   14  N   UNL     2     -10.022  14.121  69.803  1.00  0.00    -0.066 NA 
HETATM   15  N   UNL     2     -12.163  13.349  70.146  1.00  0.00    -0.332 NA 
HETATM   16  H2  UNL     2     -13.167  13.525  70.194  1.00  0.00     0.000 HD 
HETATM   17  H   UNL     2      -9.759  13.156  69.602  1.00  0.00     0.000 HD 
HETATM   18  N   UNL     3     -11.817  12.958  67.331  1.00  0.00    -0.374 NA 
HETATM   19  N   UNL     3     -12.299  13.900  65.280  1.00  0.00    -0.438 NA 
HETATM   20  H2  UNL     3     -11.665  13.097  68.330  1.00  0.00     0.000 HD 
HETATM   21  H1  UNL     2     -11.787  12.400  70.124  1.00  0.00     0.000 HD 
HETATM   22  H1  UNL     3     -11.688  12.022  66.948  1.00  0.00     0.000 HD 
HETATM   23  H   UNL     3     -12.163  14.713  64.680  1.00  0.00     0.000 HD 
ENDROOT
BRANCH  14  24
HETATM   24  C   UNL     2      -8.942  15.087  69.711  1.00  0.00     0.127 C  
BRANCH  24  25
HETATM   25  C   UNL     2      -7.597  14.390  69.827  1.00  0.00     0.242 A  
HETATM   26  I   UNL     2      -5.381  11.347  67.627  1.00  0.00    -0.073 I  
HETATM   27  C   UNL     2      -6.722  14.690  70.886  1.00  0.00     0.433 A  
HETATM   28  C   UNL     2      -7.195  13.434  68.875  1.00  0.00    -0.062 A  
HETATM   29  C   UNL     2      -5.516  14.011  71.036  1.00  0.00    -0.181 A  
HETATM   30  C   UNL     2      -5.973  12.775  69.019  1.00  0.00    -0.084 A  
HETATM   31  C   UNL     2      -5.137  13.052  70.103  1.00  0.00    -0.092 A  
ENDBRANCH  24  25
ENDBRANCH  14  24
BRANCH  19  32
HETATM   32  C   UNL     3     -12.656  12.593  64.744  1.00  0.00    -0.454 C  
BRANCH  32  33
HETATM   33  C   UNL     3     -11.454  11.775  64.367  1.00  0.00    -0.349 A  
HETATM   34  C   UNL     3      -8.989  10.490  63.942  1.00  0.00    -0.232 A  
HETATM   35  C   UNL     3     -11.034  10.751  65.215  1.00  0.00     0.052 A  
HETATM   36  I   UNL     3      -9.138   8.732  66.404  1.00  0.00    -0.285 I  
HETATM   37  C   UNL     3      -9.427  11.463  63.046  1.00  0.00    -0.380 A  
HETATM   38  C   UNL     3      -9.799  10.132  65.018  1.00  0.00    -0.322 A  
HETATM   39  C   UNL     3     -10.648  12.109  63.259  1.00  0.00    -0.367 A  
ENDBRANCH  32  33
ENDBRANCH  19  32
TORSDOF 4
ENDMDL
MODEL      163
REMARK 921   NORMALIZED FREE ENERGY PREDICTED BY IDOCK:   -4.56 KCAL/MOL
REMARK 922        TOTAL FREE ENERGY PREDICTED BY IDOCK:   -6.27 KCAL/MOL
REMARK 923 INTER-LIGAND FREE ENERGY PREDICTED BY IDOCK:   -5.73 KCAL/MOL
REMARK 924 INTRA-LIGAND FREE ENERGY PREDICTED BY IDOCK:   -0.55 KCAL/MOL
REMARK 927      BINDING AFFINITY PREDICTED BY RF-SCORE:    0.00 PKD
ROOT
HETATM    1  O   UNL     1     -10.677  13.040  70.137  1.00  0.00     0.792 OA 
HETATM    2  S   UNL     1     -12.066  12.709  69.393  1.00  0.00    -0.104 S  
HETATM    3  N   UNL     2      -7.153  12.975  68.810  1.00  0.00    -0.103 NA 
HETATM    4  H1  UNL     2      -7.603  13.717  69.346  1.00  0.00     0.000 HD 
HETATM    5  H2  UNL     2      -6.518  12.307  69.248  1.00  0.00     0.000 HD 
HETATM    6  C   UNL     2      -7.439  12.921  67.499  1.00  0.00    -0.155 C  
HETATM    7  N   UNL     3      -9.235  10.740  69.156  1.00  0.00    -0.349 NA 
HETATM    8  O   UNL     1     -12.267  11.175  69.815  1.00  0.00    -0.315 OA 
HETATM    9  O   UNL     1     -13.096  13.518  70.000  1.00  0.00     0.218 OA 
HETATM   10  O   UNL     1     -11.798  12.734  67.981  1.00  0.00    -0.345 OA 
HETATM   11  C   UNL     3      -9.709  10.169  68.026  1.00  0.00    -0.142 C  
HETATM   12  H1  UNL     3      -9.545  10.474  70.091  1.00  0.00     0.000 HD 
HETATM   13  H2  UNL     3      -8.531  11.474  69.069  1.00  0.00     0.000 HD 
HETATM   14  N   UNL     2      -8.453  13.649  67.017  1.00  0.00    -0.369 NA 
HETATM   15  N   UNL     2      -6.873  11.986  66.824  1.00  0.00    -0.365 NA 
HETATM   16  H2  UNL     2      -6.237  11.318  67.262  1.00  0.00     0.000 HD 
HETATM   17  H   UNL     2      -8.744  13.414  66.068  1.00  0.00     0.000 HD 
HETATM   18  N   UNL     3      -9.321  10.502  66.855  1.00  0.00    -0.158 NA 
HETATM   19  N   UNL     3     -10.699   9.273  68.239  1.00  0.00    -0.393 NA 
HETATM   20  H2  UNL     3      -8.617  11.235  66.767  1.00  0.00     0.000 HD 
HETATM   21  H1  UNL     2      -7.090  11.944  65.828  1.00  0.00     0.000 HD 
HETATM   22  H1  UNL     3      -9.678  10.072  66.002  1.00  0.00     0.000 HD 
HETATM   23  H   UNL     3     -11.284   9.298  69.074  1.00  0.00     0.000 HD 
ENDROOT
BRANCH  14  24
HETATM   24  C   UNL     2      -9.200  14.724  67.645  1.00  0.00    -0.191 C  
BRANCH  24  25
HETATM   25  C   UNL     2      -8.689  16.072  67.168  1.00  0.00    -0.212 A  
HETATM   26  I   UNL     2     -10.401  19.943  66.116  1.00  0.00    -0.319 I  
HETATM   27  C   UNL     2      -7.317  16.282  66.945  1.00  0.00    -0.266 A  
HETATM   28  C   UNL     2      -9.576  17.143  66.944  1.00  0.00    -0.268 A  
HETATM   29  C   UNL     2      -6.846  17.494  66.448  1.00  0.00    -0.308 A  
HETATM   30  C   UNL     2      -9.093  18.363  66.467  1.00  0.00    -0.290 A  
HETATM   31  C   UNL     2      -7.733  18.539  66.208  1.00  0.00    -0.283 A  
ENDBRANCH  24  25
ENDBRANCH  14  24
BRANCH  19  32
HETATM   32  C   UNL     3     -10.878   8.268  67.198  1.00  0.00    -0.024 C  
BRANCH  32  33
HETATM   33  C   UNL     3     -10.669   6.869  67.702  1.00  0.00    -0.344 A  
HETATM   34  C   UNL     3      -9.877   4.377  68.737  1.00  0.00    -0.149 A  
HETATM   35  C   UNL     3     -10.715   6.625  69.074  1.00  0.00    -0.299 A  
HETATM   36  I   UNL     3     -10.222   5.138  71.649  1.00  0.00    -0.223 I  
HETATM   37  C   UNL     3      -9.891   4.583  67.359  1.00  0.00    -0.204 A  
HETATM   38  C   UNL     3     -10.298   5.397  69.588  1.00  0.00    -0.291 A  
HETATM   39  C   UNL     3     -10.277   5.823  66.842  1.00  0.00    -0.265 A  
ENDBRANCH  32  33
ENDBRANCH  19  32
TORSDOF 4
ENDMDL
MODEL      164
REMARK 921   NORMALIZED FREE ENERGY PREDICTED BY IDOCK:   -4.53 KCAL/MOL
REMARK 922        TOTAL FREE ENERGY PREDICTED BY IDOCK:   -6.24 KCAL/MOL
REMARK 923 INTER-LIGAND FREE ENERGY PREDICTED BY IDOCK:   -5.53 KCAL/MOL
REMARK 924 INTRA-LIGAND FREE ENERGY PREDICTED BY IDOCK:   -0.71 KCAL/MOL
REMARK 927      BINDING AFFINITY PREDICTED BY RF-SCORE:    0.00 PKD
ROOT
HETATM    1  O   UNL     1     -11.985   6.474  69.313  1.00  0.00     0.022 OA 
HETATM    2  S   UNL     1     -10.895   6.438  68.129  1.00  0.00    -0.307 S  
HETATM    3  N   UNL     2     -11.695   7.821  72.818  1.00  0.00    -0.584 NA 
HETATM    4  H1  UNL     2     -12.441   7.995  72.144  1.00  0.00     0.000 HD 
HETATM    5  H2  UNL     2     -11.802   7.143  73.573  1.00  0.00     0.000 HD 
HETATM    6  C   UNL     2     -10.566   8.530  72.662  1.00  0.00    -0.147 C  
HETATM    7  N   UNL     3     -10.221   5.530  71.395  1.00  0.00    -0.207 NA 
HETATM    8  O   UNL     1     -10.306   4.958  68.316  1.00  0.00    -0.079 OA 
HETATM    9  O   UNL     1     -11.604   6.522  66.874  1.00  0.00    -0.019 OA 
HETATM   10  O   UNL     1      -9.856   7.363  68.491  1.00  0.00    -0.153 OA 
HETATM   11  C   UNL     3      -8.897   5.697  71.183  1.00  0.00    -0.135 C  
HETATM   12  H1  UNL     3     -10.737   4.702  71.095  1.00  0.00     0.000 HD 
HETATM   13  H2  UNL     3     -10.731   6.269  71.879  1.00  0.00     0.000 HD 
HETATM   14  N   UNL     2     -10.374   9.219  71.531  1.00  0.00    -0.336 NA 
HETATM   15  N   UNL     2      -9.627   8.312  73.511  1.00  0.00    -0.086 NA 
HETATM   16  H2  UNL     2      -9.734   7.633  74.266  1.00  0.00     0.000 HD 
HETATM   17  H   UNL     2      -9.425   9.566  71.390  1.00  0.00     0.000 HD 
HETATM   18  N   UNL     3      -8.250   6.734  71.559  1.00  0.00    -0.111 NA 
HETATM   19  N   UNL     3      -8.329   4.707  70.458  1.00  0.00    -0.088 NA 
HETATM   20  H2  UNL     3      -8.759   7.473  72.044  1.00  0.00     0.000 HD 
HETATM   21  H1  UNL     2      -8.768   8.850  73.393  1.00  0.00     0.000 HD 
HETATM   22  H1  UNL     3      -7.251   6.860  71.399  1.00  0.00     0.000 HD 
HETATM   23  H   UNL     3      -8.870   4.120  69.823  1.00  0.00     0.000 HD 
ENDROOT
BRANCH  14  24
HETATM   24  C   UNL     2     -11.314   9.544  70.475  1.00  0.00    -0.283 C  
BRANCH  24  25
HETATM   25  C   UNL     2     -11.922  10.916  70.712  1.00  0.00    -0.449 A  
HETATM   26  I   UNL     2     -11.509  14.921  69.036  1.00  0.00    -0.385 I  
HETATM   27  C   UNL     2     -12.883  11.112  71.720  1.00  0.00    -0.479 A  
HETATM   28  C   UNL     2     -11.541  12.020  69.924  1.00  0.00    -0.315 A  
HETATM   29  C   UNL     2     -13.398  12.377  71.986  1.00  0.00    -0.511 A  
HETATM   30  C   UNL     2     -12.081  13.282  70.183  1.00  0.00    -0.333 A  
HETATM   31  C   UNL     2     -13.000  13.466  71.218  1.00  0.00    -0.368 A  
ENDBRANCH  24  25
ENDBRANCH  14  24
BRANCH  19  32
HETATM   32  C   UNL     3      -6.893   4.533  70.639  1.00  0.00    -0.037 C  
BRANCH  32  33
HETATM   33  C   UNL     3      -6.168   4.321  69.342  1.00  0.00    -0.028 A  
HETATM   34  C   UNL     3      -5.201   3.911  66.733  1.00  0.00    -0.012 A  
HETATM   35  C   UNL     3      -5.996   5.397  68.472  1.00  0.00    -0.021 A  
HETATM   36  I   UNL     3      -5.464   6.799  65.858  1.00  0.00    -0.027 I  
HETATM   37  C   UNL     3      -5.300   2.835  67.612  1.00  0.00    -0.017 A  
HETATM   38  C   UNL     3      -5.541   5.190  67.171  1.00  0.00    -0.013 A  
HETATM   39  C   UNL     3      -5.788   3.034  68.907  1.00  0.00    -0.023 A  
ENDBRANCH  32  33
ENDBRANCH  19  32
TORSDOF 4
ENDMDL
MODEL      165
REMARK 921   NORMALIZED FREE ENERGY PREDICTED BY IDOCK:   -4.52 KCAL/MOL
REMARK 922        TOTAL FREE ENERGY PREDICTED BY IDOCK:   -6.23 KCAL/MOL
REMARK 923 INTER-LIGAND FREE ENERGY PREDICTED BY IDOCK:   -5.43 KCAL/MOL
REMARK 924 INTRA-LIGAND FREE ENERGY PREDICTED BY IDOCK:   -0.80 KCAL/MOL
REMARK 927      BINDING AFFINITY PREDICTED BY RF-SCORE:    0.00 PKD
ROOT
HETATM    1  O   UNL     1      -9.133  10.274  69.700  1.00  0.00    -0.196 OA 
HETATM    2  S   UNL     1     -10.011   9.007  69.233  1.00  0.00    -0.194 S  
HETATM    3  N   UNL     2      -6.515  12.220  67.818  1.00  0.00    -0.092 NA 
HETATM    4  H1  UNL     2      -7.306  12.589  68.346  1.00  0.00     0.000 HD 
HETATM    5  H2  UNL     2      -5.572  12.201  68.206  1.00  0.00     0.000 HD 
HETATM    6  C   UNL     2      -6.778  11.758  66.584  1.00  0.00     0.024 C  
HETATM    7  N   UNL     3      -6.604   9.283  68.722  1.00  0.00    -0.052 NA 
HETATM    8  O   UNL     1      -9.134   7.805  69.831  1.00  0.00    -0.146 OA 
HETATM    9  O   UNL     1     -11.278   9.072  69.922  1.00  0.00    -0.195 OA 
HETATM   10  O   UNL     1      -9.915   8.939  67.801  1.00  0.00    -0.171 OA 
HETATM   11  C   UNL     3      -6.660   8.348  67.748  1.00  0.00    -0.062 C  
HETATM   12  H1  UNL     3      -6.605   9.057  69.717  1.00  0.00     0.000 HD 
HETATM   13  H2  UNL     3      -6.558  10.265  68.448  1.00  0.00     0.000 HD 
HETATM   14  N   UNL     2      -8.049  11.574  66.209  1.00  0.00    -0.357 NA 
HETATM   15  N   UNL     2      -5.783  11.293  65.919  1.00  0.00    -0.417 NA 
HETATM   16  H2  UNL     2      -4.839  11.275  66.308  1.00  0.00     0.000 HD 
HETATM   17  H   UNL     2      -8.176  11.040  65.350  1.00  0.00     0.000 HD 
HETATM   18  N   UNL     3      -6.659   8.630  66.501  1.00  0.00    -0.062 NA 
HETATM   19  N   UNL     3      -6.808   7.085  68.208  1.00  0.00    -0.071 NA 
HETATM   20  H2  UNL     3      -6.612   9.612  66.227  1.00  0.00     0.000 HD 
HETATM   21  H1  UNL     2      -5.982  10.943  64.982  1.00  0.00     0.000 HD 
HETATM   22  H1  UNL     3      -6.701   7.925  65.765  1.00  0.00     0.000 HD 
HETATM   23  H   UNL     3      -7.213   6.885  69.123  1.00  0.00     0.000 HD 
ENDROOT
BRANCH  14  24
HETATM   24  C   UNL     2      -9.276  12.021  66.844  1.00  0.00    -0.197 C  
BRANCH  24  25
HETATM   25  C   UNL     2      -9.794  13.278  66.168  1.00  0.00    -0.286 A  
HETATM   26  I   UNL     2      -9.466  17.587  66.758  1.00  0.00    -0.316 I  
HETATM   27  C   UNL     2     -10.631  13.194  65.041  1.00  0.00    -0.347 A  
HETATM   28  C   UNL     2      -9.444  14.554  66.650  1.00  0.00    -0.301 A  
HETATM   29  C   UNL     2     -11.162  14.338  64.452  1.00  0.00    -0.262 A  
HETATM   30  C   UNL     2      -9.963  15.698  66.039  1.00  0.00    -0.333 A  
HETATM   31  C   UNL     2     -10.829  15.595  64.949  1.00  0.00    -0.438 A  
ENDBRANCH  24  25
ENDBRANCH  14  24
BRANCH  19  32
HETATM   32  C   UNL     3      -6.353   6.027  67.315  1.00  0.00    -0.038 C  
BRANCH  32  33
HETATM   33  C   UNL     3      -7.479   5.174  66.808  1.00  0.00    -0.087 A  
HETATM   34  C   UNL     3      -9.773   3.946  65.741  1.00  0.00    -0.169 A  
HETATM   35  C   UNL     3      -7.568   4.903  65.443  1.00  0.00    -0.085 A  
HETATM   36  I   UNL     3      -8.876   4.091  62.852  1.00  0.00    -0.121 I  
HETATM   37  C   UNL     3      -9.670   4.146  67.116  1.00  0.00    -0.224 A  
HETATM   38  C   UNL     3      -8.717   4.318  64.911  1.00  0.00    -0.130 A  
HETATM   39  C   UNL     3      -8.534   4.763  67.648  1.00  0.00    -0.104 A  
ENDBRANCH  32  33
ENDBRANCH  19  32
TORSDOF 4
ENDMDL
MODEL      166
REMARK 921   NORMALIZED FREE ENERGY PREDICTED BY IDOCK:   -4.51 KCAL/MOL
REMARK 922        TOTAL FREE ENERGY PREDICTED BY IDOCK:   -6.22 KCAL/MOL
REMARK 923 INTER-LIGAND FREE ENERGY PREDICTED BY IDOCK:   -5.29 KCAL/MOL
REMARK 924 INTRA-LIGAND FREE ENERGY PREDICTED BY IDOCK:   -0.93 KCAL/MOL
REMARK 927      BINDING AFFINITY PREDICTED BY RF-SCORE:    0.00 PKD
ROOT
HETATM    1  O   UNL     1      -8.766   7.065  66.545  1.00  0.00    -0.122 OA 
HETATM    2  S   UNL     1      -9.918   6.902  67.658  1.00  0.00    -0.156 S  
HETATM    3  N   UNL     2      -5.648   9.177  66.593  1.00  0.00    -0.042 NA 
HETATM    4  H1  UNL     2      -5.728   8.190  66.347  1.00  0.00     0.000 HD 
HETATM    5  H2  UNL     2      -5.584   9.904  65.880  1.00  0.00     0.000 HD 
HETATM    6  C   UNL     2      -5.632   9.472  67.903  1.00  0.00    -0.040 C  
HETATM    7  N   UNL     3      -8.624   9.947  66.658  1.00  0.00    -0.124 NA 
HETATM    8  O   UNL     1     -10.999   7.956  67.119  1.00  0.00    -0.219 OA 
HETATM    9  O   UNL     1     -10.450   5.564  67.549  1.00  0.00    -0.214 OA 
HETATM   10  O   UNL     1      -9.387   7.422  68.888  1.00  0.00    -0.145 OA 
HETATM   11  C   UNL     3      -9.078  10.528  67.790  1.00  0.00    -0.138 C  
HETATM   12  H1  UNL     3      -9.219   9.746  65.853  1.00  0.00     0.000 HD 
HETATM   13  H2  UNL     3      -7.637   9.696  66.605  1.00  0.00     0.000 HD 
HETATM   14  N   UNL     2      -5.962   8.528  68.792  1.00  0.00    -0.043 NA 
HETATM   15  N   UNL     2      -5.531  10.715  68.212  1.00  0.00    -0.037 NA 
HETATM   16  H2  UNL     2      -5.467  11.441  67.499  1.00  0.00     0.000 HD 
HETATM   17  H   UNL     2      -6.125   8.864  69.742  1.00  0.00     0.000 HD 
HETATM   18  N   UNL     3      -8.333  10.779  68.798  1.00  0.00    -0.140 NA 
HETATM   19  N   UNL     3     -10.413  10.741  67.800  1.00  0.00    -0.195 NA 
HETATM   20  H2  UNL     3      -7.345  10.529  68.746  1.00  0.00     0.000 HD 
HETATM   21  H1  UNL     2      -5.519  10.939  69.208  1.00  0.00     0.000 HD 
HETATM   22  H1  UNL     3      -8.675  11.218  69.654  1.00  0.00     0.000 HD 
HETATM   23  H   UNL     3     -11.053  10.198  67.221  1.00  0.00     0.000 HD 
ENDROOT
BRANCH  14  24
HETATM   24  C   UNL     2      -6.125   7.098  68.607  1.00  0.00    -0.030 C  
BRANCH  24  25
HETATM   25  C   UNL     2      -6.585   6.446  69.899  1.00  0.00    -0.048 A  
HETATM   26  I   UNL     2      -7.292   7.683  74.021  1.00  0.00    -0.202 I  
HETATM   27  C   UNL     2      -6.891   5.074  69.942  1.00  0.00    -0.051 A  
HETATM   28  C   UNL     2      -6.721   7.201  71.080  1.00  0.00    -0.051 A  
HETATM   29  C   UNL     2      -7.252   4.455  71.136  1.00  0.00    -0.040 A  
HETATM   30  C   UNL     2      -7.107   6.577  72.268  1.00  0.00    -0.077 A  
HETATM   31  C   UNL     2      -7.362   5.205  72.303  1.00  0.00    -0.092 A  
ENDBRANCH  24  25
ENDBRANCH  14  24
BRANCH  19  32
HETATM   32  C   UNL     3     -10.879  11.796  68.690  1.00  0.00    -0.220 C  
BRANCH  32  33
HETATM   33  C   UNL     3     -11.560  11.259  69.916  1.00  0.00    -0.413 A  
HETATM   34  C   UNL     3     -13.143  10.121  71.942  1.00  0.00    -0.571 A  
HETATM   35  C   UNL     3     -11.468   9.899  70.207  1.00  0.00    -0.349 A  
HETATM   36  I   UNL     3     -12.226   7.273  71.476  1.00  0.00    -0.431 I  
HETATM   37  C   UNL     3     -13.196  11.494  71.711  1.00  0.00    -0.456 A  
HETATM   38  C   UNL     3     -12.272   9.331  71.194  1.00  0.00    -0.301 A  
HETATM   39  C   UNL     3     -12.416  12.062  70.700  1.00  0.00    -0.335 A  
ENDBRANCH  32  33
ENDBRANCH  19  32
TORSDOF 4
ENDMDL
MODEL      167
REMARK 921   NORMALIZED FREE ENERGY PREDICTED BY IDOCK:   -4.48 KCAL/MOL
REMARK 922        TOTAL FREE ENERGY PREDICTED BY IDOCK:   -6.18 KCAL/MOL
REMARK 923 INTER-LIGAND FREE ENERGY PREDICTED BY IDOCK:   -5.52 KCAL/MOL
REMARK 924 INTRA-LIGAND FREE ENERGY PREDICTED BY IDOCK:   -0.66 KCAL/MOL
REMARK 927      BINDING AFFINITY PREDICTED BY RF-SCORE:    0.00 PKD
ROOT
HETATM    1  O   UNL     1      -9.145   9.144  70.312  1.00  0.00    -0.180 OA 
HETATM    2  S   UNL     1     -10.685   8.682  70.393  1.00  0.00    -0.228 S  
HETATM    3  N   UNL     2      -7.156  10.401  67.372  1.00  0.00    -0.085 NA 
HETATM    4  H1  UNL     2      -7.216  10.812  68.304  1.00  0.00     0.000 HD 
HETATM    5  H2  UNL     2      -6.359   9.831  67.088  1.00  0.00     0.000 HD 
HETATM    6  C   UNL     2      -8.177  10.650  66.536  1.00  0.00    -0.138 C  
HETATM    7  N   UNL     3      -8.505   7.691  67.901  1.00  0.00    -0.122 NA 
HETATM    8  O   UNL     1     -10.525   7.096  70.220  1.00  0.00    -0.209 OA 
HETATM    9  O   UNL     1     -11.165   8.979  71.722  1.00  0.00    -0.336 OA 
HETATM   10  O   UNL     1     -11.332   9.179  69.211  1.00  0.00     0.046 OA 
HETATM   11  C   UNL     3      -9.545   7.362  67.103  1.00  0.00    -0.159 C  
HETATM   12  H1  UNL     3      -8.171   7.096  68.660  1.00  0.00     0.000 HD 
HETATM   13  H2  UNL     3      -8.030   8.578  67.736  1.00  0.00     0.000 HD 
HETATM   14  N   UNL     2      -9.303  11.188  67.019  1.00  0.00    -0.168 NA 
HETATM   15  N   UNL     2      -8.100  10.133  65.363  1.00  0.00    -0.144 NA 
HETATM   16  H2  UNL     2      -7.303   9.562  65.080  1.00  0.00     0.000 HD 
HETATM   17  H   UNL     2     -10.102  11.166  66.384  1.00  0.00     0.000 HD 
HETATM   18  N   UNL     3      -9.963   8.107  66.151  1.00  0.00    -0.467 NA 
HETATM   19  N   UNL     3     -10.164   6.212  67.454  1.00  0.00    -0.160 NA 
HETATM   20  H2  UNL     3      -9.488   8.994  65.985  1.00  0.00     0.000 HD 
HETATM   21  H1  UNL     2      -8.876  10.322  64.728  1.00  0.00     0.000 HD 
HETATM   22  H1  UNL     3     -10.748   7.859  65.548  1.00  0.00     0.000 HD 
HETATM   23  H   UNL     3     -10.121   5.841  68.403  1.00  0.00     0.000 HD 
ENDROOT
BRANCH  14  24
HETATM   24  C   UNL     2      -9.558  11.799  68.310  1.00  0.00    -0.199 C  
BRANCH  24  25
HETATM   25  C   UNL     2     -10.000  13.242  68.135  1.00  0.00    -0.234 A  
HETATM   26  I   UNL     2      -8.151  17.188  68.296  1.00  0.00    -0.261 I  
HETATM   27  C   UNL     2     -11.343  13.552  67.855  1.00  0.00    -0.320 A  
HETATM   28  C   UNL     2      -9.076  14.299  68.243  1.00  0.00    -0.188 A  
HETATM   29  C   UNL     2     -11.769  14.874  67.756  1.00  0.00    -0.340 A  
HETATM   30  C   UNL     2      -9.508  15.621  68.118  1.00  0.00    -0.195 A  
HETATM   31  C   UNL     2     -10.853  15.913  67.887  1.00  0.00    -0.327 A  
ENDBRANCH  24  25
ENDBRANCH  14  24
BRANCH  19  32
HETATM   32  C   UNL     3     -10.898   5.538  66.392  1.00  0.00    -0.122 C  
BRANCH  32  33
HETATM   33  C   UNL     3     -10.128   4.397  65.791  1.00  0.00    -0.262 A  
HETATM   34  C   UNL     3      -8.399   2.558  64.550  1.00  0.00    -0.087 A  
HETATM   35  C   UNL     3      -9.039   3.869  66.484  1.00  0.00    -0.155 A  
HETATM   36  I   UNL     3      -6.465   2.351  66.872  1.00  0.00    -0.036 I  
HETATM   37  C   UNL     3      -9.522   3.022  63.869  1.00  0.00    -0.123 A  
HETATM   38  C   UNL     3      -8.168   2.977  65.859  1.00  0.00    -0.088 A  
HETATM   39  C   UNL     3     -10.379   3.942  64.480  1.00  0.00    -0.231 A  
ENDBRANCH  32  33
ENDBRANCH  19  32
TORSDOF 4
ENDMDL
MODEL      168
REMARK 921   NORMALIZED FREE ENERGY PREDICTED BY IDOCK:   -4.46 KCAL/MOL
REMARK 922        TOTAL FREE ENERGY PREDICTED BY IDOCK:   -6.15 KCAL/MOL
REMARK 923 INTER-LIGAND FREE ENERGY PREDICTED BY IDOCK:   -5.82 KCAL/MOL
REMARK 924 INTRA-LIGAND FREE ENERGY PREDICTED BY IDOCK:   -0.33 KCAL/MOL
REMARK 927      BINDING AFFINITY PREDICTED BY RF-SCORE:    0.00 PKD
ROOT
HETATM    1  O   UNL     1      -6.965   8.044  66.311  1.00  0.00    -0.061 OA 
HETATM    2  S   UNL     1      -7.959   8.917  65.394  1.00  0.00    -0.116 S  
HETATM    3  N   UNL     2      -7.113   7.299  69.999  1.00  0.00    -0.064 NA 
HETATM    4  H1  UNL     2      -6.970   6.637  69.236  1.00  0.00     0.000 HD 
HETATM    5  H2  UNL     2      -6.335   7.645  70.562  1.00  0.00     0.000 HD 
HETATM    6  C   UNL     2      -8.377   7.691  70.227  1.00  0.00    -0.132 C  
HETATM    7  N   UNL     3      -6.774   9.946  68.474  1.00  0.00    -0.055 NA 
HETATM    8  O   UNL     1      -7.195  10.327  65.393  1.00  0.00    -0.139 OA 
HETATM    9  O   UNL     1      -7.941   8.355  64.064  1.00  0.00    -0.139 OA 
HETATM   10  O   UNL     1      -9.174   9.088  66.143  1.00  0.00    -0.183 OA 
HETATM   11  C   UNL     3      -7.781  10.841  68.578  1.00  0.00    -0.118 C  
HETATM   12  H1  UNL     3      -5.938  10.105  67.912  1.00  0.00     0.000 HD 
HETATM   13  H2  UNL     3      -6.855   9.066  68.983  1.00  0.00     0.000 HD 
HETATM   14  N   UNL     2      -9.324   7.411  69.325  1.00  0.00    -0.154 NA 
HETATM   15  N   UNL     2      -8.557   8.524  71.189  1.00  0.00    -0.152 NA 
HETATM   16  H2  UNL     2      -7.779   8.870  71.751  1.00  0.00     0.000 HD 
HETATM   17  H   UNL     2     -10.208   7.903  69.456  1.00  0.00     0.000 HD 
HETATM   18  N   UNL     3      -8.829  10.642  69.282  1.00  0.00    -0.330 NA 
HETATM   19  N   UNL     3      -7.624  11.936  67.799  1.00  0.00    -0.121 NA 
HETATM   20  H2  UNL     3      -8.910   9.762  69.792  1.00  0.00     0.000 HD 
HETATM   21  H1  UNL     2      -9.517   8.822  71.362  1.00  0.00     0.000 HD 
HETATM   22  H1  UNL     3      -9.589  11.318  69.361  1.00  0.00     0.000 HD 
HETATM   23  H   UNL     3      -7.043  11.926  66.961  1.00  0.00     0.000 HD 
ENDROOT
BRANCH  14  24
HETATM   24  C   UNL     2      -9.281   6.512  68.186  1.00  0.00    -0.112 C  
BRANCH  24  25
HETATM   25  C   UNL     2      -9.283   5.066  68.653  1.00  0.00    -0.158 A  
HETATM   26  I   UNL     2      -9.661   2.938  72.441  1.00  0.00    -0.239 I  
HETATM   27  C   UNL     2      -9.115   4.015  67.735  1.00  0.00    -0.175 A  
HETATM   28  C   UNL     2      -9.460   4.748  70.014  1.00  0.00    -0.240 A  
HETATM   29  C   UNL     2      -9.053   2.691  68.162  1.00  0.00    -0.229 A  
HETATM   30  C   UNL     2      -9.420   3.415  70.430  1.00  0.00    -0.175 A  
HETATM   31  C   UNL     2      -9.206   2.387  69.511  1.00  0.00    -0.189 A  
ENDBRANCH  24  25
ENDBRANCH  14  24
BRANCH  19  32
HETATM   32  C   UNL     3      -8.338  13.130  68.233  1.00  0.00    -0.152 C  
BRANCH  32  33
HETATM   33  C   UNL     3      -9.182  13.726  67.144  1.00  0.00    -0.245 A  
HETATM   34  C   UNL     3     -10.455  14.708  64.837  1.00  0.00    -0.415 A  
HETATM   35  C   UNL     3      -9.983  12.890  66.366  1.00  0.00    -0.267 A  
HETATM   36  I   UNL     3     -11.634  12.050  63.990  1.00  0.00    -0.495 I  
HETATM   37  C   UNL     3      -9.716  15.573  65.641  1.00  0.00    -0.355 A  
HETATM   38  C   UNL     3     -10.593  13.372  65.208  1.00  0.00    -0.325 A  
HETATM   39  C   UNL     3      -9.076  15.086  66.785  1.00  0.00    -0.287 A  
ENDBRANCH  32  33
ENDBRANCH  19  32
TORSDOF 4
ENDMDL
MODEL      169
REMARK 921   NORMALIZED FREE ENERGY PREDICTED BY IDOCK:   -4.43 KCAL/MOL
REMARK 922        TOTAL FREE ENERGY PREDICTED BY IDOCK:   -6.12 KCAL/MOL
REMARK 923 INTER-LIGAND FREE ENERGY PREDICTED BY IDOCK:   -5.53 KCAL/MOL
REMARK 924 INTRA-LIGAND FREE ENERGY PREDICTED BY IDOCK:   -0.59 KCAL/MOL
REMARK 927      BINDING AFFINITY PREDICTED BY RF-SCORE:    0.00 PKD
ROOT
HETATM    1  O   UNL     1      -7.860   9.026  71.391  1.00  0.00    -0.257 OA 
HETATM    2  S   UNL     1      -6.386   9.405  70.865  1.00  0.00    -0.080 S  
HETATM    3  N   UNL     2     -10.964   8.148  69.447  1.00  0.00    -0.431 NA 
HETATM    4  H1  UNL     2     -10.565   7.648  70.242  1.00  0.00     0.000 HD 
HETATM    5  H2  UNL     2     -11.758   8.780  69.554  1.00  0.00     0.000 HD 
HETATM    6  C   UNL     2     -10.391   7.932  68.251  1.00  0.00    -0.197 C  
HETATM    7  N   UNL     3      -9.300  10.730  69.559  1.00  0.00    -0.414 NA 
HETATM    8  O   UNL     1      -6.473  11.006  70.881  1.00  0.00    -0.277 OA 
HETATM    9  O   UNL     1      -5.436   8.961  71.857  1.00  0.00    -0.044 OA 
HETATM   10  O   UNL     1      -6.316   8.993  69.490  1.00  0.00    -0.042 OA 
HETATM   11  C   UNL     3      -8.648  11.084  68.428  1.00  0.00    -0.149 C  
HETATM   12  H1  UNL     3      -9.248  11.264  70.426  1.00  0.00     0.000 HD 
HETATM   13  H2  UNL     3      -9.871   9.885  69.543  1.00  0.00     0.000 HD 
HETATM   14  N   UNL     2      -9.214   7.298  68.192  1.00  0.00    -0.133 NA 
HETATM   15  N   UNL     2     -10.893   8.561  67.250  1.00  0.00    -0.444 NA 
HETATM   16  H2  UNL     2     -11.687   9.193  67.358  1.00  0.00     0.000 HD 
HETATM   17  H   UNL     2      -8.742   7.344  67.289  1.00  0.00     0.000 HD 
HETATM   18  N   UNL     3      -8.713  10.414  67.341  1.00  0.00    -0.125 NA 
HETATM   19  N   UNL     3      -7.848  12.165  68.572  1.00  0.00    -0.175 NA 
HETATM   20  H2  UNL     3      -9.285   9.570  67.325  1.00  0.00     0.000 HD 
HETATM   21  H1  UNL     2     -10.458   8.398  66.342  1.00  0.00     0.000 HD 
HETATM   22  H1  UNL     3      -8.222  10.681  66.488  1.00  0.00     0.000 HD 
HETATM   23  H   UNL     3      -7.474  12.445  69.478  1.00  0.00     0.000 HD 
ENDROOT
BRANCH  14  24
HETATM   24  C   UNL     2      -8.510   6.556  69.221  1.00  0.00    -0.127 C  
BRANCH  24  25
HETATM   25  C   UNL     2      -7.922   5.280  68.644  1.00  0.00    -0.087 A  
HETATM   26  I   UNL     2      -8.348   2.938  64.990  1.00  0.00    -0.101 I  
HETATM   27  C   UNL     2      -6.981   4.529  69.372  1.00  0.00    -0.050 A  
HETATM   28  C   UNL     2      -8.300   4.824  67.367  1.00  0.00    -0.105 A  
HETATM   29  C   UNL     2      -6.485   3.326  68.879  1.00  0.00    -0.030 A  
HETATM   30  C   UNL     2      -7.779   3.628  66.869  1.00  0.00    -0.080 A  
HETATM   31  C   UNL     2      -6.881   2.871  67.625  1.00  0.00    -0.048 A  
ENDBRANCH  24  25
ENDBRANCH  14  24
BRANCH  19  32
HETATM   32  C   UNL     3      -7.554  12.902  67.350  1.00  0.00    -0.148 C  
BRANCH  32  33
HETATM   33  C   UNL     3      -8.560  13.982  67.071  1.00  0.00    -0.193 A  
HETATM   34  C   UNL     3     -10.280  16.006  66.148  1.00  0.00    -0.340 A  
HETATM   35  C   UNL     3      -9.741  13.659  66.404  1.00  0.00    -0.300 A  
HETATM   36  I   UNL     3     -12.240  14.138  64.790  1.00  0.00    -0.374 I  
HETATM   37  C   UNL     3      -9.140  16.344  66.873  1.00  0.00    -0.238 A  
HETATM   38  C   UNL     3     -10.580  14.663  65.925  1.00  0.00    -0.311 A  
HETATM   39  C   UNL     3      -8.278  15.340  67.326  1.00  0.00    -0.230 A  
ENDBRANCH  32  33
ENDBRANCH  19  32
TORSDOF 4
ENDMDL
MODEL      170
REMARK 921   NORMALIZED FREE ENERGY PREDICTED BY IDOCK:   -4.42 KCAL/MOL
REMARK 922        TOTAL FREE ENERGY PREDICTED BY IDOCK:   -6.11 KCAL/MOL
REMARK 923 INTER-LIGAND FREE ENERGY PREDICTED BY IDOCK:   -5.85 KCAL/MOL
REMARK 924 INTRA-LIGAND FREE ENERGY PREDICTED BY IDOCK:   -0.26 KCAL/MOL
REMARK 927      BINDING AFFINITY PREDICTED BY RF-SCORE:    0.00 PKD
ROOT
HETATM    1  O   UNL     1      -9.599   9.209  65.717  1.00  0.00    -0.262 OA 
HETATM    2  S   UNL     1      -8.251   8.358  65.944  1.00  0.00    -0.131 S  
HETATM    3  N   UNL     2     -12.037  10.582  68.238  1.00  0.00    -0.725 NA 
HETATM    4  H1  UNL     2     -11.610  11.074  67.454  1.00  0.00     0.000 HD 
HETATM    5  H2  UNL     2     -12.990  10.220  68.189  1.00  0.00     0.000 HD 
HETATM    6  C   UNL     2     -11.284  10.435  69.340  1.00  0.00    -0.259 C  
HETATM    7  N   UNL     3     -11.241   7.695  67.546  1.00  0.00    -0.386 NA 
HETATM    8  O   UNL     1      -8.810   6.867  65.752  1.00  0.00    -0.145 OA 
HETATM    9  O   UNL     1      -7.342   8.677  64.868  1.00  0.00    -0.086 OA 
HETATM   10  O   UNL     1      -7.892   8.507  67.327  1.00  0.00    -0.096 OA 
HETATM   11  C   UNL     3     -10.590   6.997  68.503  1.00  0.00    -0.202 C  
HETATM   12  H1  UNL     3     -11.458   7.314  66.625  1.00  0.00     0.000 HD 
HETATM   13  H2  UNL     3     -11.530   8.650  67.756  1.00  0.00     0.000 HD 
HETATM   14  N   UNL     2      -9.974  10.702  69.279  1.00  0.00    -0.307 NA 
HETATM   15  N   UNL     2     -11.822   9.815  70.328  1.00  0.00    -0.431 NA 
HETATM   16  H2  UNL     2     -12.775   9.453  70.278  1.00  0.00     0.000 HD 
HETATM   17  H   UNL     2      -9.428  10.382  70.079  1.00  0.00     0.000 HD 
HETATM   18  N   UNL     3     -10.318   7.473  69.658  1.00  0.00    -0.220 NA 
HETATM   19  N   UNL     3     -10.171   5.776  68.101  1.00  0.00    -0.173 NA 
HETATM   20  H2  UNL     3     -10.607   8.428  69.869  1.00  0.00     0.000 HD 
HETATM   21  H1  UNL     2     -11.249   9.704  71.165  1.00  0.00     0.000 HD 
HETATM   22  H1  UNL     3      -9.826   6.947  70.380  1.00  0.00     0.000 HD 
HETATM   23  H   UNL     3     -10.011   5.553  67.119  1.00  0.00     0.000 HD 
ENDROOT
BRANCH  14  24
HETATM   24  C   UNL     2      -9.214  11.377  68.243  1.00  0.00    -0.183 C  
BRANCH  24  25
HETATM   25  C   UNL     2      -9.857  12.710  67.899  1.00  0.00    -0.218 A  
HETATM   26  I   UNL     2     -11.923  14.469  64.485  1.00  0.00    -0.279 I  
HETATM   27  C   UNL     2      -9.854  13.769  68.825  1.00  0.00    -0.093 A  
HETATM   28  C   UNL     2     -10.475  12.912  66.650  1.00  0.00    -0.272 A  
HETATM   29  C   UNL     2     -10.384  15.013  68.495  1.00  0.00    -0.230 A  
HETATM   30  C   UNL     2     -11.026  14.157  66.336  1.00  0.00    -0.311 A  
HETATM   31  C   UNL     2     -10.972  15.211  67.250  1.00  0.00    -0.327 A  
ENDBRANCH  24  25
ENDBRANCH  14  24
BRANCH  19  32
HETATM   32  C   UNL     3      -9.960   4.798  69.161  1.00  0.00    -0.163 C  
BRANCH  32  33
HETATM   33  C   UNL     3      -8.505   4.531  69.421  1.00  0.00    -0.093 A  
HETATM   34  C   UNL     3      -5.712   4.410  69.717  1.00  0.00    -0.017 A  
HETATM   35  C   UNL     3      -7.880   5.150  70.502  1.00  0.00    -0.082 A  
HETATM   36  I   UNL     3      -5.592   6.192  72.163  1.00  0.00    -0.033 I  
HETATM   37  C   UNL     3      -6.327   3.727  68.671  1.00  0.00    -0.033 A  
HETATM   38  C   UNL     3      -6.493   5.112  70.634  1.00  0.00    -0.030 A  
HETATM   39  C   UNL     3      -7.715   3.791  68.516  1.00  0.00    -0.060 A  
ENDBRANCH  32  33
ENDBRANCH  19  32
TORSDOF 4
ENDMDL
MODEL      171
REMARK 921   NORMALIZED FREE ENERGY PREDICTED BY IDOCK:   -4.39 KCAL/MOL
REMARK 922        TOTAL FREE ENERGY PREDICTED BY IDOCK:   -6.06 KCAL/MOL
REMARK 923 INTER-LIGAND FREE ENERGY PREDICTED BY IDOCK:   -5.40 KCAL/MOL
REMARK 924 INTRA-LIGAND FREE ENERGY PREDICTED BY IDOCK:   -0.66 KCAL/MOL
REMARK 927      BINDING AFFINITY PREDICTED BY RF-SCORE:    0.00 PKD
ROOT
HETATM    1  O   UNL     1     -11.432   6.095  69.320  1.00  0.00    -0.404 OA 
HETATM    2  S   UNL     1     -10.685   7.351  69.997  1.00  0.00    -0.247 S  
HETATM    3  N   UNL     2     -10.241   3.747  66.627  1.00  0.00    -0.186 NA 
HETATM    4  H1  UNL     2     -10.669   3.503  67.520  1.00  0.00     0.000 HD 
HETATM    5  H2  UNL     2     -10.776   3.747  65.758  1.00  0.00     0.000 HD 
HETATM    6  C   UNL     2      -8.937   4.066  66.652  1.00  0.00    -0.130 C  
HETATM    7  N   UNL     3     -10.780   6.773  66.590  1.00  0.00    -0.533 NA 
HETATM    8  O   UNL     1     -11.280   8.554  69.119  1.00  0.00     0.107 OA 
HETATM    9  O   UNL     1     -11.157   7.464  71.357  1.00  0.00    -0.236 OA 
HETATM   10  O   UNL     1      -9.291   7.231  69.672  1.00  0.00    -0.153 OA 
HETATM   11  C   UNL     3      -9.711   7.579  66.410  1.00  0.00    -0.110 C  
HETATM   12  H1  UNL     3     -11.729   7.122  66.727  1.00  0.00     0.000 HD 
HETATM   13  H2  UNL     3     -10.631   5.764  66.591  1.00  0.00     0.000 HD 
HETATM   14  N   UNL     2      -8.338   4.291  67.827  1.00  0.00    -0.097 NA 
HETATM   15  N   UNL     2      -8.398   4.372  65.527  1.00  0.00    -0.113 NA 
HETATM   16  H2  UNL     2      -8.933   4.373  64.658  1.00  0.00     0.000 HD 
HETATM   17  H   UNL     2      -7.415   4.720  67.769  1.00  0.00     0.000 HD 
HETATM   18  N   UNL     3      -8.522   7.142  66.239  1.00  0.00    -0.131 NA 
HETATM   19  N   UNL     3      -9.995   8.897  66.513  1.00  0.00    -0.273 NA 
HETATM   20  H2  UNL     3      -8.371   6.133  66.239  1.00  0.00     0.000 HD 
HETATM   21  H1  UNL     2      -7.407   4.615  65.545  1.00  0.00     0.000 HD 
HETATM   22  H1  UNL     3      -7.714   7.751  66.103  1.00  0.00     0.000 HD 
HETATM   23  H   UNL     3     -10.801   9.239  67.036  1.00  0.00     0.000 HD 
ENDROOT
BRANCH  14  24
HETATM   24  C   UNL     2      -8.808   4.016  69.172  1.00  0.00    -0.099 C  
BRANCH  24  25
HETATM   25  C   UNL     2      -7.632   3.873  70.124  1.00  0.00    -0.048 A  
HETATM   26  I   UNL     2      -5.952   6.104  73.474  1.00  0.00    -0.065 I  
HETATM   27  C   UNL     2      -6.746   2.788  70.013  1.00  0.00    -0.033 A  
HETATM   28  C   UNL     2      -7.408   4.821  71.141  1.00  0.00    -0.064 A  
HETATM   29  C   UNL     2      -5.631   2.683  70.839  1.00  0.00    -0.013 A  
HETATM   30  C   UNL     2      -6.300   4.696  71.982  1.00  0.00    -0.022 A  
HETATM   31  C   UNL     2      -5.404   3.637  71.827  1.00  0.00     0.000 A  
ENDBRANCH  24  25
ENDBRANCH  14  24
BRANCH  19  32
HETATM   32  C   UNL     3      -9.076   9.799  65.830  1.00  0.00    -0.168 C  
BRANCH  32  33
HETATM   33  C   UNL     3      -9.721  11.098  65.442  1.00  0.00    -0.275 A  
HETATM   34  C   UNL     3     -11.290  13.361  64.876  1.00  0.00    -0.345 A  
HETATM   35  C   UNL     3      -9.943  12.068  66.418  1.00  0.00    -0.240 A  
HETATM   36  I   UNL     3     -11.187  14.507  67.677  1.00  0.00    -0.388 I  
HETATM   37  C   UNL     3     -11.020  12.437  63.870  1.00  0.00    -0.467 A  
HETATM   38  C   UNL     3     -10.743  13.177  66.144  1.00  0.00    -0.278 A  
HETATM   39  C   UNL     3     -10.247  11.306  64.150  1.00  0.00    -0.391 A  
ENDBRANCH  32  33
ENDBRANCH  19  32
TORSDOF 4
ENDMDL
MODEL      172
REMARK 921   NORMALIZED FREE ENERGY PREDICTED BY IDOCK:   -4.39 KCAL/MOL
REMARK 922        TOTAL FREE ENERGY PREDICTED BY IDOCK:   -6.06 KCAL/MOL
REMARK 923 INTER-LIGAND FREE ENERGY PREDICTED BY IDOCK:   -5.66 KCAL/MOL
REMARK 924 INTRA-LIGAND FREE ENERGY PREDICTED BY IDOCK:   -0.40 KCAL/MOL
REMARK 927      BINDING AFFINITY PREDICTED BY RF-SCORE:    0.00 PKD
ROOT
HETATM    1  O   UNL     1      -9.700  10.355  65.817  1.00  0.00    -0.199 OA 
HETATM    2  S   UNL     1      -8.188   9.880  66.101  1.00  0.00    -0.121 S  
HETATM    3  N   UNL     2     -12.513  11.020  68.231  1.00  0.00    -0.259 NA 
HETATM    4  H1  UNL     2     -12.196  11.615  67.466  1.00  0.00     0.000 HD 
HETATM    5  H2  UNL     2     -13.336  10.424  68.141  1.00  0.00     0.000 HD 
HETATM    6  C   UNL     2     -11.793  11.061  69.364  1.00  0.00    -0.335 C  
HETATM    7  N   UNL     3     -10.967   8.446  67.573  1.00  0.00    -0.466 NA 
HETATM    8  O   UNL     1      -8.332   8.298  65.885  1.00  0.00    -0.114 OA 
HETATM    9  O   UNL     1      -7.350  10.436  65.065  1.00  0.00    -0.134 OA 
HETATM   10  O   UNL     1      -7.937  10.101  67.498  1.00  0.00    -0.106 OA 
HETATM   11  C   UNL     3     -10.197   7.930  68.557  1.00  0.00    -0.205 C  
HETATM   12  H1  UNL     3     -11.040   8.033  66.643  1.00  0.00     0.000 HD 
HETATM   13  H2  UNL     3     -11.503   9.291  67.771  1.00  0.00     0.000 HD 
HETATM   14  N   UNL     2     -10.596  11.658  69.360  1.00  0.00    -0.437 NA 
HETATM   15  N   UNL     2     -12.193  10.311  70.328  1.00  0.00    -0.433 NA 
HETATM   16  H2  UNL     2     -13.016   9.715  70.238  1.00  0.00     0.000 HD 
HETATM   17  H   UNL     2     -10.020  11.482  70.183  1.00  0.00     0.000 HD 
HETATM   18  N   UNL     3     -10.106   8.447  69.722  1.00  0.00    -0.193 NA 
HETATM   19  N   UNL     3      -9.459   6.864  68.173  1.00  0.00    -0.123 NA 
HETATM   20  H2  UNL     3     -10.642   9.292  69.921  1.00  0.00     0.000 HD 
HETATM   21  H1  UNL     2     -11.646  10.342  71.189  1.00  0.00     0.000 HD 
HETATM   22  H1  UNL     3      -9.525   8.058  70.465  1.00  0.00     0.000 HD 
HETATM   23  H   UNL     3      -9.207   6.701  67.198  1.00  0.00     0.000 HD 
ENDROOT
BRANCH  14  24
HETATM   24  C   UNL     2      -9.995  12.520  68.358  1.00  0.00    -0.212 C  
BRANCH  24  25
HETATM   25  C   UNL     2     -10.437  13.959  68.563  1.00  0.00    -0.253 A  
HETATM   26  I   UNL     2     -10.256  17.701  66.332  1.00  0.00    -0.217 I  
HETATM   27  C   UNL     2     -11.081  14.349  69.750  1.00  0.00    -0.202 A  
HETATM   28  C   UNL     2     -10.218  14.930  67.568  1.00  0.00    -0.233 A  
HETATM   29  C   UNL     2     -11.432  15.678  69.974  1.00  0.00    -0.352 A  
HETATM   30  C   UNL     2     -10.595  16.256  67.790  1.00  0.00    -0.314 A  
HETATM   31  C   UNL     2     -11.191  16.636  68.994  1.00  0.00    -0.165 A  
ENDBRANCH  24  25
ENDBRANCH  14  24
BRANCH  19  32
HETATM   32  C   UNL     3      -9.046   5.962  69.240  1.00  0.00    -0.123 C  
BRANCH  32  33
HETATM   33  C   UNL     3      -7.755   6.379  69.883  1.00  0.00    -0.109 A  
HETATM   34  C   UNL     3      -5.500   7.558  71.080  1.00  0.00    -0.027 A  
HETATM   35  C   UNL     3      -7.718   6.602  71.259  1.00  0.00    -0.094 A  
HETATM   36  I   UNL     3      -6.670   7.678  73.871  1.00  0.00    -0.123 I  
HETATM   37  C   UNL     3      -5.493   7.278  69.715  1.00  0.00    -0.023 A  
HETATM   38  C   UNL     3      -6.610   7.210  71.847  1.00  0.00    -0.051 A  
HETATM   39  C   UNL     3      -6.615   6.699  69.116  1.00  0.00    -0.041 A  
ENDBRANCH  32  33
ENDBRANCH  19  32
TORSDOF 4
ENDMDL
MODEL      173
REMARK 921   NORMALIZED FREE ENERGY PREDICTED BY IDOCK:   -4.35 KCAL/MOL
REMARK 922        TOTAL FREE ENERGY PREDICTED BY IDOCK:   -6.01 KCAL/MOL
REMARK 923 INTER-LIGAND FREE ENERGY PREDICTED BY IDOCK:   -5.42 KCAL/MOL
REMARK 924 INTRA-LIGAND FREE ENERGY PREDICTED BY IDOCK:   -0.59 KCAL/MOL
REMARK 927      BINDING AFFINITY PREDICTED BY RF-SCORE:    0.00 PKD
ROOT
HETATM    1  O   UNL     1      -6.263  10.558  67.730  1.00  0.00    -0.054 OA 
HETATM    2  S   UNL     1      -6.717  11.363  69.049  1.00  0.00    -0.101 S  
HETATM    3  N   UNL     2      -8.266   8.311  65.468  1.00  0.00    -0.130 NA 
HETATM    4  H1  UNL     2      -7.650   9.077  65.197  1.00  0.00     0.000 HD 
HETATM    5  H2  UNL     2      -7.966   7.337  65.417  1.00  0.00     0.000 HD 
HETATM    6  C   UNL     2      -9.494   8.648  65.894  1.00  0.00    -0.173 C  
HETATM    7  N   UNL     3      -7.518   8.057  68.438  1.00  0.00    -0.101 NA 
HETATM    8  O   UNL     1      -6.266  10.332  70.191  1.00  0.00    -0.071 OA 
HETATM    9  O   UNL     1      -5.913  12.560  69.133  1.00  0.00    -0.074 OA 
HETATM   10  O   UNL     1      -8.153  11.397  69.043  1.00  0.00    -0.106 OA 
HETATM   11  C   UNL     3      -8.532   8.123  69.329  1.00  0.00    -0.134 C  
HETATM   12  H1  UNL     3      -6.541   7.944  68.709  1.00  0.00     0.000 HD 
HETATM   13  H2  UNL     3      -7.741   8.123  67.445  1.00  0.00     0.000 HD 
HETATM   14  N   UNL     2      -9.762   9.928  66.177  1.00  0.00    -0.218 NA 
HETATM   15  N   UNL     2     -10.271   7.683  66.235  1.00  0.00    -0.445 NA 
HETATM   16  H2  UNL     2      -9.970   6.710  66.184  1.00  0.00     0.000 HD 
HETATM   17  H   UNL     2     -10.634  10.088  66.681  1.00  0.00     0.000 HD 
HETATM   18  N   UNL     3      -9.757   8.264  68.991  1.00  0.00    -0.164 NA 
HETATM   19  N   UNL     3      -8.129   8.116  70.620  1.00  0.00    -0.101 NA 
HETATM   20  H2  UNL     3      -9.981   8.330  67.998  1.00  0.00     0.000 HD 
HETATM   21  H1  UNL     2     -11.204   7.940  66.559  1.00  0.00     0.000 HD 
HETATM   22  H1  UNL     3     -10.522   8.315  69.663  1.00  0.00     0.000 HD 
HETATM   23  H   UNL     3      -7.194   8.414  70.898  1.00  0.00     0.000 HD 
ENDROOT
BRANCH  14  24
HETATM   24  C   UNL     2      -8.995  11.123  65.874  1.00  0.00    -0.199 C  
BRANCH  24  25
HETATM   25  C   UNL     2      -9.885  12.353  65.937  1.00  0.00    -0.265 A  
HETATM   26  I   UNL     2     -11.779  14.765  69.038  1.00  0.00    -0.316 I  
HETATM   27  C   UNL     2     -10.311  12.992  64.760  1.00  0.00    -0.356 A  
HETATM   28  C   UNL     2     -10.299  12.882  67.175  1.00  0.00    -0.239 A  
HETATM   29  C   UNL     2     -11.177  14.081  64.806  1.00  0.00    -0.375 A  
HETATM   30  C   UNL     2     -11.149  13.989  67.213  1.00  0.00    -0.302 A  
HETATM   31  C   UNL     2     -11.599  14.583  66.033  1.00  0.00    -0.356 A  
ENDBRANCH  24  25
ENDBRANCH  14  24
BRANCH  19  32
HETATM   32  C   UNL     3      -9.115   7.657  71.589  1.00  0.00    -0.134 C  
BRANCH  32  33
HETATM   33  C   UNL     3      -8.687   6.407  72.302  1.00  0.00    -0.131 A  
HETATM   34  C   UNL     3      -8.089   4.231  73.980  1.00  0.00    -0.092 A  
HETATM   35  C   UNL     3      -9.605   5.371  72.475  1.00  0.00    -0.169 A  
HETATM   36  I   UNL     3     -10.781   2.875  73.686  1.00  0.00    -0.324 I  
HETATM   37  C   UNL     3      -7.134   5.221  73.763  1.00  0.00    -0.082 A  
HETATM   38  C   UNL     3      -9.318   4.306  73.327  1.00  0.00    -0.112 A  
HETATM   39  C   UNL     3      -7.431   6.309  72.936  1.00  0.00    -0.096 A  
ENDBRANCH  32  33
ENDBRANCH  19  32
TORSDOF 4
ENDMDL
MODEL      174
REMARK 921   NORMALIZED FREE ENERGY PREDICTED BY IDOCK:   -4.35 KCAL/MOL
REMARK 922        TOTAL FREE ENERGY PREDICTED BY IDOCK:   -6.01 KCAL/MOL
REMARK 923 INTER-LIGAND FREE ENERGY PREDICTED BY IDOCK:   -5.98 KCAL/MOL
REMARK 924 INTRA-LIGAND FREE ENERGY PREDICTED BY IDOCK:   -0.03 KCAL/MOL
REMARK 927      BINDING AFFINITY PREDICTED BY RF-SCORE:    0.00 PKD
ROOT
HETATM    1  O   UNL     1     -10.341   9.206  65.943  1.00  0.00    -0.104 OA 
HETATM    2  S   UNL     1      -9.699   8.035  66.843  1.00  0.00    -0.247 S  
HETATM    3  N   UNL     2     -10.599  12.902  66.619  1.00  0.00    -0.260 NA 
HETATM    4  H1  UNL     2     -10.269  12.446  65.768  1.00  0.00     0.000 HD 
HETATM    5  H2  UNL     2     -11.543  13.283  66.691  1.00  0.00     0.000 HD 
HETATM    6  C   UNL     2      -9.729  12.975  67.639  1.00  0.00    -0.212 C  
HETATM    7  N   UNL     3     -11.806  10.481  68.079  1.00  0.00    -0.740 NA 
HETATM    8  O   UNL     1     -11.008   7.491  67.593  1.00  0.00    -0.148 OA 
HETATM    9  O   UNL     1      -9.194   7.019  65.950  1.00  0.00    -0.084 OA 
HETATM   10  O   UNL     1      -8.873   8.674  67.830  1.00  0.00    -0.136 OA 
HETATM   11  C   UNL     3     -11.365  10.246  69.335  1.00  0.00    -0.221 C  
HETATM   12  H1  UNL     3     -12.493   9.893  67.607  1.00  0.00     0.000 HD 
HETATM   13  H2  UNL     3     -11.433  11.287  67.578  1.00  0.00     0.000 HD 
HETATM   14  N   UNL     2      -8.602  12.256  67.594  1.00  0.00    -0.159 NA 
HETATM   15  N   UNL     2     -10.145  13.549  68.710  1.00  0.00    -0.399 NA 
HETATM   16  H2  UNL     2     -11.089  13.930  68.782  1.00  0.00     0.000 HD 
HETATM   17  H   UNL     2      -8.088  12.198  68.473  1.00  0.00     0.000 HD 
HETATM   18  N   UNL     3     -10.505  10.983  69.927  1.00  0.00    -0.421 NA 
HETATM   19  N   UNL     3     -11.850   9.108  69.882  1.00  0.00    -0.351 NA 
HETATM   20  H2  UNL     3     -10.132  11.790  69.427  1.00  0.00     0.000 HD 
HETATM   21  H1  UNL     2      -9.485  13.605  69.486  1.00  0.00     0.000 HD 
HETATM   22  H1  UNL     3     -10.172  10.806  70.875  1.00  0.00     0.000 HD 
HETATM   23  H   UNL     3     -12.183   8.331  69.311  1.00  0.00     0.000 HD 
ENDROOT
BRANCH  14  24
HETATM   24  C   UNL     2      -8.002  11.545  66.480  1.00  0.00    -0.095 C  
BRANCH  24  25
HETATM   25  C   UNL     2      -6.975  10.544  66.982  1.00  0.00    -0.089 A  
HETATM   26  I   UNL     2      -5.170   6.838  65.559  1.00  0.00    -0.024 I  
HETATM   27  C   UNL     2      -6.360  10.714  68.235  1.00  0.00    -0.054 A  
HETATM   28  C   UNL     2      -6.613   9.429  66.202  1.00  0.00    -0.070 A  
HETATM   29  C   UNL     2      -5.466   9.770  68.731  1.00  0.00    -0.036 A  
HETATM   30  C   UNL     2      -5.696   8.498  66.697  1.00  0.00    -0.044 A  
HETATM   31  C   UNL     2      -5.130   8.659  67.963  1.00  0.00    -0.034 A  
ENDBRANCH  24  25
ENDBRANCH  14  24
BRANCH  19  32
HETATM   32  C   UNL     3     -11.865   9.061  71.338  1.00  0.00    -0.325 C  
BRANCH  32  33
HETATM   33  C   UNL     3     -10.995   7.969  71.891  1.00  0.00    -0.321 A  
HETATM   34  C   UNL     3      -9.087   6.037  72.619  1.00  0.00    -0.137 A  
HETATM   35  C   UNL     3      -9.937   8.302  72.735  1.00  0.00    -0.333 A  
HETATM   36  I   UNL     3      -7.326   7.932  74.195  1.00  0.00    -0.246 I  
HETATM   37  C   UNL     3     -10.176   5.672  71.832  1.00  0.00    -0.244 A  
HETATM   38  C   UNL     3      -8.977   7.349  73.075  1.00  0.00    -0.147 A  
HETATM   39  C   UNL     3     -11.123   6.632  71.461  1.00  0.00    -0.297 A  
ENDBRANCH  32  33
ENDBRANCH  19  32
TORSDOF 4
ENDMDL
MODEL      175
REMARK 921   NORMALIZED FREE ENERGY PREDICTED BY IDOCK:   -4.33 KCAL/MOL
REMARK 922        TOTAL FREE ENERGY PREDICTED BY IDOCK:   -6.00 KCAL/MOL
REMARK 923 INTER-LIGAND FREE ENERGY PREDICTED BY IDOCK:   -5.69 KCAL/MOL
REMARK 924 INTRA-LIGAND FREE ENERGY PREDICTED BY IDOCK:   -0.31 KCAL/MOL
REMARK 927      BINDING AFFINITY PREDICTED BY RF-SCORE:    0.00 PKD
ROOT
HETATM    1  O   UNL     1      -8.211   7.509  69.651  1.00  0.00    -0.125 OA 
HETATM    2  S   UNL     1      -8.651   7.373  68.108  1.00  0.00    -0.122 S  
HETATM    3  N   UNL     2     -10.318   8.076  72.720  1.00  0.00    -0.323 NA 
HETATM    4  H1  UNL     2      -9.588   7.376  72.586  1.00  0.00     0.000 HD 
HETATM    5  H2  UNL     2     -10.145   8.940  73.233  1.00  0.00     0.000 HD 
HETATM    6  C   UNL     2     -11.520   7.802  72.185  1.00  0.00    -0.310 C  
HETATM    7  N   UNL     3      -9.831   9.825  70.239  1.00  0.00    -0.299 NA 
HETATM    8  O   UNL     1      -8.426   8.878  67.604  1.00  0.00    -0.120 OA 
HETATM    9  O   UNL     1      -7.707   6.497  67.455  1.00  0.00    -0.102 OA 
HETATM   10  O   UNL     1     -10.067   7.124  68.099  1.00  0.00    -0.157 OA 
HETATM   11  C   UNL     3     -10.891  10.039  69.428  1.00  0.00    -0.239 C  
HETATM   12  H1  UNL     3      -8.900  10.198  70.055  1.00  0.00     0.000 HD 
HETATM   13  H2  UNL     3      -9.970   9.260  71.078  1.00  0.00     0.000 HD 
HETATM   14  N   UNL     2     -11.638   6.789  71.320  1.00  0.00    -0.301 NA 
HETATM   15  N   UNL     2     -12.439   8.684  72.353  1.00  0.00    -0.413 NA 
HETATM   16  H2  UNL     2     -12.265   9.548  72.867  1.00  0.00     0.000 HD 
HETATM   17  H   UNL     2     -12.517   6.759  70.803  1.00  0.00     0.000 HD 
HETATM   18  N   UNL     3     -12.058   9.572  69.658  1.00  0.00    -0.138 NA 
HETATM   19  N   UNL     3     -10.589  10.722  68.300  1.00  0.00    -0.187 NA 
HETATM   20  H2  UNL     3     -12.198   9.008  70.497  1.00  0.00     0.000 HD 
HETATM   21  H1  UNL     2     -13.352   8.477  71.947  1.00  0.00     0.000 HD 
HETATM   22  H1  UNL     3     -12.858   9.734  69.046  1.00  0.00     0.000 HD 
HETATM   23  H   UNL     3      -9.646  10.737  67.912  1.00  0.00     0.000 HD 
ENDROOT
BRANCH  14  24
HETATM   24  C   UNL     2     -10.701   5.724  71.008  1.00  0.00    -0.258 C  
BRANCH  24  25
HETATM   25  C   UNL     2     -10.373   4.925  72.257  1.00  0.00    -0.267 A  
HETATM   26  I   UNL     2      -6.832   3.117  74.049  1.00  0.00    -0.039 I  
HETATM   27  C   UNL     2     -11.381   4.583  73.176  1.00  0.00    -0.318 A  
HETATM   28  C   UNL     2      -9.053   4.513  72.524  1.00  0.00    -0.140 A  
HETATM   29  C   UNL     2     -11.101   3.796  74.290  1.00  0.00     0.085 A  
HETATM   30  C   UNL     2      -8.777   3.745  73.657  1.00  0.00    -0.089 A  
HETATM   31  C   UNL     2      -9.798   3.375  74.535  1.00  0.00    -0.172 A  
ENDBRANCH  24  25
ENDBRANCH  14  24
BRANCH  19  32
HETATM   32  C   UNL     3     -11.696  11.433  67.675  1.00  0.00    -0.168 C  
BRANCH  32  33
HETATM   33  C   UNL     3     -11.599  12.922  67.848  1.00  0.00    -0.391 A  
HETATM   34  C   UNL     3     -11.008  15.664  68.047  1.00  0.00    -0.318 A  
HETATM   35  C   UNL     3     -11.674  13.746  66.727  1.00  0.00    -0.420 A  
HETATM   36  I   UNL     3     -11.316  16.252  65.092  1.00  0.00     0.467 I  
HETATM   37  C   UNL     3     -10.996  14.868  69.190  1.00  0.00    -0.266 A  
HETATM   38  C   UNL     3     -11.356  15.100  66.821  1.00  0.00    -0.248 A  
HETATM   39  C   UNL     3     -11.282  13.503  69.094  1.00  0.00    -0.310 A  
ENDBRANCH  32  33
ENDBRANCH  19  32
TORSDOF 4
ENDMDL
MODEL      176
REMARK 921   NORMALIZED FREE ENERGY PREDICTED BY IDOCK:   -4.32 KCAL/MOL
REMARK 922        TOTAL FREE ENERGY PREDICTED BY IDOCK:   -5.97 KCAL/MOL
REMARK 923 INTER-LIGAND FREE ENERGY PREDICTED BY IDOCK:   -5.25 KCAL/MOL
REMARK 924 INTRA-LIGAND FREE ENERGY PREDICTED BY IDOCK:   -0.73 KCAL/MOL
REMARK 927      BINDING AFFINITY PREDICTED BY RF-SCORE:    0.00 PKD
ROOT
HETATM    1  O   UNL     1      -7.603   8.604  66.801  1.00  0.00    -0.085 OA 
HETATM    2  S   UNL     1      -8.820   9.535  66.306  1.00  0.00    -0.155 S  
HETATM    3  N   UNL     2      -5.793   8.554  70.102  1.00  0.00    -0.027 NA 
HETATM    4  H1  UNL     2      -6.176   7.759  69.590  1.00  0.00     0.000 HD 
HETATM    5  H2  UNL     2      -4.798   8.780  70.076  1.00  0.00     0.000 HD 
HETATM    6  C   UNL     2      -6.664   9.288  70.814  1.00  0.00    -0.094 C  
HETATM    7  N   UNL     3      -6.022  10.731  67.945  1.00  0.00    -0.043 NA 
HETATM    8  O   UNL     1      -8.014  10.682  65.527  1.00  0.00    -0.160 OA 
HETATM    9  O   UNL     1      -9.606   8.771  65.365  1.00  0.00    -0.071 OA 
HETATM   10  O   UNL     1      -9.392  10.133  67.480  1.00  0.00    -0.149 OA 
HETATM   11  C   UNL     3      -6.686  11.858  68.285  1.00  0.00    -0.063 C  
HETATM   12  H1  UNL     3      -5.620  10.575  67.020  1.00  0.00     0.000 HD 
HETATM   13  H2  UNL     3      -5.918   9.999  68.648  1.00  0.00     0.000 HD 
HETATM   14  N   UNL     2      -7.977   9.111  70.629  1.00  0.00    -0.140 NA 
HETATM   15  N   UNL     2      -6.181  10.289  71.459  1.00  0.00    -0.262 NA 
HETATM   16  H2  UNL     2      -5.186  10.515  71.432  1.00  0.00     0.000 HD 
HETATM   17  H   UNL     2      -8.574   9.827  71.042  1.00  0.00     0.000 HD 
HETATM   18  N   UNL     3      -7.190  12.054  69.443  1.00  0.00    -0.332 NA 
HETATM   19  N   UNL     3      -6.848  12.729  67.263  1.00  0.00    -0.310 NA 
HETATM   20  H2  UNL     3      -7.086  11.323  70.147  1.00  0.00     0.000 HD 
HETATM   21  H1  UNL     2      -6.842  10.847  71.999  1.00  0.00     0.000 HD 
HETATM   22  H1  UNL     3      -7.691  12.904  69.701  1.00  0.00     0.000 HD 
HETATM   23  H   UNL     3      -6.829  12.430  66.288  1.00  0.00     0.000 HD 
ENDROOT
BRANCH  14  24
HETATM   24  C   UNL     2      -8.678   8.052  69.926  1.00  0.00    -0.139 C  
BRANCH  24  25
HETATM   25  C   UNL     2      -8.975   6.898  70.869  1.00  0.00    -0.149 A  
HETATM   26  I   UNL     2      -8.566   2.556  70.824  1.00  0.00    -0.137 I  
HETATM   27  C   UNL     2      -9.551   7.131  72.130  1.00  0.00    -0.160 A  
HETATM   28  C   UNL     2      -8.674   5.572  70.503  1.00  0.00    -0.140 A  
HETATM   29  C   UNL     2      -9.884   6.075  72.974  1.00  0.00    -0.176 A  
HETATM   30  C   UNL     2      -8.990   4.520  71.366  1.00  0.00    -0.127 A  
HETATM   31  C   UNL     2      -9.604   4.766  72.595  1.00  0.00    -0.167 A  
ENDBRANCH  24  25
ENDBRANCH  14  24
BRANCH  19  32
HETATM   32  C   UNL     3      -7.052  14.120  67.643  1.00  0.00    -0.183 C  
BRANCH  32  33
HETATM   33  C   UNL     3      -8.487  14.547  67.531  1.00  0.00    -0.201 A  
HETATM   34  C   UNL     3     -11.270  14.938  67.425  1.00  0.00    -0.343 A  
HETATM   35  C   UNL     3      -9.207  14.830  68.690  1.00  0.00    -0.194 A  
HETATM   36  I   UNL     3     -11.643  15.249  70.415  1.00  0.00    -0.467 I  
HETATM   37  C   UNL     3     -10.555  14.725  66.249  1.00  0.00    -0.306 A  
HETATM   38  C   UNL     3     -10.590  14.999  68.641  1.00  0.00    -0.237 A  
HETATM   39  C   UNL     3      -9.173  14.522  66.298  1.00  0.00    -0.231 A  
ENDBRANCH  32  33
ENDBRANCH  19  32
TORSDOF 4
ENDMDL
MODEL      177
REMARK 921   NORMALIZED FREE ENERGY PREDICTED BY IDOCK:   -4.31 KCAL/MOL
REMARK 922        TOTAL FREE ENERGY PREDICTED BY IDOCK:   -5.97 KCAL/MOL
REMARK 923 INTER-LIGAND FREE ENERGY PREDICTED BY IDOCK:   -5.38 KCAL/MOL
REMARK 924 INTRA-LIGAND FREE ENERGY PREDICTED BY IDOCK:   -0.59 KCAL/MOL
REMARK 927      BINDING AFFINITY PREDICTED BY RF-SCORE:    0.00 PKD
ROOT
HETATM    1  O   UNL     1     -11.775   6.237  69.455  1.00  0.00    -0.319 OA 
HETATM    2  S   UNL     1     -10.591   6.180  68.365  1.00  0.00    -0.291 S  
HETATM    3  N   UNL     2     -11.684   7.310  73.063  1.00  0.00    -0.558 NA 
HETATM    4  H1  UNL     2     -12.348   7.598  72.345  1.00  0.00     0.000 HD 
HETATM    5  H2  UNL     2     -11.918   6.595  73.753  1.00  0.00     0.000 HD 
HETATM    6  C   UNL     2     -10.487   7.919  73.056  1.00  0.00    -0.343 C  
HETATM    7  N   UNL     3     -10.295   4.992  71.598  1.00  0.00    -0.206 NA 
HETATM    8  O   UNL     1     -10.153   4.642  68.488  1.00  0.00    -0.110 OA 
HETATM    9  O   UNL     1     -11.175   6.415  67.066  1.00  0.00    -0.373 OA 
HETATM   10  O   UNL     1      -9.512   6.976  68.882  1.00  0.00    -0.139 OA 
HETATM   11  C   UNL     3      -8.948   5.048  71.510  1.00  0.00    -0.136 C  
HETATM   12  H1  UNL     3     -10.852   4.239  71.194  1.00  0.00     0.000 HD 
HETATM   13  H2  UNL     3     -10.779   5.741  72.093  1.00  0.00     0.000 HD 
HETATM   14  N   UNL     2     -10.135   8.661  72.001  1.00  0.00    -0.315 NA 
HETATM   15  N   UNL     2      -9.651   7.555  73.961  1.00  0.00    -0.404 NA 
HETATM   16  H2  UNL     2      -9.885   6.841  74.651  1.00  0.00     0.000 HD 
HETATM   17  H   UNL     2      -9.151   8.927  71.966  1.00  0.00     0.000 HD 
HETATM   18  N   UNL     3      -8.249   5.992  72.016  1.00  0.00    -0.108 NA 
HETATM   19  N   UNL     3      -8.405   4.061  70.762  1.00  0.00    -0.070 NA 
HETATM   20  H2  UNL     3      -8.732   6.741  72.512  1.00  0.00     0.000 HD 
HETATM   21  H1  UNL     2      -8.742   8.018  73.956  1.00  0.00     0.000 HD 
HETATM   22  H1  UNL     3      -7.232   6.034  71.950  1.00  0.00     0.000 HD 
HETATM   23  H   UNL     3      -8.937   3.572  70.042  1.00  0.00     0.000 HD 
ENDROOT
BRANCH  14  24
HETATM   24  C   UNL     2     -10.945   9.145  70.897  1.00  0.00    -0.282 C  
BRANCH  24  25
HETATM   25  C   UNL     2     -10.088   9.920  69.912  1.00  0.00    -0.297 A  
HETATM   26  I   UNL     2     -10.737  12.719  66.631  1.00  0.00    -0.319 I  
HETATM   27  C   UNL     2      -8.687   9.797  69.926  1.00  0.00    -0.238 A  
HETATM   28  C   UNL     2     -10.676  10.783  68.967  1.00  0.00    -0.265 A  
HETATM   29  C   UNL     2      -7.898  10.453  68.986  1.00  0.00    -0.120 A  
HETATM   30  C   UNL     2      -9.874  11.457  68.043  1.00  0.00    -0.184 A  
HETATM   31  C   UNL     2      -8.489  11.287  68.042  1.00  0.00    -0.138 A  
ENDBRANCH  24  25
ENDBRANCH  14  24
BRANCH  19  32
HETATM   32  C   UNL     3      -7.013   3.741  71.048  1.00  0.00    -0.033 C  
BRANCH  32  33
HETATM   33  C   UNL     3      -6.233   3.395  69.812  1.00  0.00    -0.028 A  
HETATM   34  C   UNL     3      -5.156   2.681  67.315  1.00  0.00    -0.008 A  
HETATM   35  C   UNL     3      -6.108   4.343  68.797  1.00  0.00    -0.031 A  
HETATM   36  I   UNL     3      -5.590   5.382  66.016  1.00  0.00    -0.014 I  
HETATM   37  C   UNL     3      -5.209   1.740  68.341  1.00  0.00    -0.012 A  
HETATM   38  C   UNL     3      -5.598   3.981  67.551  1.00  0.00    -0.021 A  
HETATM   39  C   UNL     3      -5.751   2.090  69.581  1.00  0.00    -0.018 A  
ENDBRANCH  32  33
ENDBRANCH  19  32
TORSDOF 4
ENDMDL
MODEL      178
REMARK 921   NORMALIZED FREE ENERGY PREDICTED BY IDOCK:   -4.31 KCAL/MOL
REMARK 922        TOTAL FREE ENERGY PREDICTED BY IDOCK:   -5.96 KCAL/MOL
REMARK 923 INTER-LIGAND FREE ENERGY PREDICTED BY IDOCK:   -6.03 KCAL/MOL
REMARK 924 INTRA-LIGAND FREE ENERGY PREDICTED BY IDOCK:    0.07 KCAL/MOL
REMARK 927      BINDING AFFINITY PREDICTED BY RF-SCORE:    0.00 PKD
ROOT
HETATM    1  O   UNL     1     -10.360  11.540  65.692  1.00  0.00    -0.242 OA 
HETATM    2  S   UNL     1      -9.854  10.178  66.387  1.00  0.00    -0.234 S  
HETATM    3  N   UNL     2     -10.737  14.994  67.144  1.00  0.00    -0.296 NA 
HETATM    4  H1  UNL     2     -10.280  14.732  66.270  1.00  0.00     0.000 HD 
HETATM    5  H2  UNL     2     -11.683  15.376  67.161  1.00  0.00     0.000 HD 
HETATM    6  C   UNL     2     -10.031  14.810  68.271  1.00  0.00    -0.222 C  
HETATM    7  N   UNL     3     -12.136  12.342  67.822  1.00  0.00    -0.423 NA 
HETATM    8  O   UNL     1     -11.257   9.516  66.792  1.00  0.00     0.222 OA 
HETATM    9  O   UNL     1      -9.215   9.376  65.371  1.00  0.00    -0.217 OA 
HETATM   10  O   UNL     1      -9.189  10.554  67.604  1.00  0.00    -0.144 OA 
HETATM   11  C   UNL     3     -11.888  11.817  69.042  1.00  0.00    -0.317 C  
HETATM   12  H1  UNL     3     -12.741  11.895  67.132  1.00  0.00     0.000 HD 
HETATM   13  H2  UNL     3     -11.696  13.229  67.578  1.00  0.00     0.000 HD 
HETATM   14  N   UNL     2      -8.906  14.088  68.230  1.00  0.00    -0.180 NA 
HETATM   15  N   UNL     2     -10.606  15.140  69.371  1.00  0.00    -0.245 NA 
HETATM   16  H2  UNL     2     -11.552  15.522  69.388  1.00  0.00     0.000 HD 
HETATM   17  H   UNL     2      -8.529  13.818  69.139  1.00  0.00     0.000 HD 
HETATM   18  N   UNL     3     -11.130  12.376  69.906  1.00  0.00    -0.443 NA 
HETATM   19  N   UNL     3     -12.442  10.599  69.238  1.00  0.00    -0.711 NA 
HETATM   20  H2  UNL     3     -10.690  13.264  69.663  1.00  0.00     0.000 HD 
HETATM   21  H1  UNL     2     -10.070  15.000  70.228  1.00  0.00     0.000 HD 
HETATM   22  H1  UNL     3     -10.942  11.981  70.828  1.00  0.00     0.000 HD 
HETATM   23  H   UNL     3     -12.682   9.981  68.463  1.00  0.00     0.000 HD 
ENDROOT
BRANCH  14  24
HETATM   24  C   UNL     2      -8.141  13.629  67.085  1.00  0.00    -0.077 C  
BRANCH  24  25
HETATM   25  C   UNL     2      -7.119  12.590  67.512  1.00  0.00    -0.151 A  
HETATM   26  I   UNL     2      -5.424   8.920  65.875  1.00  0.00    -0.042 I  
HETATM   27  C   UNL     2      -6.466  12.693  68.753  1.00  0.00    -0.085 A  
HETATM   28  C   UNL     2      -6.799  11.504  66.674  1.00  0.00    -0.075 A  
HETATM   29  C   UNL     2      -5.575  11.713  69.180  1.00  0.00    -0.048 A  
HETATM   30  C   UNL     2      -5.887  10.537  67.100  1.00  0.00    -0.050 A  
HETATM   31  C   UNL     2      -5.282  10.631  68.355  1.00  0.00    -0.033 A  
ENDBRANCH  24  25
ENDBRANCH  14  24
BRANCH  19  32
HETATM   32  C   UNL     3     -12.675  10.226  70.627  1.00  0.00    -0.300 C  
BRANCH  32  33
HETATM   33  C   UNL     3     -11.984   8.948  71.007  1.00  0.00    -0.307 A  
HETATM   34  C   UNL     3     -10.495   6.585  71.334  1.00  0.00    -0.246 A  
HETATM   35  C   UNL     3     -10.674   8.996  71.481  1.00  0.00    -0.421 A  
HETATM   36  I   UNL     3      -7.927   7.960  72.163  1.00  0.00    -0.198 I  
HETATM   37  C   UNL     3     -11.826   6.515  70.927  1.00  0.00    -0.391 A  
HETATM   38  C   UNL     3      -9.928   7.826  71.618  1.00  0.00    -0.174 A  
HETATM   39  C   UNL     3     -12.566   7.688  70.756  1.00  0.00     0.021 A  
ENDBRANCH  32  33
ENDBRANCH  19  32
TORSDOF 4
ENDMDL
MODEL      179
REMARK 921   NORMALIZED FREE ENERGY PREDICTED BY IDOCK:   -4.26 KCAL/MOL
REMARK 922        TOTAL FREE ENERGY PREDICTED BY IDOCK:   -5.91 KCAL/MOL
REMARK 923 INTER-LIGAND FREE ENERGY PREDICTED BY IDOCK:   -4.89 KCAL/MOL
REMARK 924 INTRA-LIGAND FREE ENERGY PREDICTED BY IDOCK:   -1.02 KCAL/MOL
REMARK 927      BINDING AFFINITY PREDICTED BY RF-SCORE:    0.00 PKD
ROOT
HETATM    1  O   UNL     1      -8.052   7.487  72.326  1.00  0.00    -0.097 OA 
HETATM    2  S   UNL     1      -7.000   7.871  71.169  1.00  0.00    -0.051 S  
HETATM    3  N   UNL     2     -11.715   6.648  72.073  1.00  0.00    -0.300 NA 
HETATM    4  H1  UNL     2     -10.992   6.135  72.578  1.00  0.00     0.000 HD 
HETATM    5  H2  UNL     2     -12.357   7.280  72.552  1.00  0.00     0.000 HD 
HETATM    6  C   UNL     2     -11.779   6.450  70.747  1.00  0.00    -0.312 C  
HETATM    7  N   UNL     3     -10.171   9.224  71.416  1.00  0.00    -0.324 NA 
HETATM    8  O   UNL     1      -7.053   9.472  71.244  1.00  0.00    -0.313 OA 
HETATM    9  O   UNL     1      -5.698   7.409  71.587  1.00  0.00    -0.036 OA 
HETATM   10  O   UNL     1      -7.593   7.480  69.920  1.00  0.00    -0.089 OA 
HETATM   11  C   UNL     3     -10.130   9.594  70.117  1.00  0.00    -0.262 C  
HETATM   12  H1  UNL     3      -9.709   9.745  72.162  1.00  0.00     0.000 HD 
HETATM   13  H2  UNL     3     -10.690   8.381  71.663  1.00  0.00     0.000 HD 
HETATM   14  N   UNL     2     -10.777   5.815  70.129  1.00  0.00    -0.307 NA 
HETATM   15  N   UNL     2     -12.690   7.097  70.112  1.00  0.00    -0.137 NA 
HETATM   16  H2  UNL     2     -13.332   7.729  70.591  1.00  0.00     0.000 HD 
HETATM   17  H   UNL     2     -10.788   5.873  69.110  1.00  0.00     0.000 HD 
HETATM   18  N   UNL     3     -10.708   8.942  69.182  1.00  0.00    -0.364 NA 
HETATM   19  N   UNL     3      -9.347  10.671  69.878  1.00  0.00    -0.312 NA 
HETATM   20  H2  UNL     3     -11.228   8.100  69.428  1.00  0.00     0.000 HD 
HETATM   21  H1  UNL     2     -12.739   6.947  69.103  1.00  0.00     0.000 HD 
HETATM   22  H1  UNL     3     -10.677   9.221  68.201  1.00  0.00     0.000 HD 
HETATM   23  H   UNL     3      -8.585  10.936  70.502  1.00  0.00     0.000 HD 
ENDROOT
BRANCH  14  24
HETATM   24  C   UNL     2      -9.677   5.054  70.692  1.00  0.00    -0.198 C  
BRANCH  24  25
HETATM   25  C   UNL     2      -8.830   4.450  69.584  1.00  0.00    -0.133 A  
HETATM   26  I   UNL     2      -9.362   3.361  65.395  1.00  0.00    -0.051 I  
HETATM   27  C   UNL     2      -7.497   4.074  69.824  1.00  0.00    -0.052 A  
HETATM   28  C   UNL     2      -9.360   4.258  68.294  1.00  0.00    -0.207 A  
HETATM   29  C   UNL     2      -6.734   3.462  68.834  1.00  0.00    -0.044 A  
HETATM   30  C   UNL     2      -8.580   3.665  67.299  1.00  0.00    -0.108 A  
HETATM   31  C   UNL     2      -7.272   3.256  67.567  1.00  0.00    -0.058 A  
ENDBRANCH  24  25
ENDBRANCH  14  24
BRANCH  19  32
HETATM   32  C   UNL     3      -9.659  11.427  68.673  1.00  0.00    -0.173 C  
BRANCH  32  33
HETATM   33  C   UNL     3      -8.636  11.239  67.590  1.00  0.00    -0.124 A  
HETATM   34  C   UNL     3      -6.770  10.466  65.633  1.00  0.00    -0.127 A  
HETATM   35  C   UNL     3      -9.057  10.899  66.305  1.00  0.00    -0.192 A  
HETATM   36  I   UNL     3      -8.822   9.830  63.498  1.00  0.00    -0.199 I  
HETATM   37  C   UNL     3      -6.328  10.870  66.891  1.00  0.00    -0.088 A  
HETATM   38  C   UNL     3      -8.133  10.491  65.343  1.00  0.00    -0.141 A  
HETATM   39  C   UNL     3      -7.253  11.248  67.869  1.00  0.00    -0.086 A  
ENDBRANCH  32  33
ENDBRANCH  19  32
TORSDOF 4
ENDMDL
MODEL      180
REMARK 921   NORMALIZED FREE ENERGY PREDICTED BY IDOCK:   -4.17 KCAL/MOL
REMARK 922        TOTAL FREE ENERGY PREDICTED BY IDOCK:   -5.79 KCAL/MOL
REMARK 923 INTER-LIGAND FREE ENERGY PREDICTED BY IDOCK:   -5.26 KCAL/MOL
REMARK 924 INTRA-LIGAND FREE ENERGY PREDICTED BY IDOCK:   -0.54 KCAL/MOL
REMARK 927      BINDING AFFINITY PREDICTED BY RF-SCORE:    0.00 PKD
ROOT
HETATM    1  O   UNL     1      -5.748   8.911  66.548  1.00  0.00    -0.045 OA 
HETATM    2  S   UNL     1      -7.016   9.156  65.586  1.00  0.00    -0.082 S  
HETATM    3  N   UNL     2      -5.602   8.498  70.288  1.00  0.00    -0.021 NA 
HETATM    4  H1  UNL     2      -5.162   7.911  69.579  1.00  0.00     0.000 HD 
HETATM    5  H2  UNL     2      -5.075   9.206  70.801  1.00  0.00     0.000 HD 
HETATM    6  C   UNL     2      -6.910   8.292  70.514  1.00  0.00    -0.037 C  
HETATM    7  N   UNL     3      -6.477  10.869  68.540  1.00  0.00    -0.053 NA 
HETATM    8  O   UNL     1      -6.975  10.753  65.448  1.00  0.00    -0.061 OA 
HETATM    9  O   UNL     1      -6.724   8.552  64.308  1.00  0.00    -0.070 OA 
HETATM   10  O   UNL     1      -8.188   8.821  66.348  1.00  0.00    -0.107 OA 
HETATM   11  C   UNL     3      -7.782  11.216  68.593  1.00  0.00    -0.135 C  
HETATM   12  H1  UNL     3      -5.796  11.342  67.946  1.00  0.00     0.000 HD 
HETATM   13  H2  UNL     3      -6.158  10.095  69.122  1.00  0.00     0.000 HD 
HETATM   14  N   UNL     2      -7.612   7.537  69.661  1.00  0.00    -0.092 NA 
HETATM   15  N   UNL     2      -7.464   9.031  71.406  1.00  0.00    -0.277 NA 
HETATM   16  H2  UNL     2      -6.937   9.739  71.919  1.00  0.00     0.000 HD 
HETATM   17  H   UNL     2      -8.625   7.584  69.772  1.00  0.00     0.000 HD 
HETATM   18  N   UNL     3      -8.637  10.624  69.337  1.00  0.00    -0.354 NA 
HETATM   19  N   UNL     3      -8.127  12.191  67.722  1.00  0.00    -0.141 NA 
HETATM   20  H2  UNL     3      -8.318   9.850  69.920  1.00  0.00     0.000 HD 
HETATM   21  H1  UNL     2      -8.457   8.875  71.578  1.00  0.00     0.000 HD 
HETATM   22  H1  UNL     3      -9.622  10.885  69.377  1.00  0.00     0.000 HD 
HETATM   23  H   UNL     3      -7.591  12.375  66.873  1.00  0.00     0.000 HD 
ENDROOT
BRANCH  14  24
HETATM   24  C   UNL     2      -7.147   6.661  68.601  1.00  0.00    -0.083 C  
BRANCH  24  25
HETATM   25  C   UNL     2      -8.326   6.070  67.848  1.00  0.00    -0.116 A  
HETATM   26  I   UNL     2      -8.932   3.245  64.581  1.00  0.00    -0.148 I  
HETATM   27  C   UNL     2      -9.643   6.447  68.165  1.00  0.00    -0.115 A  
HETATM   28  C   UNL     2      -8.126   5.127  66.821  1.00  0.00    -0.108 A  
HETATM   29  C   UNL     2     -10.725   5.958  67.438  1.00  0.00    -0.370 A  
HETATM   30  C   UNL     2      -9.220   4.623  66.112  1.00  0.00    -0.140 A  
HETATM   31  C   UNL     2     -10.517   5.044  66.410  1.00  0.00    -0.349 A  
ENDBRANCH  24  25
ENDBRANCH  14  24
BRANCH  19  32
HETATM   32  C   UNL     3      -9.312  12.964  68.072  1.00  0.00    -0.213 C  
BRANCH  32  33
HETATM   33  C   UNL     3      -9.631  14.024  67.058  1.00  0.00    -0.253 A  
HETATM   34  C   UNL     3     -10.528  16.142  65.440  1.00  0.00    -0.396 A  
HETATM   35  C   UNL     3      -9.139  15.316  67.244  1.00  0.00    -0.210 A  
HETATM   36  I   UNL     3      -8.973  18.303  66.884  1.00  0.00    -0.310 I  
HETATM   37  C   UNL     3     -10.976  14.846  65.196  1.00  0.00    -0.410 A  
HETATM   38  C   UNL     3      -9.604  16.370  66.458  1.00  0.00    -0.270 A  
HETATM   39  C   UNL     3     -10.538  13.792  66.003  1.00  0.00    -0.290 A  
ENDBRANCH  32  33
ENDBRANCH  19  32
TORSDOF 4
ENDMDL
MODEL      181
REMARK 921   NORMALIZED FREE ENERGY PREDICTED BY IDOCK:   -4.12 KCAL/MOL
REMARK 922        TOTAL FREE ENERGY PREDICTED BY IDOCK:   -5.73 KCAL/MOL
REMARK 923 INTER-LIGAND FREE ENERGY PREDICTED BY IDOCK:   -5.64 KCAL/MOL
REMARK 924 INTRA-LIGAND FREE ENERGY PREDICTED BY IDOCK:   -0.09 KCAL/MOL
REMARK 927      BINDING AFFINITY PREDICTED BY RF-SCORE:    0.00 PKD
ROOT
HETATM    1  O   UNL     1      -7.011   7.854  70.099  1.00  0.00    -0.048 OA 
HETATM    2  S   UNL     1      -6.709   7.667  68.528  1.00  0.00    -0.056 S  
HETATM    3  N   UNL     2     -10.275   8.484  71.868  1.00  0.00    -0.270 NA 
HETATM    4  H1  UNL     2      -9.564   7.790  72.101  1.00  0.00     0.000 HD 
HETATM    5  H2  UNL     2     -10.350   9.365  72.378  1.00  0.00     0.000 HD 
HETATM    6  C   UNL     2     -11.107   8.180  70.859  1.00  0.00    -0.258 C  
HETATM    7  N   UNL     3      -8.718  10.165  69.820  1.00  0.00    -0.341 NA 
HETATM    8  O   UNL     1      -6.277   9.159  68.132  1.00  0.00    -0.053 OA 
HETATM    9  O   UNL     1      -5.574   6.784  68.400  1.00  0.00    -0.015 OA 
HETATM   10  O   UNL     1      -7.969   7.401  67.890  1.00  0.00    -0.115 OA 
HETATM   11  C   UNL     3      -9.297  10.343  68.612  1.00  0.00    -0.167 C  
HETATM   12  H1  UNL     3      -7.803  10.545  70.063  1.00  0.00     0.000 HD 
HETATM   13  H2  UNL     3      -9.221   9.624  70.523  1.00  0.00     0.000 HD 
HETATM   14  N   UNL     2     -10.824   7.140  70.066  1.00  0.00    -0.248 NA 
HETATM   15  N   UNL     2     -12.001   9.055  70.567  1.00  0.00    -0.475 NA 
HETATM   16  H2  UNL     2     -12.076   9.936  71.076  1.00  0.00     0.000 HD 
HETATM   17  H   UNL     2     -11.375   7.084  69.210  1.00  0.00     0.000 HD 
HETATM   18  N   UNL     3     -10.444   9.868  68.306  1.00  0.00    -0.198 NA 
HETATM   19  N   UNL     3      -8.518  10.996  67.720  1.00  0.00    -0.120 NA 
HETATM   20  H2  UNL     3     -10.948   9.327  69.009  1.00  0.00     0.000 HD 
HETATM   21  H1  UNL     2     -12.633   8.824  69.800  1.00  0.00     0.000 HD 
HETATM   22  H1  UNL     3     -10.882  10.002  67.394  1.00  0.00     0.000 HD 
HETATM   23  H   UNL     3      -7.501  11.011  67.798  1.00  0.00     0.000 HD 
ENDROOT
BRANCH  14  24
HETATM   24  C   UNL     2      -9.850   6.079  70.244  1.00  0.00    -0.178 C  
BRANCH  24  25
HETATM   25  C   UNL     2     -10.039   5.406  71.592  1.00  0.00    -0.259 A  
HETATM   26  I   UNL     2      -7.523   3.415  74.546  1.00  0.00    -0.058 I  
HETATM   27  C   UNL     2     -11.316   5.307  72.172  1.00  0.00    -0.078 A  
HETATM   28  C   UNL     2      -8.940   4.873  72.293  1.00  0.00    -0.142 A  
HETATM   29  C   UNL     2     -11.509   4.637  73.377  1.00  0.00    -0.335 A  
HETATM   30  C   UNL     2      -9.139   4.223  73.514  1.00  0.00    -0.102 A  
HETATM   31  C   UNL     2     -10.420   4.093  74.052  1.00  0.00    -0.279 A  
ENDBRANCH  24  25
ENDBRANCH  14  24
BRANCH  19  32
HETATM   32  C   UNL     3      -9.222  11.675  66.640  1.00  0.00    -0.191 C  
BRANCH  32  33
HETATM   33  C   UNL     3      -9.499  13.118  66.948  1.00  0.00    -0.244 A  
HETATM   34  C   UNL     3     -10.033  15.696  67.935  1.00  0.00    -0.223 A  
HETATM   35  C   UNL     3      -8.463  13.927  67.412  1.00  0.00    -0.208 A  
HETATM   36  I   UNL     3      -7.183  16.297  68.764  1.00  0.00    -0.212 I  
HETATM   37  C   UNL     3     -11.069  14.927  67.410  1.00  0.00    -0.325 A  
HETATM   38  C   UNL     3      -8.732  15.196  67.926  1.00  0.00    -0.157 A  
HETATM   39  C   UNL     3     -10.809  13.642  66.926  1.00  0.00    -0.286 A  
ENDBRANCH  32  33
ENDBRANCH  19  32
TORSDOF 4
ENDMDL
MODEL      182
REMARK 921   NORMALIZED FREE ENERGY PREDICTED BY IDOCK:   -4.11 KCAL/MOL
REMARK 922        TOTAL FREE ENERGY PREDICTED BY IDOCK:   -5.72 KCAL/MOL
REMARK 923 INTER-LIGAND FREE ENERGY PREDICTED BY IDOCK:   -5.53 KCAL/MOL
REMARK 924 INTRA-LIGAND FREE ENERGY PREDICTED BY IDOCK:   -0.19 KCAL/MOL
REMARK 927      BINDING AFFINITY PREDICTED BY RF-SCORE:    0.00 PKD
ROOT
HETATM    1  O   UNL     1      -9.008   6.096  67.705  1.00  0.00    -0.117 OA 
HETATM    2  S   UNL     1     -10.429   6.354  66.993  1.00  0.00    -0.311 S  
HETATM    3  N   UNL     2      -8.100   6.125  71.360  1.00  0.00    -0.116 NA 
HETATM    4  H1  UNL     2      -7.867   5.414  70.666  1.00  0.00     0.000 HD 
HETATM    5  H2  UNL     2      -7.423   6.831  71.652  1.00  0.00     0.000 HD 
HETATM    6  C   UNL     2      -9.341   6.085  71.870  1.00  0.00    -0.150 C  
HETATM    7  N   UNL     3      -9.144   8.346  69.509  1.00  0.00    -0.152 NA 
HETATM    8  O   UNL     1     -10.296   7.909  66.628  1.00  0.00    -0.291 OA 
HETATM    9  O   UNL     1     -10.462   5.572  65.780  1.00  0.00     0.053 OA 
HETATM   10  O   UNL     1     -11.433   6.236  68.014  1.00  0.00    -0.138 OA 
HETATM   11  C   UNL     3     -10.377   8.830  69.774  1.00  0.00    -0.211 C  
HETATM   12  H1  UNL     3      -8.570   8.670  68.730  1.00  0.00     0.000 HD 
HETATM   13  H2  UNL     3      -8.768   7.619  70.117  1.00  0.00     0.000 HD 
HETATM   14  N   UNL     2     -10.264   5.310  71.290  1.00  0.00    -0.215 NA 
HETATM   15  N   UNL     2      -9.634   6.981  72.744  1.00  0.00    -0.145 NA 
HETATM   16  H2  UNL     2      -8.958   7.687  73.035  1.00  0.00     0.000 HD 
HETATM   17  H   UNL     2     -11.224   5.474  71.595  1.00  0.00     0.000 HD 
HETATM   18  N   UNL     3     -11.096   8.424  70.750  1.00  0.00    -0.254 NA 
HETATM   19  N   UNL     3     -10.824   9.724  68.862  1.00  0.00    -0.302 NA 
HETATM   20  H2  UNL     3     -10.721   7.698  71.360  1.00  0.00     0.000 HD 
HETATM   21  H1  UNL     2     -10.577   6.950  73.131  1.00  0.00     0.000 HD 
HETATM   22  H1  UNL     3     -12.027   8.789  70.951  1.00  0.00     0.000 HD 
HETATM   23  H   UNL     3     -10.469   9.746  67.907  1.00  0.00     0.000 HD 
ENDROOT
BRANCH  14  24
HETATM   24  C   UNL     2     -10.104   4.269  70.291  1.00  0.00    -0.026 C  
BRANCH  24  25
HETATM   25  C   UNL     2      -8.996   3.312  70.697  1.00  0.00    -0.163 A  
HETATM   26  I   UNL     2      -5.339   1.730  68.925  1.00  0.00    -0.014 I  
HETATM   27  C   UNL     2      -9.023   2.672  71.949  1.00  0.00    -0.130 A  
HETATM   28  C   UNL     2      -7.916   3.050  69.832  1.00  0.00    -0.052 A  
HETATM   29  C   UNL     2      -8.047   1.746  72.304  1.00  0.00    -0.049 A  
HETATM   30  C   UNL     2      -6.928   2.137  70.206  1.00  0.00    -0.033 A  
HETATM   31  C   UNL     2      -6.995   1.475  71.434  1.00  0.00    -0.027 A  
ENDBRANCH  24  25
ENDBRANCH  14  24
BRANCH  19  32
HETATM   32  C   UNL     3     -11.845  10.651  69.332  1.00  0.00    -0.253 C  
BRANCH  32  33
HETATM   33  C   UNL     3     -11.793  11.975  68.624  1.00  0.00    -0.366 A  
HETATM   34  C   UNL     3     -11.279  14.367  67.239  1.00  0.00    -0.334 A  
HETATM   35  C   UNL     3     -11.810  12.004  67.231  1.00  0.00    -0.257 A  
HETATM   36  I   UNL     3     -11.397  13.144  64.471  1.00  0.00    -0.470 I  
HETATM   37  C   UNL     3     -11.327  14.370  68.631  1.00  0.00    -0.298 A  
HETATM   38  C   UNL     3     -11.529  13.185  66.545  1.00  0.00    -0.338 A  
HETATM   39  C   UNL     3     -11.575  13.180  69.323  1.00  0.00    -0.370 A  
ENDBRANCH  32  33
ENDBRANCH  19  32
TORSDOF 4
ENDMDL
MODEL      183
REMARK 921   NORMALIZED FREE ENERGY PREDICTED BY IDOCK:   -4.10 KCAL/MOL
REMARK 922        TOTAL FREE ENERGY PREDICTED BY IDOCK:   -5.71 KCAL/MOL
REMARK 923 INTER-LIGAND FREE ENERGY PREDICTED BY IDOCK:   -5.00 KCAL/MOL
REMARK 924 INTRA-LIGAND FREE ENERGY PREDICTED BY IDOCK:   -0.71 KCAL/MOL
REMARK 927      BINDING AFFINITY PREDICTED BY RF-SCORE:    0.00 PKD
ROOT
HETATM    1  O   UNL     1     -11.030   7.397  68.916  1.00  0.00    -0.110 OA 
HETATM    2  S   UNL     1     -10.479   8.351  70.091  1.00  0.00    -0.231 S  
HETATM    3  N   UNL     2      -9.370   6.309  65.716  1.00  0.00    -0.374 NA 
HETATM    4  H1  UNL     2      -9.850   5.722  66.399  1.00  0.00     0.000 HD 
HETATM    5  H2  UNL     2      -9.823   6.602  64.850  1.00  0.00     0.000 HD 
HETATM    6  C   UNL     2      -8.113   6.675  66.013  1.00  0.00    -0.122 C  
HETATM    7  N   UNL     3     -10.210   9.088  66.724  1.00  0.00    -0.271 NA 
HETATM    8  O   UNL     1     -11.113   9.756  69.649  1.00  0.00    -0.237 OA 
HETATM    9  O   UNL     1     -11.080   7.916  71.330  1.00  0.00    -0.243 OA 
HETATM   10  O   UNL     1      -9.056   8.448  69.916  1.00  0.00    -0.144 OA 
HETATM   11  C   UNL     3      -9.217   9.968  66.982  1.00  0.00    -0.146 C  
HETATM   12  H1  UNL     3     -11.198   9.302  66.863  1.00  0.00     0.000 HD 
HETATM   13  H2  UNL     3      -9.959   8.164  66.374  1.00  0.00     0.000 HD 
HETATM   14  N   UNL     2      -7.648   6.479  67.252  1.00  0.00    -0.095 NA 
HETATM   15  N   UNL     2      -7.510   7.413  65.152  1.00  0.00    -0.081 NA 
HETATM   16  H2  UNL     2      -7.962   7.707  64.286  1.00  0.00     0.000 HD 
HETATM   17  H   UNL     2      -6.772   6.954  67.467  1.00  0.00     0.000 HD 
HETATM   18  N   UNL     3      -7.979   9.701  66.809  1.00  0.00    -0.105 NA 
HETATM   19  N   UNL     3      -9.642  11.131  67.526  1.00  0.00    -0.168 NA 
HETATM   20  H2  UNL     3      -7.727   8.777  66.457  1.00  0.00     0.000 HD 
HETATM   21  H1  UNL     2      -6.554   7.692  65.378  1.00  0.00     0.000 HD 
HETATM   22  H1  UNL     3      -7.229  10.364  67.003  1.00  0.00     0.000 HD 
HETATM   23  H   UNL     3     -10.522  11.201  68.036  1.00  0.00     0.000 HD 
ENDROOT
BRANCH  14  24
HETATM   24  C   UNL     2      -8.205   5.691  68.336  1.00  0.00    -0.103 C  
BRANCH  24  25
HETATM   25  C   UNL     2      -7.254   5.672  69.520  1.00  0.00    -0.066 A  
HETATM   26  I   UNL     2      -7.063   3.750  73.430  1.00  0.00    -0.058 I  
HETATM   27  C   UNL     2      -6.078   6.443  69.509  1.00  0.00    -0.029 A  
HETATM   28  C   UNL     2      -7.525   4.879  70.651  1.00  0.00    -0.065 A  
HETATM   29  C   UNL     2      -5.233   6.482  70.614  1.00  0.00    -0.018 A  
HETATM   30  C   UNL     2      -6.659   4.905  71.747  1.00  0.00    -0.032 A  
HETATM   31  C   UNL     2      -5.520   5.712  71.737  1.00  0.00    -0.020 A  
ENDBRANCH  24  25
ENDBRANCH  14  24
BRANCH  19  32
HETATM   32  C   UNL     3      -8.762  12.277  67.337  1.00  0.00    -0.180 C  
BRANCH  32  33
HETATM   33  C   UNL     3      -9.422  13.395  66.582  1.00  0.00    -0.264 A  
HETATM   34  C   UNL     3     -10.851  15.582  65.541  1.00  0.00    -0.372 A  
HETATM   35  C   UNL     3      -8.926  14.691  66.711  1.00  0.00    -0.283 A  
HETATM   36  I   UNL     3      -8.955  17.702  66.582  1.00  0.00    -0.252 I  
HETATM   37  C   UNL     3     -11.325  14.287  65.343  1.00  0.00    -0.329 A  
HETATM   38  C   UNL     3      -9.648  15.777  66.217  1.00  0.00    -0.313 A  
HETATM   39  C   UNL     3     -10.622  13.198  65.866  1.00  0.00    -0.290 A  
ENDBRANCH  32  33
ENDBRANCH  19  32
TORSDOF 4
ENDMDL
MODEL      184
REMARK 921   NORMALIZED FREE ENERGY PREDICTED BY IDOCK:   -4.10 KCAL/MOL
REMARK 922        TOTAL FREE ENERGY PREDICTED BY IDOCK:   -5.70 KCAL/MOL
REMARK 923 INTER-LIGAND FREE ENERGY PREDICTED BY IDOCK:   -5.40 KCAL/MOL
REMARK 924 INTRA-LIGAND FREE ENERGY PREDICTED BY IDOCK:   -0.31 KCAL/MOL
REMARK 927      BINDING AFFINITY PREDICTED BY RF-SCORE:    0.00 PKD
ROOT
HETATM    1  O   UNL     1      -7.429  10.704  70.321  1.00  0.00    -0.118 OA 
HETATM    2  S   UNL     1      -5.845  10.988  70.277  1.00  0.00    -0.139 S  
HETATM    3  N   UNL     2      -9.970  10.773  67.543  1.00  0.00    -0.171 NA 
HETATM    4  H1  UNL     2      -9.833  10.044  68.242  1.00  0.00     0.000 HD 
HETATM    5  H2  UNL     2     -10.715  11.465  67.629  1.00  0.00     0.000 HD 
HETATM    6  C   UNL     2      -9.122  10.777  66.502  1.00  0.00    -0.165 C  
HETATM    7  N   UNL     3      -8.205  12.989  68.736  1.00  0.00    -0.349 NA 
HETATM    8  O   UNL     1      -5.812  12.533  70.706  1.00  0.00    -0.261 OA 
HETATM    9  O   UNL     1      -5.224  10.186  71.305  1.00  0.00    -0.069 OA 
HETATM   10  O   UNL     1      -5.447  10.917  68.898  1.00  0.00    -0.041 OA 
HETATM   11  C   UNL     3      -7.256  13.512  67.929  1.00  0.00    -0.139 C  
HETATM   12  H1  UNL     3      -8.343  13.283  69.703  1.00  0.00     0.000 HD 
HETATM   13  H2  UNL     3      -8.815  12.263  68.360  1.00  0.00     0.000 HD 
HETATM   14  N   UNL     2      -8.022  10.017  66.549  1.00  0.00    -0.114 NA 
HETATM   15  N   UNL     2      -9.295  11.695  65.621  1.00  0.00    -0.316 NA 
HETATM   16  H2  UNL     2     -10.040  12.387  65.707  1.00  0.00     0.000 HD 
HETATM   17  H   UNL     2      -7.327  10.213  65.829  1.00  0.00     0.000 HD 
HETATM   18  N   UNL     3      -7.083  13.143  66.717  1.00  0.00    -0.182 NA 
HETATM   19  N   UNL     3      -6.443  14.401  68.544  1.00  0.00    -0.088 NA 
HETATM   20  H2  UNL     3      -7.692  12.418  66.340  1.00  0.00     0.000 HD 
HETATM   21  H1  UNL     2      -8.651  11.698  64.830  1.00  0.00     0.000 HD 
HETATM   22  H1  UNL     3      -6.366  13.537  66.108  1.00  0.00     0.000 HD 
HETATM   23  H   UNL     3      -6.299  14.396  69.554  1.00  0.00     0.000 HD 
ENDROOT
BRANCH  14  24
HETATM   24  C   UNL     2      -7.670   8.954  67.473  1.00  0.00    -0.100 C  
BRANCH  24  25
HETATM   25  C   UNL     2      -8.796   7.939  67.566  1.00  0.00    -0.128 A  
HETATM   26  I   UNL     2     -11.277   6.202  70.704  1.00  0.00    -0.187 I  
HETATM   27  C   UNL     2      -9.268   7.284  66.415  1.00  0.00    -0.201 A  
HETATM   28  C   UNL     2      -9.394   7.635  68.804  1.00  0.00    -0.148 A  
HETATM   29  C   UNL     2     -10.255   6.306  66.498  1.00  0.00    -0.163 A  
HETATM   30  C   UNL     2     -10.401   6.670  68.875  1.00  0.00    -0.193 A  
HETATM   31  C   UNL     2     -10.826   5.996  67.729  1.00  0.00    -0.380 A  
ENDBRANCH  24  25
ENDBRANCH  14  24
BRANCH  19  32
HETATM   32  C   UNL     3      -5.784  15.364  67.672  1.00  0.00    -0.074 C  
BRANCH  32  33
HETATM   33  C   UNL     3      -6.303  16.761  67.857  1.00  0.00    -0.151 A  
HETATM   34  C   UNL     3      -6.862  19.492  68.230  1.00  0.00    -0.320 A  
HETATM   35  C   UNL     3      -6.299  17.640  66.774  1.00  0.00    -0.219 A  
HETATM   36  I   UNL     3      -6.365  20.296  65.353  1.00  0.00    -0.325 I  
HETATM   37  C   UNL     3      -6.939  18.615  69.310  1.00  0.00    -0.222 A  
HETATM   38  C   UNL     3      -6.551  18.998  66.964  1.00  0.00    -0.196 A  
HETATM   39  C   UNL     3      -6.654  17.259  69.130  1.00  0.00    -0.239 A  
ENDBRANCH  32  33
ENDBRANCH  19  32
TORSDOF 4
ENDMDL
MODEL      185
REMARK 921   NORMALIZED FREE ENERGY PREDICTED BY IDOCK:   -4.06 KCAL/MOL
REMARK 922        TOTAL FREE ENERGY PREDICTED BY IDOCK:   -5.66 KCAL/MOL
REMARK 923 INTER-LIGAND FREE ENERGY PREDICTED BY IDOCK:   -5.73 KCAL/MOL
REMARK 924 INTRA-LIGAND FREE ENERGY PREDICTED BY IDOCK:    0.07 KCAL/MOL
REMARK 927      BINDING AFFINITY PREDICTED BY RF-SCORE:    0.00 PKD
ROOT
HETATM    1  O   UNL     1      -9.568  11.960  67.998  1.00  0.00    -0.180 OA 
HETATM    2  S   UNL     1     -10.393  11.018  66.986  1.00  0.00    -0.239 S  
HETATM    3  N   UNL     2      -6.789  11.084  70.384  1.00  0.00    -0.487 NA 
HETATM    4  H1  UNL     2      -6.813  11.850  69.711  1.00  0.00     0.000 HD 
HETATM    5  H2  UNL     2      -6.980  11.234  71.375  1.00  0.00     0.000 HD 
HETATM    6  C   UNL     2      -6.492   9.867  69.900  1.00  0.00    -0.069 C  
HETATM    7  N   UNL     3      -9.729  10.194  70.276  1.00  0.00    -0.387 NA 
HETATM    8  O   UNL     1     -11.684  10.688  67.878  1.00  0.00    -0.506 OA 
HETATM    9  O   UNL     1     -10.782  11.823  65.852  1.00  0.00    -0.264 OA 
HETATM   10  O   UNL     1      -9.645   9.799  66.846  1.00  0.00    -0.166 OA 
HETATM   11  C   UNL     3      -9.961   8.889  70.011  1.00  0.00    -0.190 C  
HETATM   12  H1  UNL     3     -10.473  10.877  70.422  1.00  0.00     0.000 HD 
HETATM   13  H2  UNL     3      -8.762  10.512  70.333  1.00  0.00     0.000 HD 
HETATM   14  N   UNL     2      -6.491   9.669  68.576  1.00  0.00    -0.051 NA 
HETATM   15  N   UNL     2      -6.461   8.902  70.747  1.00  0.00    -0.046 NA 
HETATM   16  H2  UNL     2      -6.653   9.052  71.738  1.00  0.00     0.000 HD 
HETATM   17  H   UNL     2      -6.458   8.692  68.283  1.00  0.00     0.000 HD 
HETATM   18  N   UNL     3      -9.029   8.033  69.827  1.00  0.00    -0.144 NA 
HETATM   19  N   UNL     3     -11.271   8.583  69.868  1.00  0.00    -0.442 NA 
HETATM   20  H2  UNL     3      -8.062   8.350  69.884  1.00  0.00     0.000 HD 
HETATM   21  H1  UNL     2      -6.236   7.977  70.380  1.00  0.00     0.000 HD 
HETATM   22  H1  UNL     3      -9.204   7.048  69.627  1.00  0.00     0.000 HD 
HETATM   23  H   UNL     3     -11.965   9.282  69.605  1.00  0.00     0.000 HD 
ENDROOT
BRANCH  14  24
HETATM   24  C   UNL     2      -6.530  10.637  67.496  1.00  0.00    -0.058 C  
BRANCH  24  25
HETATM   25  C   UNL     2      -6.266   9.955  66.165  1.00  0.00    -0.072 A  
HETATM   26  I   UNL     2      -6.343   5.887  64.593  1.00  0.00    -0.035 I  
HETATM   27  C   UNL     2      -5.867  10.701  65.042  1.00  0.00    -0.072 A  
HETATM   28  C   UNL     2      -6.421   8.562  66.024  1.00  0.00    -0.053 A  
HETATM   29  C   UNL     2      -5.561  10.078  63.836  1.00  0.00    -0.112 A  
HETATM   30  C   UNL     2      -6.135   7.947  64.803  1.00  0.00    -0.045 A  
HETATM   31  C   UNL     2      -5.695   8.698  63.712  1.00  0.00    -0.071 A  
ENDBRANCH  24  25
ENDBRANCH  14  24
BRANCH  19  32
HETATM   32  C   UNL     3     -11.626   7.191  70.113  1.00  0.00    -0.168 C  
BRANCH  32  33
HETATM   33  C   UNL     3     -11.068   6.671  71.406  1.00  0.00    -0.306 A  
HETATM   34  C   UNL     3     -10.421   5.552  73.904  1.00  0.00    -0.308 A  
HETATM   35  C   UNL     3     -10.745   5.319  71.515  1.00  0.00    -0.221 A  
HETATM   36  I   UNL     3     -10.143   2.709  72.896  1.00  0.00    -0.243 I  
HETATM   37  C   UNL     3     -10.674   6.918  73.801  1.00  0.00    -0.231 A  
HETATM   38  C   UNL     3     -10.450   4.759  72.757  1.00  0.00    -0.202 A  
HETATM   39  C   UNL     3     -11.003   7.476  72.562  1.00  0.00    -0.362 A  
ENDBRANCH  32  33
ENDBRANCH  19  32
TORSDOF 4
ENDMDL
MODEL      186
REMARK 921   NORMALIZED FREE ENERGY PREDICTED BY IDOCK:   -4.02 KCAL/MOL
REMARK 922        TOTAL FREE ENERGY PREDICTED BY IDOCK:   -5.61 KCAL/MOL
REMARK 923 INTER-LIGAND FREE ENERGY PREDICTED BY IDOCK:   -5.79 KCAL/MOL
REMARK 924 INTRA-LIGAND FREE ENERGY PREDICTED BY IDOCK:    0.18 KCAL/MOL
REMARK 927      BINDING AFFINITY PREDICTED BY RF-SCORE:    0.00 PKD
ROOT
HETATM    1  O   UNL     1      -9.073   6.936  67.774  1.00  0.00    -0.120 OA 
HETATM    2  S   UNL     1     -10.330   7.246  66.817  1.00  0.00    -0.194 S  
HETATM    3  N   UNL     2      -7.064   9.266  69.947  1.00  0.00    -0.057 NA 
HETATM    4  H1  UNL     2      -7.467   8.365  70.206  1.00  0.00     0.000 HD 
HETATM    5  H2  UNL     2      -6.076   9.363  69.712  1.00  0.00     0.000 HD 
HETATM    6  C   UNL     2      -7.899  10.317  69.931  1.00  0.00    -0.104 C  
HETATM    7  N   UNL     3      -7.453   9.160  66.900  1.00  0.00    -0.090 NA 
HETATM    8  O   UNL     1      -9.588   7.420  65.406  1.00  0.00     0.574 OA 
HETATM    9  O   UNL     1     -11.161   6.065  66.785  1.00  0.00    -0.291 OA 
HETATM   10  O   UNL     1     -10.836   8.535  67.198  1.00  0.00    -0.216 OA 
HETATM   11  C   UNL     3      -8.110  10.197  66.333  1.00  0.00    -0.122 C  
HETATM   12  H1  UNL     3      -7.106   8.360  66.370  1.00  0.00     0.000 HD 
HETATM   13  H2  UNL     3      -7.297   9.178  67.907  1.00  0.00     0.000 HD 
HETATM   14  N   UNL     2      -9.219  10.108  70.003  1.00  0.00    -0.392 NA 
HETATM   15  N   UNL     2      -7.392  11.451  69.604  1.00  0.00    -0.359 NA 
HETATM   16  H2  UNL     2      -6.403  11.548  69.369  1.00  0.00     0.000 HD 
HETATM   17  H   UNL     2      -9.799  10.918  69.786  1.00  0.00     0.000 HD 
HETATM   18  N   UNL     3      -8.545  11.199  66.996  1.00  0.00    -0.143 NA 
HETATM   19  N   UNL     3      -8.345  10.040  65.011  1.00  0.00    -0.147 NA 
HETATM   20  H2  UNL     3      -8.389  11.218  68.004  1.00  0.00     0.000 HD 
HETATM   21  H1  UNL     2      -8.026  12.250  69.592  1.00  0.00     0.000 HD 
HETATM   22  H1  UNL     3      -9.041  11.982  66.570  1.00  0.00     0.000 HD 
HETATM   23  H   UNL     3      -8.382   9.120  64.572  1.00  0.00     0.000 HD 
ENDROOT
BRANCH  14  24
HETATM   24  C   UNL     2      -9.947   8.900  70.345  1.00  0.00    -0.194 C  
BRANCH  24  25
HETATM   25  C   UNL     2     -11.301   9.249  70.939  1.00  0.00    -0.373 A  
HETATM   26  I   UNL     2     -13.514  12.875  71.924  1.00  0.00    -0.029 I  
HETATM   27  C   UNL     2     -12.189   8.237  71.344  1.00  0.00    -0.328 A  
HETATM   28  C   UNL     2     -11.698  10.591  71.092  1.00  0.00    -0.323 A  
HETATM   29  C   UNL     2     -13.405   8.547  71.948  1.00  0.00    -0.401 A  
HETATM   30  C   UNL     2     -12.930  10.894  71.677  1.00  0.00    -0.464 A  
HETATM   31  C   UNL     2     -13.779   9.877  72.116  1.00  0.00    -0.296 A  
ENDBRANCH  24  25
ENDBRANCH  14  24
BRANCH  19  32
HETATM   32  C   UNL     3      -8.544  11.268  64.253  1.00  0.00     0.397 C  
BRANCH  32  33
HETATM   33  C   UNL     3      -9.932  11.822  64.402  1.00  0.00    -0.281 A  
HETATM   34  C   UNL     3     -12.569  12.585  65.011  1.00  0.00    -0.424 A  
HETATM   35  C   UNL     3     -10.185  12.771  65.393  1.00  0.00    -0.299 A  
HETATM   36  I   UNL     3     -11.830  14.416  67.308  1.00  0.00    -0.224 I  
HETATM   37  C   UNL     3     -12.329  11.688  63.972  1.00  0.00    -0.195 A  
HETATM   38  C   UNL     3     -11.494  13.129  65.711  1.00  0.00    -0.325 A  
HETATM   39  C   UNL     3     -11.020  11.301  63.672  1.00  0.00    -0.369 A  
ENDBRANCH  32  33
ENDBRANCH  19  32
TORSDOF 4
ENDMDL
MODEL      187
REMARK 921   NORMALIZED FREE ENERGY PREDICTED BY IDOCK:   -4.02 KCAL/MOL
REMARK 922        TOTAL FREE ENERGY PREDICTED BY IDOCK:   -5.61 KCAL/MOL
REMARK 923 INTER-LIGAND FREE ENERGY PREDICTED BY IDOCK:   -5.32 KCAL/MOL
REMARK 924 INTRA-LIGAND FREE ENERGY PREDICTED BY IDOCK:   -0.29 KCAL/MOL
REMARK 927      BINDING AFFINITY PREDICTED BY RF-SCORE:    0.00 PKD
ROOT
HETATM    1  O   UNL     1     -10.017   9.528  70.584  1.00  0.00    -0.263 OA 
HETATM    2  S   UNL     1     -10.645   8.202  69.918  1.00  0.00    -0.234 S  
HETATM    3  N   UNL     2      -7.899  12.231  69.039  1.00  0.00    -0.338 NA 
HETATM    4  H1  UNL     2      -8.728  12.347  69.621  1.00  0.00     0.000 HD 
HETATM    5  H2  UNL     2      -6.958  12.340  69.418  1.00  0.00     0.000 HD 
HETATM    6  C   UNL     2      -8.107  11.929  67.747  1.00  0.00    -0.146 C  
HETATM    7  N   UNL     3      -7.377   9.230  69.454  1.00  0.00    -0.074 NA 
HETATM    8  O   UNL     1      -9.528   7.120  70.312  1.00  0.00    -0.162 OA 
HETATM    9  O   UNL     1     -11.876   7.902  70.610  1.00  0.00    -0.226 OA 
HETATM   10  O   UNL     1     -10.585   8.383  68.494  1.00  0.00    -0.191 OA 
HETATM   11  C   UNL     3      -7.281   8.469  68.341  1.00  0.00    -0.085 C  
HETATM   12  H1  UNL     3      -7.301   8.853  70.399  1.00  0.00     0.000 HD 
HETATM   13  H2  UNL     3      -7.535  10.232  69.343  1.00  0.00     0.000 HD 
HETATM   14  N   UNL     2      -9.329  11.556  67.349  1.00  0.00    -0.165 NA 
HETATM   15  N   UNL     2      -7.062  11.783  67.014  1.00  0.00    -0.199 NA 
HETATM   16  H2  UNL     2      -6.122  11.892  67.394  1.00  0.00     0.000 HD 
HETATM   17  H   UNL     2      -9.377  11.151  66.414  1.00  0.00     0.000 HD 
HETATM   18  N   UNL     3      -7.377   8.941  67.157  1.00  0.00    -0.083 NA 
HETATM   19  N   UNL     3      -7.162   7.146  68.591  1.00  0.00    -0.091 NA 
HETATM   20  H2  UNL     3      -7.534   9.943  67.045  1.00  0.00     0.000 HD 
HETATM   21  H1  UNL     2      -7.220  11.553  66.033  1.00  0.00     0.000 HD 
HETATM   22  H1  UNL     3      -7.305   8.367  66.317  1.00  0.00     0.000 HD 
HETATM   23  H   UNL     3      -7.489   6.726  69.461  1.00  0.00     0.000 HD 
ENDROOT
BRANCH  14  24
HETATM   24  C   UNL     2     -10.597  11.643  68.050  1.00  0.00    -0.202 C  
BRANCH  24  25
HETATM   25  C   UNL     2     -10.934  13.091  68.358  1.00  0.00    -0.288 A  
HETATM   26  I   UNL     2     -10.137  16.998  66.590  1.00  0.00    -0.304 I  
HETATM   27  C   UNL     2     -11.689  13.427  69.496  1.00  0.00    -0.385 A  
HETATM   28  C   UNL     2     -10.502  14.129  67.509  1.00  0.00    -0.249 A  
HETATM   29  C   UNL     2     -11.948  14.755  69.820  1.00  0.00    -0.368 A  
HETATM   30  C   UNL     2     -10.787  15.458  67.830  1.00  0.00    -0.302 A  
HETATM   31  C   UNL     2     -11.499  15.776  68.988  1.00  0.00    -0.394 A  
ENDBRANCH  24  25
ENDBRANCH  14  24
BRANCH  19  32
HETATM   32  C   UNL     3      -6.538   6.356  67.537  1.00  0.00    -0.054 C  
BRANCH  32  33
HETATM   33  C   UNL     3      -7.248   5.057  67.290  1.00  0.00    -0.077 A  
HETATM   34  C   UNL     3      -8.185   2.450  66.807  1.00  0.00    -0.085 A  
HETATM   35  C   UNL     3      -7.404   4.154  68.340  1.00  0.00    -0.059 A  
HETATM   36  I   UNL     3      -7.898   1.493  69.666  1.00  0.00    -0.057 I  
HETATM   37  C   UNL     3      -8.102   3.361  65.757  1.00  0.00    -0.093 A  
HETATM   38  C   UNL     3      -7.845   2.853  68.096  1.00  0.00    -0.055 A  
HETATM   39  C   UNL     3      -7.629   4.656  65.992  1.00  0.00    -0.090 A  
ENDBRANCH  32  33
ENDBRANCH  19  32
TORSDOF 4
ENDMDL
MODEL      188
REMARK 921   NORMALIZED FREE ENERGY PREDICTED BY IDOCK:   -4.01 KCAL/MOL
REMARK 922        TOTAL FREE ENERGY PREDICTED BY IDOCK:   -5.60 KCAL/MOL
REMARK 923 INTER-LIGAND FREE ENERGY PREDICTED BY IDOCK:   -5.20 KCAL/MOL
REMARK 924 INTRA-LIGAND FREE ENERGY PREDICTED BY IDOCK:   -0.40 KCAL/MOL
REMARK 927      BINDING AFFINITY PREDICTED BY RF-SCORE:    0.00 PKD
ROOT
HETATM    1  O   UNL     1      -6.600   8.313  67.714  1.00  0.00    -0.059 OA 
HETATM    2  S   UNL     1      -7.402   8.824  66.415  1.00  0.00    -0.084 S  
HETATM    3  N   UNL     2      -7.734   8.039  71.295  1.00  0.00    -0.084 NA 
HETATM    4  H1  UNL     2      -7.257   7.331  70.737  1.00  0.00     0.000 HD 
HETATM    5  H2  UNL     2      -7.234   8.615  71.972  1.00  0.00     0.000 HD 
HETATM    6  C   UNL     2      -9.055   8.175  71.093  1.00  0.00    -0.154 C  
HETATM    7  N   UNL     3      -7.399  10.476  69.451  1.00  0.00    -0.119 NA 
HETATM    8  O   UNL     1      -6.922  10.353  66.357  1.00  0.00    -0.099 OA 
HETATM    9  O   UNL     1      -6.886   8.111  65.270  1.00  0.00    -0.057 OA 
HETATM   10  O   UNL     1      -8.797   8.824  66.759  1.00  0.00    -0.123 OA 
HETATM   11  C   UNL     3      -8.526  11.138  69.107  1.00  0.00     0.040 C  
HETATM   12  H1  UNL     3      -6.471  10.738  69.118  1.00  0.00     0.000 HD 
HETATM   13  H2  UNL     3      -7.481   9.672  70.075  1.00  0.00     0.000 HD 
HETATM   14  N   UNL     2      -9.622   7.582  70.035  1.00  0.00    -0.165 NA 
HETATM   15  N   UNL     2      -9.656   9.067  71.795  1.00  0.00    -0.302 NA 
HETATM   16  H2  UNL     2      -9.156   9.643  72.473  1.00  0.00     0.000 HD 
HETATM   17  H   UNL     2     -10.573   7.885  69.826  1.00  0.00     0.000 HD 
HETATM   18  N   UNL     3      -9.689  10.810  69.524  1.00  0.00    -0.435 NA 
HETATM   19  N   UNL     3      -8.326  12.130  68.210  1.00  0.00    -0.169 NA 
HETATM   20  H2  UNL     3      -9.772  10.008  70.148  1.00  0.00     0.000 HD 
HETATM   21  H1  UNL     2     -10.659   9.171  71.641  1.00  0.00     0.000 HD 
HETATM   22  H1  UNL     3     -10.540  11.310  69.265  1.00  0.00     0.000 HD 
HETATM   23  H   UNL     3      -7.525  12.137  67.579  1.00  0.00     0.000 HD 
ENDROOT
BRANCH  14  24
HETATM   24  C   UNL     2      -9.084   6.574  69.141  1.00  0.00    -0.136 C  
BRANCH  24  25
HETATM   25  C   UNL     2      -9.325   5.184  69.705  1.00  0.00    -0.182 A  
HETATM   26  I   UNL     2     -10.637   3.461  73.490  1.00  0.00    -0.333 I  
HETATM   27  C   UNL     2      -9.094   4.040  68.920  1.00  0.00    -0.191 A  
HETATM   28  C   UNL     2      -9.790   5.011  71.023  1.00  0.00    -0.266 A  
HETATM   29  C   UNL     2      -9.252   2.762  69.448  1.00  0.00    -0.208 A  
HETATM   30  C   UNL     2      -9.968   3.725  71.538  1.00  0.00    -0.124 A  
HETATM   31  C   UNL     2      -9.690   2.600  70.759  1.00  0.00    -0.103 A  
ENDBRANCH  24  25
ENDBRANCH  14  24
BRANCH  19  32
HETATM   32  C   UNL     3      -9.329  13.187  68.201  1.00  0.00    -0.217 C  
BRANCH  32  33
HETATM   33  C   UNL     3      -8.754  14.532  68.541  1.00  0.00    -0.177 A  
HETATM   34  C   UNL     3      -7.566  17.071  68.764  1.00  0.00    -0.243 A  
HETATM   35  C   UNL     3      -9.475  15.682  68.224  1.00  0.00    -0.200 A  
HETATM   36  I   UNL     3      -9.933  18.608  67.664  1.00  0.00    -0.474 I  
HETATM   37  C   UNL     3      -6.855  15.937  69.151  1.00  0.00    -0.170 A  
HETATM   38  C   UNL     3      -8.877  16.939  68.310  1.00  0.00    -0.228 A  
HETATM   39  C   UNL     3      -7.440  14.673  69.035  1.00  0.00    -0.136 A  
ENDBRANCH  32  33
ENDBRANCH  19  32
TORSDOF 4
ENDMDL
MODEL      189
REMARK 921   NORMALIZED FREE ENERGY PREDICTED BY IDOCK:   -3.96 KCAL/MOL
REMARK 922        TOTAL FREE ENERGY PREDICTED BY IDOCK:   -5.53 KCAL/MOL
REMARK 923 INTER-LIGAND FREE ENERGY PREDICTED BY IDOCK:   -4.80 KCAL/MOL
REMARK 924 INTRA-LIGAND FREE ENERGY PREDICTED BY IDOCK:   -0.73 KCAL/MOL
REMARK 927      BINDING AFFINITY PREDICTED BY RF-SCORE:    0.00 PKD
ROOT
HETATM    1  O   UNL     1      -9.396  12.099  65.770  1.00  0.00    -0.194 OA 
HETATM    2  S   UNL     1     -10.224  10.718  65.770  1.00  0.00    -0.243 S  
HETATM    3  N   UNL     2      -6.469  13.157  67.890  1.00  0.00    -0.121 NA 
HETATM    4  H1  UNL     2      -6.560  13.227  66.876  1.00  0.00     0.000 HD 
HETATM    5  H2  UNL     2      -6.619  13.963  68.498  1.00  0.00     0.000 HD 
HETATM    6  C   UNL     2      -6.139  11.953  68.384  1.00  0.00    -0.050 C  
HETATM    7  N   UNL     3      -9.366  12.453  68.635  1.00  0.00    -0.399 NA 
HETATM    8  O   UNL     1     -11.454  11.114  66.720  1.00  0.00    -0.380 OA 
HETATM    9  O   UNL     1     -10.702  10.491  64.427  1.00  0.00    -0.119 OA 
HETATM   10  O   UNL     1      -9.427   9.755  66.479  1.00  0.00    -0.160 OA 
HETATM   11  C   UNL     3      -9.550  11.340  69.380  1.00  0.00     0.313 C  
HETATM   12  H1  UNL     3     -10.133  13.040  68.307  1.00  0.00     0.000 HD 
HETATM   13  H2  UNL     3      -8.413  12.717  68.387  1.00  0.00     0.000 HD 
HETATM   14  N   UNL     2      -6.192  10.880  67.586  1.00  0.00    -0.051 NA 
HETATM   15  N   UNL     2      -6.024  11.866  69.660  1.00  0.00    -0.101 NA 
HETATM   16  H2  UNL     2      -6.174  12.671  70.268  1.00  0.00     0.000 HD 
HETATM   17  H   UNL     2      -6.127   9.980  68.063  1.00  0.00     0.000 HD 
HETATM   18  N   UNL     3      -8.589  10.603  69.791  1.00  0.00    -0.353 NA 
HETATM   19  N   UNL     3     -10.849  11.023  69.581  1.00  0.00    -0.401 NA 
HETATM   20  H2  UNL     3      -7.636  10.867  69.544  1.00  0.00     0.000 HD 
HETATM   21  H1  UNL     2      -5.773  10.950  70.035  1.00  0.00     0.000 HD 
HETATM   22  H1  UNL     3      -8.728   9.763  70.353  1.00  0.00     0.000 HD 
HETATM   23  H   UNL     3     -11.587  11.334  68.950  1.00  0.00     0.000 HD 
ENDROOT
BRANCH  14  24
HETATM   24  C   UNL     2      -6.327  10.805  66.143  1.00  0.00    -0.134 C  
BRANCH  24  25
HETATM   25  C   UNL     2      -6.152   9.373  65.669  1.00  0.00    -0.060 A  
HETATM   26  I   UNL     2      -6.596   5.376  67.357  1.00  0.00    -0.057 I  
HETATM   27  C   UNL     2      -5.721   9.098  64.359  1.00  0.00    -0.068 A  
HETATM   28  C   UNL     2      -6.422   8.290  66.527  1.00  0.00    -0.055 A  
HETATM   29  C   UNL     2      -5.496   7.791  63.935  1.00  0.00    -0.045 A  
HETATM   30  C   UNL     2      -6.217   6.980  66.087  1.00  0.00    -0.039 A  
HETATM   31  C   UNL     2      -5.744   6.727  64.798  1.00  0.00    -0.031 A  
ENDBRANCH  24  25
ENDBRANCH  14  24
BRANCH  19  32
HETATM   32  C   UNL     3     -11.128  10.209  70.757  1.00  0.00    -0.298 C  
BRANCH  32  33
HETATM   33  C   UNL     3     -11.184   8.741  70.444  1.00  0.00    -0.247 A  
HETATM   34  C   UNL     3     -10.870   5.990  69.953  1.00  0.00    -0.434 A  
HETATM   35  C   UNL     3     -11.249   7.823  71.491  1.00  0.00    -0.278 A  
HETATM   36  I   UNL     3     -11.002   5.149  72.860  1.00  0.00    -0.338 I  
HETATM   37  C   UNL     3     -10.872   6.888  68.888  1.00  0.00    -0.247 A  
HETATM   38  C   UNL     3     -11.068   6.461  71.250  1.00  0.00    -0.282 A  
HETATM   39  C   UNL     3     -11.020   8.257  69.129  1.00  0.00     0.066 A  
ENDBRANCH  32  33
ENDBRANCH  19  32
TORSDOF 4
ENDMDL
MODEL      190
REMARK 921   NORMALIZED FREE ENERGY PREDICTED BY IDOCK:   -3.94 KCAL/MOL
REMARK 922        TOTAL FREE ENERGY PREDICTED BY IDOCK:   -5.50 KCAL/MOL
REMARK 923 INTER-LIGAND FREE ENERGY PREDICTED BY IDOCK:   -5.08 KCAL/MOL
REMARK 924 INTRA-LIGAND FREE ENERGY PREDICTED BY IDOCK:   -0.42 KCAL/MOL
REMARK 927      BINDING AFFINITY PREDICTED BY RF-SCORE:    0.00 PKD
ROOT
HETATM    1  O   UNL     1     -10.263  11.299  69.673  1.00  0.00     0.037 OA 
HETATM    2  S   UNL     1     -10.877  10.045  68.871  1.00  0.00    -0.206 S  
HETATM    3  N   UNL     2      -6.722  12.574  69.812  1.00  0.00    -0.354 NA 
HETATM    4  H1  UNL     2      -7.572  13.113  69.645  1.00  0.00     0.000 HD 
HETATM    5  H2  UNL     2      -6.271  12.555  70.727  1.00  0.00     0.000 HD 
HETATM    6  C   UNL     2      -6.227  11.891  68.767  1.00  0.00    -0.058 C  
HETATM    7  N   UNL     3      -7.958   9.910  70.718  1.00  0.00    -0.389 NA 
HETATM    8  O   UNL     1     -10.847   8.922  70.015  1.00  0.00    -0.230 OA 
HETATM    9  O   UNL     1     -12.245  10.362  68.538  1.00  0.00    -0.141 OA 
HETATM   10  O   UNL     1      -9.908   9.671  67.878  1.00  0.00    -0.146 OA 
HETATM   11  C   UNL     3      -7.570   8.801  70.050  1.00  0.00    -0.062 C  
HETATM   12  H1  UNL     3      -8.638   9.897  71.479  1.00  0.00     0.000 HD 
HETATM   13  H2  UNL     3      -7.551  10.805  70.447  1.00  0.00     0.000 HD 
HETATM   14  N   UNL     2      -6.973  11.744  67.666  1.00  0.00    -0.094 NA 
HETATM   15  N   UNL     2      -5.157  11.212  68.978  1.00  0.00    -0.041 NA 
HETATM   16  H2  UNL     2      -4.706  11.193  69.893  1.00  0.00     0.000 HD 
HETATM   17  H   UNL     2      -6.628  11.056  66.997  1.00  0.00     0.000 HD 
HETATM   18  N   UNL     3      -6.719   8.816  69.097  1.00  0.00    -0.050 NA 
HETATM   19  N   UNL     3      -8.229   7.679  70.421  1.00  0.00    -0.120 NA 
HETATM   20  H2  UNL     3      -6.311   9.711  68.826  1.00  0.00     0.000 HD 
HETATM   21  H1  UNL     2      -4.781  10.693  68.185  1.00  0.00     0.000 HD 
HETATM   22  H1  UNL     3      -6.426   7.979  68.592  1.00  0.00     0.000 HD 
HETATM   23  H   UNL     3      -9.153   7.710  70.852  1.00  0.00     0.000 HD 
ENDROOT
BRANCH  14  24
HETATM   24  C   UNL     2      -8.199  12.419  67.282  1.00  0.00    -0.184 C  
BRANCH  24  25
HETATM   25  C   UNL     2      -8.795  11.769  66.045  1.00  0.00    -0.057 A  
HETATM   26  I   UNL     2     -12.365  12.262  63.589  1.00  0.00    -0.415 I  
HETATM   27  C   UNL     2      -8.144  10.696  65.413  1.00  0.00    -0.106 A  
HETATM   28  C   UNL     2     -10.009  12.232  65.501  1.00  0.00    -0.264 A  
HETATM   29  C   UNL     2      -8.713  10.053  64.317  1.00  0.00    -0.222 A  
HETATM   30  C   UNL     2     -10.562  11.597  64.387  1.00  0.00    -0.323 A  
HETATM   31  C   UNL     2      -9.924  10.502  63.800  1.00  0.00    -0.324 A  
ENDBRANCH  24  25
ENDBRANCH  14  24
BRANCH  19  32
HETATM   32  C   UNL     3      -7.537   6.423  70.164  1.00  0.00    -0.096 C  
BRANCH  32  33
HETATM   33  C   UNL     3      -8.426   5.226  70.338  1.00  0.00    -0.116 A  
HETATM   34  C   UNL     3      -9.753   2.802  70.860  1.00  0.00    -0.135 A  
HETATM   35  C   UNL     3      -9.037   5.004  71.572  1.00  0.00    -0.169 A  
HETATM   36  I   UNL     3     -10.418   3.439  73.745  1.00  0.00    -0.318 I  
HETATM   37  C   UNL     3      -9.208   3.036  69.599  1.00  0.00    -0.219 A  
HETATM   38  C   UNL     3      -9.672   3.792  71.838  1.00  0.00    -0.167 A  
HETATM   39  C   UNL     3      -8.541   4.237  69.339  1.00  0.00    -0.109 A  
ENDBRANCH  32  33
ENDBRANCH  19  32
TORSDOF 4
ENDMDL
MODEL      191
REMARK 921   NORMALIZED FREE ENERGY PREDICTED BY IDOCK:   -3.92 KCAL/MOL
REMARK 922        TOTAL FREE ENERGY PREDICTED BY IDOCK:   -5.49 KCAL/MOL
REMARK 923 INTER-LIGAND FREE ENERGY PREDICTED BY IDOCK:   -5.54 KCAL/MOL
REMARK 924 INTRA-LIGAND FREE ENERGY PREDICTED BY IDOCK:    0.05 KCAL/MOL
REMARK 927      BINDING AFFINITY PREDICTED BY RF-SCORE:    0.00 PKD
ROOT
HETATM    1  O   UNL     1      -8.543   9.873  66.223  1.00  0.00    -0.126 OA 
HETATM    2  S   UNL     1      -9.625  10.391  65.149  1.00  0.00    -0.298 S  
HETATM    3  N   UNL     2      -8.974   9.032  69.869  1.00  0.00    -0.153 NA 
HETATM    4  H1  UNL     2      -8.512   8.474  69.152  1.00  0.00     0.000 HD 
HETATM    5  H2  UNL     2      -8.445   9.602  70.529  1.00  0.00     0.000 HD 
HETATM    6  C   UNL     2     -10.316   8.981  69.900  1.00  0.00    -0.207 C  
HETATM    7  N   UNL     3      -9.308  11.679  68.341  1.00  0.00    -0.194 NA 
HETATM    8  O   UNL     1      -9.376  11.974  65.223  1.00  0.00    -0.098 OA 
HETATM    9  O   UNL     1      -9.229   9.898  63.851  1.00  0.00    -0.253 OA 
HETATM   10  O   UNL     1     -10.923  10.134  65.709  1.00  0.00     0.205 OA 
HETATM   11  C   UNL     3     -10.557  12.190  68.274  1.00  0.00    -0.217 C  
HETATM   12  H1  UNL     3      -8.498  12.119  67.903  1.00  0.00     0.000 HD 
HETATM   13  H2  UNL     3      -9.167  10.809  68.856  1.00  0.00     0.000 HD 
HETATM   14  N   UNL     2     -10.975   8.426  68.877  1.00  0.00    -0.428 NA 
HETATM   15  N   UNL     2     -10.898   9.684  70.803  1.00  0.00    -0.307 NA 
HETATM   16  H2  UNL     2     -10.369  10.254  71.464  1.00  0.00     0.000 HD 
HETATM   17  H   UNL     2     -11.981   8.596  68.865  1.00  0.00     0.000 HD 
HETATM   18  N   UNL     3     -11.572  11.639  68.823  1.00  0.00    -0.285 NA 
HETATM   19  N   UNL     3     -10.658  13.293  67.499  1.00  0.00    -0.244 NA 
HETATM   20  H2  UNL     3     -11.432  10.770  69.339  1.00  0.00     0.000 HD 
HETATM   21  H1  UNL     2     -11.918   9.645  70.827  1.00  0.00     0.000 HD 
HETATM   22  H1  UNL     3     -12.515  12.024  68.773  1.00  0.00     0.000 HD 
HETATM   23  H   UNL     3      -9.990  13.495  66.755  1.00  0.00     0.000 HD 
ENDROOT
BRANCH  14  24
HETATM   24  C   UNL     2     -10.473   7.618  67.780  1.00  0.00    -0.216 C  
BRANCH  24  25
HETATM   25  C   UNL     2      -9.641   6.463  68.312  1.00  0.00    -0.123 A  
HETATM   26  I   UNL     2      -9.638   3.890  71.832  1.00  0.00    -0.232 I  
HETATM   27  C   UNL     2      -8.529   5.989  67.594  1.00  0.00    -0.107 A  
HETATM   28  C   UNL     2      -9.970   5.839  69.530  1.00  0.00    -0.250 A  
HETATM   29  C   UNL     2      -7.725   4.974  68.103  1.00  0.00    -0.083 A  
HETATM   30  C   UNL     2      -9.171   4.804  70.023  1.00  0.00    -0.119 A  
HETATM   31  C   UNL     2      -8.043   4.377  69.319  1.00  0.00    -0.069 A  
ENDBRANCH  24  25
ENDBRANCH  14  24
BRANCH  19  32
HETATM   32  C   UNL     3     -11.780  14.174  67.793  1.00  0.00    -0.373 C  
BRANCH  32  33
HETATM   33  C   UNL     3     -11.518  15.074  68.966  1.00  0.00    -0.322 A  
HETATM   34  C   UNL     3     -11.399  16.947  71.059  1.00  0.00     0.557 A  
HETATM   35  C   UNL     3     -12.174  14.831  70.172  1.00  0.00    -0.391 A  
HETATM   36  I   UNL     3     -13.268  15.447  72.911  1.00  0.00    -0.710 I  
HETATM   37  C   UNL     3     -10.681  17.172  69.887  1.00  0.00     0.231 A  
HETATM   38  C   UNL     3     -12.136  15.773  71.200  1.00  0.00    -0.427 A  
HETATM   39  C   UNL     3     -10.744  16.246  68.842  1.00  0.00    -0.300 A  
ENDBRANCH  32  33
ENDBRANCH  19  32
TORSDOF 4
ENDMDL
MODEL      192
REMARK 921   NORMALIZED FREE ENERGY PREDICTED BY IDOCK:   -3.90 KCAL/MOL
REMARK 922        TOTAL FREE ENERGY PREDICTED BY IDOCK:   -5.46 KCAL/MOL
REMARK 923 INTER-LIGAND FREE ENERGY PREDICTED BY IDOCK:   -5.13 KCAL/MOL
REMARK 924 INTRA-LIGAND FREE ENERGY PREDICTED BY IDOCK:   -0.33 KCAL/MOL
REMARK 927      BINDING AFFINITY PREDICTED BY RF-SCORE:    0.00 PKD
ROOT
HETATM    1  O   UNL     1     -10.849  16.733  66.805  1.00  0.00    -0.172 OA 
HETATM    2  S   UNL     1      -9.676  16.111  65.894  1.00  0.00    -0.310 S  
HETATM    3  N   UNL     2     -12.553  15.311  69.847  1.00  0.00    -0.604 NA 
HETATM    4  H1  UNL     2     -12.163  16.247  69.732  1.00  0.00     0.000 HD 
HETATM    5  H2  UNL     2     -13.554  15.134  69.763  1.00  0.00     0.000 HD 
HETATM    6  C   UNL     2     -11.683  14.325  70.116  1.00  0.00    -0.288 C  
HETATM    7  N   UNL     3     -12.456  14.338  66.933  1.00  0.00    -0.543 NA 
HETATM    8  O   UNL     1     -10.539  15.447  64.717  1.00  0.00    -0.392 OA 
HETATM    9  O   UNL     1      -8.898  17.207  65.367  1.00  0.00    -0.004 OA 
HETATM   10  O   UNL     1      -9.086  15.040  66.650  1.00  0.00    -0.246 OA 
HETATM   11  C   UNL     3     -11.815  13.171  66.702  1.00  0.00    -0.391 C  
HETATM   12  H1  UNL     3     -12.882  14.899  66.195  1.00  0.00     0.000 HD 
HETATM   13  H2  UNL     3     -12.516  14.676  67.894  1.00  0.00     0.000 HD 
HETATM   14  N   UNL     2     -10.371  14.551  69.976  1.00  0.00    -0.373 NA 
HETATM   15  N   UNL     2     -12.174  13.147  70.261  1.00  0.00    -0.333 NA 
HETATM   16  H2  UNL     2     -13.175  12.969  70.176  1.00  0.00     0.000 HD 
HETATM   17  H   UNL     2      -9.782  13.718  69.999  1.00  0.00     0.000 HD 
HETATM   18  N   UNL     3     -11.280  12.468  67.627  1.00  0.00    -0.264 NA 
HETATM   19  N   UNL     3     -11.710  12.852  65.392  1.00  0.00    -0.354 NA 
HETATM   20  H2  UNL     3     -11.341  12.804  68.588  1.00  0.00     0.000 HD 
HETATM   21  H1  UNL     2     -11.513  12.397  70.465  1.00  0.00     0.000 HD 
HETATM   22  H1  UNL     3     -10.797  11.587  67.453  1.00  0.00     0.000 HD 
HETATM   23  H   UNL     3     -11.750  13.559  64.658  1.00  0.00     0.000 HD 
ENDROOT
BRANCH  14  24
HETATM   24  C   UNL     2      -9.662  15.804  69.797  1.00  0.00    -0.187 C  
BRANCH  24  25
HETATM   25  C   UNL     2      -8.191  15.545  69.518  1.00  0.00    -0.209 A  
HETATM   26  I   UNL     2      -5.392  12.233  69.983  1.00  0.00    -0.142 I  
HETATM   27  C   UNL     2      -7.375  16.552  68.976  1.00  0.00    -0.228 A  
HETATM   28  C   UNL     2      -7.616  14.288  69.791  1.00  0.00     0.327 A  
HETATM   29  C   UNL     2      -6.013  16.344  68.777  1.00  0.00    -0.124 A  
HETATM   30  C   UNL     2      -6.253  14.080  69.565  1.00  0.00    -0.117 A  
HETATM   31  C   UNL     2      -5.448  15.107  69.070  1.00  0.00    -0.097 A  
ENDBRANCH  24  25
ENDBRANCH  14  24
BRANCH  19  32
HETATM   32  C   UNL     3     -11.535  11.436  65.097  1.00  0.00     0.076 C  
BRANCH  32  33
HETATM   33  C   UNL     3     -10.103  10.997  65.195  1.00  0.00    -0.346 A  
HETATM   34  C   UNL     3      -7.534   9.856  65.114  1.00  0.00    -0.133 A  
HETATM   35  C   UNL     3      -9.221  11.309  64.161  1.00  0.00    -0.058 A  
HETATM   36  I   UNL     3      -6.744  11.083  62.460  1.00  0.00     0.534 I  
HETATM   37  C   UNL     3      -8.377   9.589  66.190  1.00  0.00    -0.118 A  
HETATM   38  C   UNL     3      -7.957  10.722  64.108  1.00  0.00     0.214 A  
HETATM   39  C   UNL     3      -9.658  10.149  66.230  1.00  0.00    -0.245 A  
ENDBRANCH  32  33
ENDBRANCH  19  32
TORSDOF 4
ENDMDL
MODEL      193
REMARK 921   NORMALIZED FREE ENERGY PREDICTED BY IDOCK:   -3.71 KCAL/MOL
REMARK 922        TOTAL FREE ENERGY PREDICTED BY IDOCK:   -5.22 KCAL/MOL
REMARK 923 INTER-LIGAND FREE ENERGY PREDICTED BY IDOCK:   -5.48 KCAL/MOL
REMARK 924 INTRA-LIGAND FREE ENERGY PREDICTED BY IDOCK:    0.26 KCAL/MOL
REMARK 927      BINDING AFFINITY PREDICTED BY RF-SCORE:    0.00 PKD
ROOT
HETATM    1  O   UNL     1     -10.582  13.100  69.810  1.00  0.00     0.395 OA 
HETATM    2  S   UNL     1     -11.912  12.754  68.972  1.00  0.00    -0.175 S  
HETATM    3  N   UNL     2      -6.971  12.399  69.001  1.00  0.00    -0.184 NA 
HETATM    4  H1  UNL     2      -7.380  13.281  69.310  1.00  0.00     0.000 HD 
HETATM    5  H2  UNL     2      -6.475  11.783  69.646  1.00  0.00     0.000 HD 
HETATM    6  C   UNL     2      -7.118  12.090  67.703  1.00  0.00    -0.118 C  
HETATM    7  N   UNL     3      -9.340  10.510  69.518  1.00  0.00    -0.400 NA 
HETATM    8  O   UNL     1     -12.348  11.377  69.668  1.00  0.00    -0.259 OA 
HETATM    9  O   UNL     1     -12.893  13.774  69.261  1.00  0.00     0.286 OA 
HETATM   10  O   UNL     1     -11.493  12.445  67.633  1.00  0.00    -0.293 OA 
HETATM   11  C   UNL     3      -9.758   9.758  68.475  1.00  0.00    -0.154 C  
HETATM   12  H1  UNL     3      -9.781  10.486  70.438  1.00  0.00     0.000 HD 
HETATM   13  H2  UNL     3      -8.546  11.134  69.377  1.00  0.00     0.000 HD 
HETATM   14  N   UNL     2      -7.975  12.793  66.953  1.00  0.00    -0.396 NA 
HETATM   15  N   UNL     2      -6.603  10.979  67.313  1.00  0.00    -0.072 NA 
HETATM   16  H2  UNL     2      -6.108  10.363  67.958  1.00  0.00     0.000 HD 
HETATM   17  H   UNL     2      -8.189  12.387  66.042  1.00  0.00     0.000 HD 
HETATM   18  N   UNL     3      -9.207   9.787  67.322  1.00  0.00    -0.134 NA 
HETATM   19  N   UNL     3     -10.869   9.031  68.733  1.00  0.00    -0.423 NA 
HETATM   20  H2  UNL     3      -8.411  10.411  67.181  1.00  0.00     0.000 HD 
HETATM   21  H1  UNL     2      -6.715  10.744  66.327  1.00  0.00     0.000 HD 
HETATM   22  H1  UNL     3      -9.521   9.220  66.535  1.00  0.00     0.000 HD 
HETATM   23  H   UNL     3     -11.533   9.295  69.461  1.00  0.00     0.000 HD 
ENDROOT
BRANCH  14  24
HETATM   24  C   UNL     2      -8.646  14.047  67.244  1.00  0.00    -0.216 C  
BRANCH  24  25
HETATM   25  C   UNL     2      -9.689  14.348  66.182  1.00  0.00    -0.335 A  
HETATM   26  I   UNL     2     -12.216  12.067  63.456  1.00  0.00    -0.227 I  
HETATM   27  C   UNL     2     -10.032  15.675  65.868  1.00  0.00    -0.379 A  
HETATM   28  C   UNL     2     -10.339  13.306  65.493  1.00  0.00    -0.298 A  
HETATM   29  C   UNL     2     -10.940  15.961  64.853  1.00  0.00    -0.427 A  
HETATM   30  C   UNL     2     -11.266  13.602  64.492  1.00  0.00    -0.382 A  
HETATM   31  C   UNL     2     -11.561  14.926  64.161  1.00  0.00    -0.069 A  
ENDBRANCH  24  25
ENDBRANCH  14  24
BRANCH  19  32
HETATM   32  C   UNL     3     -11.058   7.848  67.905  1.00  0.00     0.319 C  
BRANCH  32  33
HETATM   33  C   UNL     3     -10.496   6.605  68.534  1.00  0.00    -0.246 A  
HETATM   34  C   UNL     3      -9.148   4.539  69.883  1.00  0.00    -0.165 A  
HETATM   35  C   UNL     3     -10.778   6.331  69.871  1.00  0.00    -0.355 A  
HETATM   36  I   UNL     3     -10.419   5.063  72.581  1.00  0.00    -0.284 I  
HETATM   37  C   UNL     3      -8.906   4.756  68.528  1.00  0.00    -0.119 A  
HETATM   38  C   UNL     3     -10.090   5.323  70.546  1.00  0.00    -0.245 A  
HETATM   39  C   UNL     3      -9.569   5.787  67.856  1.00  0.00    -0.124 A  
ENDBRANCH  32  33
ENDBRANCH  19  32
TORSDOF 4
ENDMDL
MODEL      194
REMARK 921   NORMALIZED FREE ENERGY PREDICTED BY IDOCK:   -3.66 KCAL/MOL
REMARK 922        TOTAL FREE ENERGY PREDICTED BY IDOCK:   -5.17 KCAL/MOL
REMARK 923 INTER-LIGAND FREE ENERGY PREDICTED BY IDOCK:   -4.55 KCAL/MOL
REMARK 924 INTRA-LIGAND FREE ENERGY PREDICTED BY IDOCK:   -0.62 KCAL/MOL
REMARK 927      BINDING AFFINITY PREDICTED BY RF-SCORE:    0.00 PKD
ROOT
HETATM    1  O   UNL     1      -7.572   9.140  70.951  1.00  0.00    -0.117 OA 
HETATM    2  S   UNL     1      -6.071   9.617  70.617  1.00  0.00    -0.087 S  
HETATM    3  N   UNL     2     -10.452   8.434  68.630  1.00  0.00    -0.301 NA 
HETATM    4  H1  UNL     2     -10.110   7.850  69.393  1.00  0.00     0.000 HD 
HETATM    5  H2  UNL     2     -11.274   9.028  68.736  1.00  0.00     0.000 HD 
HETATM    6  C   UNL     2      -9.765   8.381  67.477  1.00  0.00    -0.162 C  
HETATM    7  N   UNL     3      -8.898  11.022  69.209  1.00  0.00    -0.383 NA 
HETATM    8  O   UNL     1      -6.215  11.201  70.817  1.00  0.00    -0.355 OA 
HETATM    9  O   UNL     1      -5.200   9.077  71.635  1.00  0.00    -0.036 OA 
HETATM   10  O   UNL     1      -5.860   9.378  69.216  1.00  0.00    -0.035 OA 
HETATM   11  C   UNL     3      -8.159  11.528  68.197  1.00  0.00    -0.146 C  
HETATM   12  H1  UNL     3      -8.944  11.446  70.136  1.00  0.00     0.000 HD 
HETATM   13  H2  UNL     3      -9.435  10.172  69.038  1.00  0.00     0.000 HD 
HETATM   14  N   UNL     2      -8.566   7.788  67.454  1.00  0.00    -0.124 NA 
HETATM   15  N   UNL     2     -10.196   9.116  66.516  1.00  0.00    -0.274 NA 
HETATM   16  H2  UNL     2     -11.018   9.711  66.623  1.00  0.00     0.000 HD 
HETATM   17  H   UNL     2      -8.015   7.955  66.612  1.00  0.00     0.000 HD 
HETATM   18  N   UNL     3      -8.100  10.996  67.036  1.00  0.00    -0.130 NA 
HETATM   19  N   UNL     3      -7.414  12.601  68.545  1.00  0.00    -0.121 NA 
HETATM   20  H2  UNL     3      -8.638  10.146  66.864  1.00  0.00     0.000 HD 
HETATM   21  H1  UNL     2      -9.674   9.076  65.640  1.00  0.00     0.000 HD 
HETATM   22  H1  UNL     3      -7.542  11.377  66.271  1.00  0.00     0.000 HD 
HETATM   23  H   UNL     3      -7.134  12.777  69.510  1.00  0.00     0.000 HD 
ENDROOT
BRANCH  14  24
HETATM   24  C   UNL     2      -7.933   6.941  68.448  1.00  0.00    -0.122 C  
BRANCH  24  25
HETATM   25  C   UNL     2      -7.407   5.670  67.804  1.00  0.00    -0.077 A  
HETATM   26  I   UNL     2      -8.236   3.332  64.217  1.00  0.00    -0.086 I  
HETATM   27  C   UNL     2      -6.384   4.925  68.416  1.00  0.00    -0.036 A  
HETATM   28  C   UNL     2      -7.927   5.214  66.577  1.00  0.00    -0.104 A  
HETATM   29  C   UNL     2      -5.939   3.726  67.866  1.00  0.00    -0.027 A  
HETATM   30  C   UNL     2      -7.459   4.023  66.019  1.00  0.00    -0.088 A  
HETATM   31  C   UNL     2      -6.475   3.271  66.665  1.00  0.00    -0.036 A  
ENDBRANCH  24  25
ENDBRANCH  14  24
BRANCH  19  32
HETATM   32  C   UNL     3      -7.036  13.491  67.454  1.00  0.00    -0.083 C  
BRANCH  32  33
HETATM   33  C   UNL     3      -7.843  14.757  67.435  1.00  0.00    -0.224 A  
HETATM   34  C   UNL     3      -9.385  17.076  67.823  1.00  0.00    -0.237 A  
HETATM   35  C   UNL     3      -7.237  15.958  67.800  1.00  0.00    -0.167 A  
HETATM   36  I   UNL     3      -7.081  18.821  68.727  1.00  0.00    -0.307 I  
HETATM   37  C   UNL     3      -9.997  15.902  67.390  1.00  0.00    -0.239 A  
HETATM   38  C   UNL     3      -8.005  17.101  68.018  1.00  0.00    -0.212 A  
HETATM   39  C   UNL     3      -9.234  14.745  67.203  1.00  0.00    -0.233 A  
ENDBRANCH  32  33
ENDBRANCH  19  32
TORSDOF 4
ENDMDL
MODEL      195
REMARK 921   NORMALIZED FREE ENERGY PREDICTED BY IDOCK:   -3.63 KCAL/MOL
REMARK 922        TOTAL FREE ENERGY PREDICTED BY IDOCK:   -5.13 KCAL/MOL
REMARK 923 INTER-LIGAND FREE ENERGY PREDICTED BY IDOCK:   -4.97 KCAL/MOL
REMARK 924 INTRA-LIGAND FREE ENERGY PREDICTED BY IDOCK:   -0.16 KCAL/MOL
REMARK 927      BINDING AFFINITY PREDICTED BY RF-SCORE:    0.00 PKD
ROOT
HETATM    1  O   UNL     1      -9.077  10.723  64.592  1.00  0.00    -0.199 OA 
HETATM    2  S   UNL     1     -10.326  11.675  64.237  1.00  0.00    -0.353 S  
HETATM    3  N   UNL     2      -7.734   9.655  67.944  1.00  0.00    -0.087 NA 
HETATM    4  H1  UNL     2      -7.940   9.064  67.139  1.00  0.00     0.000 HD 
HETATM    5  H2  UNL     2      -6.782   9.949  68.164  1.00  0.00     0.000 HD 
HETATM    6  C   UNL     2      -8.780  10.026  68.701  1.00  0.00    -0.127 C  
HETATM    7  N   UNL     3      -7.950  12.426  66.632  1.00  0.00    -0.396 NA 
HETATM    8  O   UNL     1      -9.577  13.079  64.036  1.00  0.00     0.021 OA 
HETATM    9  O   UNL     1     -10.873  11.233  62.976  1.00  0.00    -0.164 OA 
HETATM   10  O   UNL     1     -11.122  11.780  65.429  1.00  0.00    -0.306 OA 
HETATM   11  C   UNL     3      -8.793  13.310  67.211  1.00  0.00    -0.216 C  
HETATM   12  H1  UNL     3      -7.411  12.635  65.792  1.00  0.00     0.000 HD 
HETATM   13  H2  UNL     3      -7.849  11.505  67.057  1.00  0.00     0.000 HD 
HETATM   14  N   UNL     2     -10.022   9.828  68.246  1.00  0.00    -0.149 NA 
HETATM   15  N   UNL     2      -8.521  10.771  69.715  1.00  0.00    -0.318 NA 
HETATM   16  H2  UNL     2      -7.569  11.065  69.935  1.00  0.00     0.000 HD 
HETATM   17  H   UNL     2     -10.757  10.307  68.767  1.00  0.00     0.000 HD 
HETATM   18  N   UNL     3      -9.469  13.050  68.265  1.00  0.00    -0.240 NA 
HETATM   19  N   UNL     3      -8.927  14.469  66.527  1.00  0.00    -0.432 NA 
HETATM   20  H2  UNL     3      -9.367  12.128  68.691  1.00  0.00     0.000 HD 
HETATM   21  H1  UNL     2      -9.315  11.053  70.290  1.00  0.00     0.000 HD 
HETATM   22  H1  UNL     3     -10.105  13.716  68.702  1.00  0.00     0.000 HD 
HETATM   23  H   UNL     3      -8.740  14.533  65.527  1.00  0.00     0.000 HD 
ENDROOT
BRANCH  14  24
HETATM   24  C   UNL     2     -10.481   9.033  67.122  1.00  0.00    -0.263 C  
BRANCH  24  25
HETATM   25  C   UNL     2      -9.848   7.653  67.157  1.00  0.00    -0.265 A  
HETATM   26  I   UNL     2      -7.182   5.301  64.631  1.00  0.00    -0.064 I  
HETATM   27  C   UNL     2     -10.106   6.771  68.221  1.00  0.00    -0.173 A  
HETATM   28  C   UNL     2      -8.984   7.229  66.128  1.00  0.00    -0.179 A  
HETATM   29  C   UNL     2      -9.582   5.482  68.230  1.00  0.00    -0.148 A  
HETATM   30  C   UNL     2      -8.443   5.941  66.157  1.00  0.00    -0.132 A  
HETATM   31  C   UNL     2      -8.748   5.063  67.198  1.00  0.00    -0.103 A  
ENDBRANCH  24  25
ENDBRANCH  14  24
BRANCH  19  32
HETATM   32  C   UNL     3      -9.357  15.620  67.310  1.00  0.00    -0.215 C  
BRANCH  32  33
HETATM   33  C   UNL     3      -8.519  16.840  67.054  1.00  0.00    -0.225 A  
HETATM   34  C   UNL     3      -7.252  19.229  66.286  1.00  0.00    -0.265 A  
HETATM   35  C   UNL     3      -8.889  18.054  67.630  1.00  0.00    -0.254 A  
HETATM   36  I   UNL     3      -8.977  21.045  67.988  1.00  0.00     0.958 I  
HETATM   37  C   UNL     3      -6.823  18.016  65.752  1.00  0.00    -0.281 A  
HETATM   38  C   UNL     3      -8.277  19.242  67.229  1.00  0.00    -0.277 A  
HETATM   39  C   UNL     3      -7.457  16.827  66.126  1.00  0.00    -0.119 A  
ENDBRANCH  32  33
ENDBRANCH  19  32
TORSDOF 4
ENDMDL
MODEL      196
REMARK 921   NORMALIZED FREE ENERGY PREDICTED BY IDOCK:   -3.32 KCAL/MOL
REMARK 922        TOTAL FREE ENERGY PREDICTED BY IDOCK:   -4.75 KCAL/MOL
REMARK 923 INTER-LIGAND FREE ENERGY PREDICTED BY IDOCK:   -4.29 KCAL/MOL
REMARK 924 INTRA-LIGAND FREE ENERGY PREDICTED BY IDOCK:   -0.46 KCAL/MOL
REMARK 927      BINDING AFFINITY PREDICTED BY RF-SCORE:    0.00 PKD
ROOT
HETATM    1  O   UNL     1     -12.743  10.232  69.283  1.00  0.00     0.112 OA 
HETATM    2  S   UNL     1     -12.253  10.632  70.763  1.00  0.00    -0.407 S  
HETATM    3  N   UNL     2     -10.769   9.916  66.091  1.00  0.00     0.033 NA 
HETATM    4  H1  UNL     2     -11.437   9.249  66.479  1.00  0.00     0.000 HD 
HETATM    5  H2  UNL     2     -11.025  10.554  65.337  1.00  0.00     0.000 HD 
HETATM    6  C   UNL     2      -9.537   9.912  66.623  1.00  0.00    -0.184 C  
HETATM    7  N   UNL     3     -11.330  12.336  67.901  1.00  0.00    -0.276 NA 
HETATM    8  O   UNL     1     -12.585  12.201  70.769  1.00  0.00    -0.303 OA 
HETATM    9  O   UNL     1     -13.106   9.952  71.709  1.00  0.00    -0.387 OA 
HETATM   10  O   UNL     1     -10.822  10.496  70.779  1.00  0.00    -0.091 OA 
HETATM   11  C   UNL     3     -10.270  12.872  68.546  1.00  0.00    -0.205 C  
HETATM   12  H1  UNL     3     -12.283  12.685  68.003  1.00  0.00     0.000 HD 
HETATM   13  H2  UNL     3     -11.168  11.542  67.282  1.00  0.00     0.000 HD 
HETATM   14  N   UNL     2      -9.315   9.242  67.760  1.00  0.00    -0.129 NA 
HETATM   15  N   UNL     2      -8.696  10.751  66.135  1.00  0.00    -0.173 NA 
HETATM   16  H2  UNL     2      -8.952  11.389  65.381  1.00  0.00     0.000 HD 
HETATM   17  H   UNL     2      -8.423   9.441  68.214  1.00  0.00     0.000 HD 
HETATM   18  N   UNL     3      -9.075  12.435  68.419  1.00  0.00    -0.313 NA 
HETATM   19  N   UNL     3     -10.596  13.861  69.409  1.00  0.00    -0.444 NA 
HETATM   20  H2  UNL     3      -8.913  11.641  67.799  1.00  0.00     0.000 HD 
HETATM   21  H1  UNL     2      -7.759  10.748  66.539  1.00  0.00     0.000 HD 
HETATM   22  H1  UNL     3      -8.275  12.840  68.905  1.00  0.00     0.000 HD 
HETATM   23  H   UNL     3     -11.526  13.938  69.820  1.00  0.00     0.000 HD 
ENDROOT
BRANCH  14  24
HETATM   24  C   UNL     2     -10.154   8.276  68.444  1.00  0.00    -0.201 C  
BRANCH  24  25
HETATM   25  C   UNL     2      -9.425   7.698  69.645  1.00  0.00    -0.156 A  
HETATM   26  I   UNL     2      -5.359   7.716  71.220  1.00  0.00    -0.030 I  
HETATM   27  C   UNL     2     -10.108   6.909  70.588  1.00  0.00    -0.208 A  
HETATM   28  C   UNL     2      -8.053   7.945  69.844  1.00  0.00    -0.118 A  
HETATM   29  C   UNL     2      -9.435   6.323  71.657  1.00  0.00    -0.157 A  
HETATM   30  C   UNL     2      -7.390   7.372  70.932  1.00  0.00    -0.073 A  
HETATM   31  C   UNL     2      -8.074   6.553  71.832  1.00  0.00    -0.104 A  
ENDBRANCH  24  25
ENDBRANCH  14  24
BRANCH  19  32
HETATM   32  C   UNL     3      -9.533  14.809  69.717  1.00  0.00     0.281 C  
BRANCH  32  33
HETATM   33  C   UNL     3      -9.374  15.863  68.659  1.00  0.00    -0.212 A  
HETATM   34  C   UNL     3      -8.866  17.535  66.456  1.00  0.00    -0.291 A  
HETATM   35  C   UNL     3     -10.218  15.848  67.549  1.00  0.00    -0.269 A  
HETATM   36  I   UNL     3     -11.133  16.478  64.747  1.00  0.00     0.789 I  
HETATM   37  C   UNL     3      -8.055  17.613  67.585  1.00  0.00    -0.218 A  
HETATM   38  C   UNL     3      -9.950  16.658  66.446  1.00  0.00    -0.302 A  
HETATM   39  C   UNL     3      -8.300  16.778  68.679  1.00  0.00    -0.252 A  
ENDBRANCH  32  33
ENDBRANCH  19  32
TORSDOF 4
ENDMDL
MODEL      197
REMARK 921   NORMALIZED FREE ENERGY PREDICTED BY IDOCK:   -3.21 KCAL/MOL
REMARK 922        TOTAL FREE ENERGY PREDICTED BY IDOCK:   -4.61 KCAL/MOL
REMARK 923 INTER-LIGAND FREE ENERGY PREDICTED BY IDOCK:   -4.73 KCAL/MOL
REMARK 924 INTRA-LIGAND FREE ENERGY PREDICTED BY IDOCK:    0.12 KCAL/MOL
REMARK 927      BINDING AFFINITY PREDICTED BY RF-SCORE:    0.00 PKD
ROOT
HETATM    1  O   UNL     1      -9.403  10.735  67.727  1.00  0.00    -0.149 OA 
HETATM    2  S   UNL     1     -10.998  10.838  67.926  1.00  0.00    -0.309 S  
HETATM    3  N   UNL     2      -7.143   7.727  67.878  1.00  0.00    -0.083 NA 
HETATM    4  H1  UNL     2      -7.174   8.447  67.156  1.00  0.00     0.000 HD 
HETATM    5  H2  UNL     2      -6.432   7.732  68.610  1.00  0.00     0.000 HD 
HETATM    6  C   UNL     2      -8.084   6.771  67.816  1.00  0.00    -0.113 C  
HETATM    7  N   UNL     3      -8.906   9.051  70.019  1.00  0.00    -0.159 NA 
HETATM    8  O   UNL     1     -11.075  11.246  69.474  1.00  0.00    -0.250 OA 
HETATM    9  O   UNL     1     -11.474  11.931  67.112  1.00  0.00    -0.338 OA 
HETATM   10  O   UNL     1     -11.519   9.504  67.807  1.00  0.00     0.201 OA 
HETATM   11  C   UNL     3      -9.955   8.331  70.475  1.00  0.00    -0.184 C  
HETATM   12  H1  UNL     3      -8.695   9.996  70.339  1.00  0.00     0.000 HD 
HETATM   13  H2  UNL     3      -8.296   8.628  69.319  1.00  0.00     0.000 HD 
HETATM   14  N   UNL     2      -9.132   6.934  67.000  1.00  0.00    -0.132 NA 
HETATM   15  N   UNL     2      -8.046   5.865  68.725  1.00  0.00    -0.102 NA 
HETATM   16  H2  UNL     2      -7.335   5.870  69.458  1.00  0.00     0.000 HD 
HETATM   17  H   UNL     2      -9.902   6.280  67.145  1.00  0.00     0.000 HD 
HETATM   18  N   UNL     3     -10.221   7.146  70.074  1.00  0.00    -0.193 NA 
HETATM   19  N   UNL     3     -10.754   9.007  71.331  1.00  0.00    -0.303 NA 
HETATM   20  H2  UNL     3      -9.611   6.723  69.375  1.00  0.00     0.000 HD 
HETATM   21  H1  UNL     2      -8.761   5.138  68.678  1.00  0.00     0.000 HD 
HETATM   22  H1  UNL     3     -11.013   6.602  70.418  1.00  0.00     0.000 HD 
HETATM   23  H   UNL     3     -10.802  10.026  71.339  1.00  0.00     0.000 HD 
ENDROOT
BRANCH  14  24
HETATM   24  C   UNL     2      -9.336   7.902  65.938  1.00  0.00     0.009 C  
BRANCH  24  25
HETATM   25  C   UNL     2      -8.231   7.792  64.902  1.00  0.00    -0.111 A  
HETATM   26  I   UNL     2      -5.255  10.435  63.119  1.00  0.00    -0.171 I  
HETATM   27  C   UNL     2      -7.987   6.577  64.238  1.00  0.00    -0.095 A  
HETATM   28  C   UNL     2      -7.424   8.903  64.587  1.00  0.00    -0.104 A  
HETATM   29  C   UNL     2      -7.019   6.484  63.242  1.00  0.00    -0.051 A  
HETATM   30  C   UNL     2      -6.439   8.794  63.603  1.00  0.00    -0.088 A  
HETATM   31  C   UNL     2      -6.241   7.592  62.922  1.00  0.00    -0.055 A  
ENDBRANCH  24  25
ENDBRANCH  14  24
BRANCH  19  32
HETATM   32  C   UNL     3     -11.544   8.188  72.241  1.00  0.00    -0.374 C  
BRANCH  32  33
HETATM   33  C   UNL     3     -10.698   7.266  73.071  1.00  0.00    -0.384 A  
HETATM   34  C   UNL     3      -8.899   5.461  74.261  1.00  0.00    -0.118 A  
HETATM   35  C   UNL     3      -9.449   7.699  73.513  1.00  0.00    -0.347 A  
HETATM   36  I   UNL     3      -6.636   7.450  74.566  1.00  0.00    -0.108 I  
HETATM   37  C   UNL     3     -10.170   5.028  73.888  1.00  0.00    -0.259 A  
HETATM   38  C   UNL     3      -8.548   6.798  74.079  1.00  0.00    -0.144 A  
HETATM   39  C   UNL     3     -11.064   5.921  73.290  1.00  0.00    -0.216 A  
ENDBRANCH  32  33
ENDBRANCH  19  32
TORSDOF 4
ENDMDL
MODEL      198
REMARK 921   NORMALIZED FREE ENERGY PREDICTED BY IDOCK:   -3.19 KCAL/MOL
REMARK 922        TOTAL FREE ENERGY PREDICTED BY IDOCK:   -4.58 KCAL/MOL
REMARK 923 INTER-LIGAND FREE ENERGY PREDICTED BY IDOCK:   -4.03 KCAL/MOL
REMARK 924 INTRA-LIGAND FREE ENERGY PREDICTED BY IDOCK:   -0.56 KCAL/MOL
REMARK 927      BINDING AFFINITY PREDICTED BY RF-SCORE:    0.00 PKD
ROOT
HETATM    1  O   UNL     1     -10.259  11.406  69.440  1.00  0.00    -0.063 OA 
HETATM    2  S   UNL     1     -11.158  10.197  68.873  1.00  0.00    -0.174 S  
HETATM    3  N   UNL     2      -6.612  11.465  70.378  1.00  0.00    -0.505 NA 
HETATM    4  H1  UNL     2      -7.115  12.131  69.791  1.00  0.00     0.000 HD 
HETATM    5  H2  UNL     2      -6.400  11.665  71.356  1.00  0.00     0.000 HD 
HETATM    6  C   UNL     2      -6.242  10.312  69.798  1.00  0.00    -0.060 C  
HETATM    7  N   UNL     3      -8.983   9.892  71.542  1.00  0.00     0.445 NA 
HETATM    8  O   UNL     1     -11.819   9.660  70.232  1.00  0.00    -0.212 OA 
HETATM    9  O   UNL     1     -12.181  10.767  68.028  1.00  0.00    -0.297 OA 
HETATM   10  O   UNL     1     -10.250   9.185  68.408  1.00  0.00    -0.187 OA 
HETATM   11  C   UNL     3      -8.958   8.550  71.386  1.00  0.00    -0.204 C  
HETATM   12  H1  UNL     3      -9.745  10.389  72.004  1.00  0.00     0.000 HD 
HETATM   13  H2  UNL     3      -8.200  10.436  71.178  1.00  0.00     0.000 HD 
HETATM   14  N   UNL     2      -6.747   9.987  68.602  1.00  0.00    -0.053 NA 
HETATM   15  N   UNL     2      -5.609   9.473  70.537  1.00  0.00    -0.041 NA 
HETATM   16  H2  UNL     2      -5.397   9.673  71.515  1.00  0.00     0.000 HD 
HETATM   17  H   UNL     2      -6.588   9.022  68.311  1.00  0.00     0.000 HD 
HETATM   18  N   UNL     3      -8.003   7.927  70.807  1.00  0.00    -0.097 NA 
HETATM   19  N   UNL     3     -10.077   7.927  71.820  1.00  0.00    -0.178 NA 
HETATM   20  H2  UNL     3      -7.220   8.470  70.444  1.00  0.00     0.000 HD 
HETATM   21  H1  UNL     2      -5.328   8.596  70.096  1.00  0.00     0.000 HD 
HETATM   22  H1  UNL     3      -7.984   6.914  70.690  1.00  0.00     0.000 HD 
HETATM   23  H   UNL     3     -10.973   8.409  71.892  1.00  0.00     0.000 HD 
ENDROOT
BRANCH  14  24
HETATM   24  C   UNL     2      -7.486  10.803  67.657  1.00  0.00    -0.095 C  
BRANCH  24  25
HETATM   25  C   UNL     2      -7.779  10.014  66.392  1.00  0.00    -0.103 A  
HETATM   26  I   UNL     2      -7.768   5.828  65.169  1.00  0.00    -0.113 I  
HETATM   27  C   UNL     2      -8.155  10.671  65.207  1.00  0.00    -0.086 A  
HETATM   28  C   UNL     2      -7.687   8.609  66.381  1.00  0.00    -0.095 A  
HETATM   29  C   UNL     2      -8.363   9.962  64.028  1.00  0.00    -0.168 A  
HETATM   30  C   UNL     2      -7.921   7.903  65.199  1.00  0.00    -0.132 A  
HETATM   31  C   UNL     2      -8.248   8.576  64.019  1.00  0.00    -0.132 A  
ENDBRANCH  24  25
ENDBRANCH  14  24
BRANCH  19  32
HETATM   32  C   UNL     3      -9.922   6.523  72.177  1.00  0.00    -0.161 C  
BRANCH  32  33
HETATM   33  C   UNL     3      -9.936   5.617  70.980  1.00  0.00    -0.248 A  
HETATM   34  C   UNL     3      -9.574   4.084  68.651  1.00  0.00    -0.190 A  
HETATM   35  C   UNL     3      -9.226   4.417  71.024  1.00  0.00    -0.201 A  
HETATM   36  I   UNL     3      -7.818   1.982  69.944  1.00  0.00    -0.058 I  
HETATM   37  C   UNL     3     -10.345   5.243  68.604  1.00  0.00    -0.193 A  
HETATM   38  C   UNL     3      -9.026   3.671  69.863  1.00  0.00    -0.104 A  
HETATM   39  C   UNL     3     -10.521   6.012  69.758  1.00  0.00    -0.320 A  
ENDBRANCH  32  33
ENDBRANCH  19  32
TORSDOF 4
ENDMDL
MODEL      199
REMARK 921   NORMALIZED FREE ENERGY PREDICTED BY IDOCK:   -3.18 KCAL/MOL
REMARK 922        TOTAL FREE ENERGY PREDICTED BY IDOCK:   -4.57 KCAL/MOL
REMARK 923 INTER-LIGAND FREE ENERGY PREDICTED BY IDOCK:   -3.87 KCAL/MOL
REMARK 924 INTRA-LIGAND FREE ENERGY PREDICTED BY IDOCK:   -0.70 KCAL/MOL
REMARK 927      BINDING AFFINITY PREDICTED BY RF-SCORE:    0.00 PKD
ROOT
HETATM    1  O   UNL     1      -7.332  13.172  70.412  1.00  0.00     1.307 OA 
HETATM    2  S   UNL     1      -6.101  12.673  69.500  1.00  0.00    -0.125 S  
HETATM    3  N   UNL     2     -10.577  14.794  69.403  1.00  0.00    -0.293 NA 
HETATM    4  H1  UNL     2     -10.446  14.004  70.034  1.00  0.00     0.000 HD 
HETATM    5  H2  UNL     2     -10.737  15.739  69.753  1.00  0.00     0.000 HD 
HETATM    6  C   UNL     2     -10.528  14.528  68.087  1.00  0.00    -0.239 C  
HETATM    7  N   UNL     3      -7.664  15.733  69.122  1.00  0.00    -0.205 NA 
HETATM    8  O   UNL     1      -5.132  13.948  69.593  1.00  0.00    -0.084 OA 
HETATM    9  O   UNL     1      -5.487  11.549  70.166  1.00  0.00    -0.083 OA 
HETATM   10  O   UNL     1      -6.585  12.600  68.150  1.00  0.00    -0.065 OA 
HETATM   11  C   UNL     3      -7.177  15.842  67.866  1.00  0.00    -0.139 C  
HETATM   12  H1  UNL     3      -7.110  15.931  69.956  1.00  0.00     0.000 HD 
HETATM   13  H2  UNL     3      -8.633  15.438  69.242  1.00  0.00     0.000 HD 
HETATM   14  N   UNL     2     -10.076  13.338  67.675  1.00  0.00    -0.225 NA 
HETATM   15  N   UNL     2     -10.693  15.524  67.292  1.00  0.00    -0.304 NA 
HETATM   16  H2  UNL     2     -10.854  16.469  67.642  1.00  0.00     0.000 HD 
HETATM   17  H   UNL     2      -9.876  13.272  66.677  1.00  0.00     0.000 HD 
HETATM   18  N   UNL     3      -7.870  15.594  66.820  1.00  0.00    -0.225 NA 
HETATM   19  N   UNL     3      -5.862  16.152  67.812  1.00  0.00    -0.127 NA 
HETATM   20  H2  UNL     3      -8.840  15.300  66.940  1.00  0.00     0.000 HD 
HETATM   21  H1  UNL     2     -10.656  15.322  66.293  1.00  0.00     0.000 HD 
HETATM   22  H1  UNL     3      -7.504  15.676  65.872  1.00  0.00     0.000 HD 
HETATM   23  H   UNL     3      -5.225  15.950  68.582  1.00  0.00     0.000 HD 
ENDROOT
BRANCH  14  24
HETATM   24  C   UNL     2      -9.829  12.128  68.436  1.00  0.00    -0.200 C  
BRANCH  24  25
HETATM   25  C   UNL     2      -9.692  10.936  67.504  1.00  0.00    -0.187 A  
HETATM   26  I   UNL     2     -10.983   6.771  67.442  1.00  0.00    -0.112 I  
HETATM   27  C   UNL     2      -8.971  11.043  66.302  1.00  0.00    -0.195 A  
HETATM   28  C   UNL     2     -10.290   9.700  67.820  1.00  0.00    -0.286 A  
HETATM   29  C   UNL     2      -8.787   9.940  65.473  1.00  0.00    -0.186 A  
HETATM   30  C   UNL     2     -10.120   8.604  66.971  1.00  0.00    -0.272 A  
HETATM   31  C   UNL     2      -9.362   8.717  65.805  1.00  0.00    -0.227 A  
ENDBRANCH  24  25
ENDBRANCH  14  24
BRANCH  19  32
HETATM   32  C   UNL     3      -5.412  16.791  66.582  1.00  0.00     0.016 C  
BRANCH  32  33
HETATM   33  C   UNL     3      -5.698  18.264  66.557  1.00  0.00    -0.183 A  
HETATM   34  C   UNL     3      -5.827  21.068  66.382  1.00  0.00    -0.305 A  
HETATM   35  C   UNL     3      -5.968  18.887  65.339  1.00  0.00    -0.269 A  
HETATM   36  I   UNL     3      -6.241  21.163  63.383  1.00  0.00    -0.044 I  
HETATM   37  C   UNL     3      -5.626  20.460  67.619  1.00  0.00    -0.220 A  
HETATM   38  C   UNL     3      -6.006  20.277  65.248  1.00  0.00    -0.212 A  
HETATM   39  C   UNL     3      -5.554  19.067  67.709  1.00  0.00    -0.179 A  
ENDBRANCH  32  33
ENDBRANCH  19  32
TORSDOF 4
ENDMDL
MODEL      200
REMARK 921   NORMALIZED FREE ENERGY PREDICTED BY IDOCK:   -3.08 KCAL/MOL
REMARK 922        TOTAL FREE ENERGY PREDICTED BY IDOCK:   -4.45 KCAL/MOL
REMARK 923 INTER-LIGAND FREE ENERGY PREDICTED BY IDOCK:   -3.98 KCAL/MOL
REMARK 924 INTRA-LIGAND FREE ENERGY PREDICTED BY IDOCK:   -0.47 KCAL/MOL
REMARK 927      BINDING AFFINITY PREDICTED BY RF-SCORE:    0.00 PKD
ROOT
HETATM    1  O   UNL     1      -5.338  12.901  68.771  1.00  0.00    -0.068 OA 
HETATM    2  S   UNL     1      -5.893  13.298  70.229  1.00  0.00    -0.142 S  
HETATM    3  N   UNL     2      -7.131  11.345  65.848  1.00  0.00    -0.352 NA 
HETATM    4  H1  UNL     2      -6.526  12.166  65.841  1.00  0.00     0.000 HD 
HETATM    5  H2  UNL     2      -6.796  10.429  65.548  1.00  0.00     0.000 HD 
HETATM    6  C   UNL     2      -8.392  11.530  66.271  1.00  0.00    -0.076 C  
HETATM    7  N   UNL     3      -6.547  10.282  68.672  1.00  0.00    -0.052 NA 
HETATM    8  O   UNL     1      -5.475  11.995  71.066  1.00  0.00    -0.247 OA 
HETATM    9  O   UNL     1      -5.136  14.436  70.695  1.00  0.00    -0.097 OA 
HETATM   10  O   UNL     1      -7.327  13.309  70.140  1.00  0.00     0.892 OA 
HETATM   11  C   UNL     3      -7.613  10.080  69.479  1.00  0.00    -0.133 C  
HETATM   12  H1  UNL     3      -5.584  10.114  68.964  1.00  0.00     0.000 HD 
HETATM   13  H2  UNL     3      -6.715  10.620  67.725  1.00  0.00     0.000 HD 
HETATM   14  N   UNL     2      -8.718  12.675  66.881  1.00  0.00    -0.286 NA 
HETATM   15  N   UNL     2      -9.155  10.496  66.280  1.00  0.00    -0.160 NA 
HETATM   16  H2  UNL     2      -8.819   9.580  65.979  1.00  0.00     0.000 HD 
HETATM   17  H   UNL     2      -9.623  12.674  67.352  1.00  0.00     0.000 HD 
HETATM   18  N   UNL     3      -8.820  10.291  69.115  1.00  0.00    -0.167 NA 
HETATM   19  N   UNL     3      -7.284   9.719  70.741  1.00  0.00    -0.314 NA 
HETATM   20  H2  UNL     3      -8.988  10.628  68.167  1.00  0.00     0.000 HD 
HETATM   21  H1  UNL     2     -10.113  10.636  66.601  1.00  0.00     0.000 HD 
HETATM   22  H1  UNL     3      -9.624  10.139  69.724  1.00  0.00     0.000 HD 
HETATM   23  H   UNL     3      -6.377   9.942  71.150  1.00  0.00     0.000 HD 
ENDROOT
BRANCH  14  24
HETATM   24  C   UNL     2      -7.976  13.919  66.973  1.00  0.00     0.069 C  
BRANCH  24  25
HETATM   25  C   UNL     2      -8.886  15.045  67.434  1.00  0.00    -0.202 A  
HETATM   26  I   UNL     2      -9.297  19.322  66.686  1.00  0.00    -0.470 I  
HETATM   27  C   UNL     2      -9.913  14.804  68.363  1.00  0.00    -0.223 A  
HETATM   28  C   UNL     2      -8.724  16.353  66.937  1.00  0.00    -0.233 A  
HETATM   29  C   UNL     2     -10.710  15.841  68.838  1.00  0.00    -0.248 A  
HETATM   30  C   UNL     2      -9.543  17.384  67.401  1.00  0.00    -0.257 A  
HETATM   31  C   UNL     2     -10.528  17.135  68.359  1.00  0.00    -0.376 A  
ENDBRANCH  24  25
ENDBRANCH  14  24
BRANCH  19  32
HETATM   32  C   UNL     3      -8.309   8.991  71.478  1.00  0.00     0.000 C  
BRANCH  32  33
HETATM   33  C   UNL     3      -8.214   7.505  71.287  1.00  0.00    -0.100 A  
HETATM   34  C   UNL     3      -8.465   4.728  70.922  1.00  0.00    -0.114 A  
HETATM   35  C   UNL     3      -8.369   6.970  70.009  1.00  0.00    -0.138 A  
HETATM   36  I   UNL     3      -8.920   4.859  67.930  1.00  0.00    -0.150 I  
HETATM   37  C   UNL     3      -8.240   5.241  72.197  1.00  0.00    -0.114 A  
HETATM   38  C   UNL     3      -8.519   5.595  69.832  1.00  0.00    -0.121 A  
HETATM   39  C   UNL     3      -8.123   6.622  72.384  1.00  0.00    -0.100 A  
ENDBRANCH  32  33
ENDBRANCH  19  32
TORSDOF 4
ENDMDL
MODEL      201
REMARK 921   NORMALIZED FREE ENERGY PREDICTED BY IDOCK:   -2.82 KCAL/MOL
REMARK 922        TOTAL FREE ENERGY PREDICTED BY IDOCK:   -4.13 KCAL/MOL
REMARK 923 INTER-LIGAND FREE ENERGY PREDICTED BY IDOCK:   -3.86 KCAL/MOL
REMARK 924 INTRA-LIGAND FREE ENERGY PREDICTED BY IDOCK:   -0.26 KCAL/MOL
REMARK 927      BINDING AFFINITY PREDICTED BY RF-SCORE:    0.00 PKD
ROOT
HETATM    1  O   UNL     1     -10.252  11.291  69.667  1.00  0.00     0.037 OA 
HETATM    2  S   UNL     1     -10.759  10.022  68.814  1.00  0.00    -0.224 S  
HETATM    3  N   UNL     2      -6.837  12.866  69.849  1.00  0.00    -0.328 NA 
HETATM    4  H1  UNL     2      -7.731  13.335  69.707  1.00  0.00     0.000 HD 
HETATM    5  H2  UNL     2      -6.380  12.849  70.761  1.00  0.00     0.000 HD 
HETATM    6  C   UNL     2      -6.290  12.273  68.776  1.00  0.00    -0.077 C  
HETATM    7  N   UNL     3      -7.828  10.068  70.646  1.00  0.00    -0.411 NA 
HETATM    8  O   UNL     1     -10.623   8.859  69.911  1.00  0.00    -0.213 OA 
HETATM    9  O   UNL     1     -12.152  10.230  68.499  1.00  0.00    -0.091 OA 
HETATM   10  O   UNL     1      -9.767   9.776  67.804  1.00  0.00    -0.138 OA 
HETATM   11  C   UNL     3      -7.348   9.025  69.932  1.00  0.00    -0.060 C  
HETATM   12  H1  UNL     3      -8.499   9.964  71.408  1.00  0.00     0.000 HD 
HETATM   13  H2  UNL     3      -7.503  11.006  70.412  1.00  0.00     0.000 HD 
HETATM   14  N   UNL     2      -7.027  12.107  67.671  1.00  0.00    -0.108 NA 
HETATM   15  N   UNL     2      -5.163  11.683  68.955  1.00  0.00    -0.047 NA 
HETATM   16  H2  UNL     2      -4.706  11.666  69.867  1.00  0.00     0.000 HD 
HETATM   17  H   UNL     2      -6.628  11.479  66.973  1.00  0.00     0.000 HD 
HETATM   18  N   UNL     3      -6.508   9.155  68.977  1.00  0.00    -0.047 NA 
HETATM   19  N   UNL     3      -7.904   7.836  70.257  1.00  0.00    -0.090 NA 
HETATM   20  H2  UNL     3      -6.182  10.093  68.743  1.00  0.00     0.000 HD 
HETATM   21  H1  UNL     2      -4.748  11.232  68.139  1.00  0.00     0.000 HD 
HETATM   22  H1  UNL     3      -6.146   8.369  68.438  1.00  0.00     0.000 HD 
HETATM   23  H   UNL     3      -8.824   7.768  70.691  1.00  0.00     0.000 HD 
ENDROOT
BRANCH  14  24
HETATM   24  C   UNL     2      -8.310  12.686  67.319  1.00  0.00    -0.189 C  
BRANCH  24  25
HETATM   25  C   UNL     2      -8.883  11.997  66.092  1.00  0.00    -0.018 A  
HETATM   26  I   UNL     2     -12.512  12.261  63.688  1.00  0.00    -0.319 I  
HETATM   27  C   UNL     2      -8.175  10.964  65.453  1.00  0.00    -0.016 A  
HETATM   28  C   UNL     2     -10.131  12.382  65.565  1.00  0.00    -0.287 A  
HETATM   29  C   UNL     2      -8.720  10.285  64.366  1.00  0.00    -0.209 A  
HETATM   30  C   UNL     2     -10.660  11.711  64.460  1.00  0.00    -0.318 A  
HETATM   31  C   UNL     2      -9.964  10.657  63.866  1.00  0.00    -0.390 A  
ENDBRANCH  24  25
ENDBRANCH  14  24
BRANCH  19  32
HETATM   32  C   UNL     3      -7.105   6.658  69.945  1.00  0.00    -0.068 C  
BRANCH  32  33
HETATM   33  C   UNL     3      -6.620   5.946  71.176  1.00  0.00    -0.049 A  
HETATM   34  C   UNL     3      -6.129   4.552  73.568  1.00  0.00    -0.028 A  
HETATM   35  C   UNL     3      -6.589   4.552  71.190  1.00  0.00    -0.030 A  
HETATM   36  I   UNL     3      -6.504   1.788  72.386  1.00  0.00    -0.015 I  
HETATM   37  C   UNL     3      -6.088   5.944  73.556  1.00  0.00    -0.061 A  
HETATM   38  C   UNL     3      -6.371   3.862  72.381  1.00  0.00    -0.017 A  
HETATM   39  C   UNL     3      -6.339   6.641  72.371  1.00  0.00    -0.054 A  
ENDBRANCH  32  33
ENDBRANCH  19  32
TORSDOF 4
ENDMDL
MODEL      202
REMARK 921   NORMALIZED FREE ENERGY PREDICTED BY IDOCK:   -2.64 KCAL/MOL
REMARK 922        TOTAL FREE ENERGY PREDICTED BY IDOCK:   -3.91 KCAL/MOL
REMARK 923 INTER-LIGAND FREE ENERGY PREDICTED BY IDOCK:   -4.73 KCAL/MOL
REMARK 924 INTRA-LIGAND FREE ENERGY PREDICTED BY IDOCK:    0.82 KCAL/MOL
REMARK 927      BINDING AFFINITY PREDICTED BY RF-SCORE:    0.00 PKD
ROOT
HETATM    1  O   UNL     1     -10.263  11.299  69.673  1.00  0.00     0.037 OA 
HETATM    2  S   UNL     1     -10.877  10.045  68.871  1.00  0.00    -0.206 S  
HETATM    3  N   UNL     2      -6.722  12.574  69.812  1.00  0.00    -0.354 NA 
HETATM    4  H1  UNL     2      -7.572  13.113  69.645  1.00  0.00     0.000 HD 
HETATM    5  H2  UNL     2      -6.271  12.555  70.727  1.00  0.00     0.000 HD 
HETATM    6  C   UNL     2      -6.227  11.891  68.767  1.00  0.00    -0.058 C  
HETATM    7  N   UNL     3      -7.958   9.910  70.718  1.00  0.00    -0.389 NA 
HETATM    8  O   UNL     1     -10.847   8.922  70.015  1.00  0.00    -0.230 OA 
HETATM    9  O   UNL     1     -12.245  10.362  68.538  1.00  0.00    -0.141 OA 
HETATM   10  O   UNL     1      -9.908   9.671  67.878  1.00  0.00    -0.146 OA 
HETATM   11  C   UNL     3      -7.570   8.801  70.050  1.00  0.00    -0.062 C  
HETATM   12  H1  UNL     3      -8.638   9.897  71.479  1.00  0.00     0.000 HD 
HETATM   13  H2  UNL     3      -7.551  10.805  70.447  1.00  0.00     0.000 HD 
HETATM   14  N   UNL     2      -6.973  11.744  67.666  1.00  0.00    -0.094 NA 
HETATM   15  N   UNL     2      -5.157  11.212  68.978  1.00  0.00    -0.041 NA 
HETATM   16  H2  UNL     2      -4.706  11.193  69.893  1.00  0.00     0.000 HD 
HETATM   17  H   UNL     2      -6.628  11.056  66.997  1.00  0.00     0.000 HD 
HETATM   18  N   UNL     3      -6.719   8.816  69.097  1.00  0.00    -0.050 NA 
HETATM   19  N   UNL     3      -8.229   7.679  70.421  1.00  0.00    -0.120 NA 
HETATM   20  H2  UNL     3      -6.311   9.711  68.826  1.00  0.00     0.000 HD 
HETATM   21  H1  UNL     2      -4.781  10.693  68.185  1.00  0.00     0.000 HD 
HETATM   22  H1  UNL     3      -6.426   7.979  68.592  1.00  0.00     0.000 HD 
HETATM   23  H   UNL     3      -9.153   7.710  70.852  1.00  0.00     0.000 HD 
ENDROOT
BRANCH  14  24
HETATM   24  C   UNL     2      -8.199  12.419  67.282  1.00  0.00    -0.184 C  
BRANCH  24  25
HETATM   25  C   UNL     2      -7.991  13.923  67.261  1.00  0.00    -0.147 A  
HETATM   26  I   UNL     2     -10.344  17.455  66.257  1.00  0.00    -0.103 I  
HETATM   27  C   UNL     2      -6.753  14.482  67.623  1.00  0.00    -0.194 A  
HETATM   28  C   UNL     2      -9.034  14.791  66.884  1.00  0.00    -0.276 A  
HETATM   29  C   UNL     2      -6.533  15.855  67.545  1.00  0.00    -0.205 A  
HETATM   30  C   UNL     2      -8.813  16.169  66.831  1.00  0.00    -0.219 A  
HETATM   31  C   UNL     2      -7.563  16.703  67.150  1.00  0.00    -0.218 A  
ENDBRANCH  24  25
ENDBRANCH  14  24
BRANCH  19  32
HETATM   32  C   UNL     3      -7.537   6.423  70.164  1.00  0.00    -0.096 C  
BRANCH  32  33
HETATM   33  C   UNL     3      -8.426   5.226  70.338  1.00  0.00    -0.116 A  
HETATM   34  C   UNL     3      -9.753   2.802  70.860  1.00  0.00    -0.135 A  
HETATM   35  C   UNL     3      -9.037   5.004  71.572  1.00  0.00    -0.169 A  
HETATM   36  I   UNL     3     -10.418   3.439  73.745  1.00  0.00    -0.318 I  
HETATM   37  C   UNL     3      -9.208   3.036  69.599  1.00  0.00    -0.219 A  
HETATM   38  C   UNL     3      -9.672   3.792  71.838  1.00  0.00    -0.167 A  
HETATM   39  C   UNL     3      -8.541   4.237  69.339  1.00  0.00    -0.109 A  
ENDBRANCH  32  33
ENDBRANCH  19  32
TORSDOF 4
ENDMDL
MODEL      203
REMARK 921   NORMALIZED FREE ENERGY PREDICTED BY IDOCK:   -2.50 KCAL/MOL
REMARK 922        TOTAL FREE ENERGY PREDICTED BY IDOCK:   -3.74 KCAL/MOL
REMARK 923 INTER-LIGAND FREE ENERGY PREDICTED BY IDOCK:   -3.82 KCAL/MOL
REMARK 924 INTRA-LIGAND FREE ENERGY PREDICTED BY IDOCK:    0.08 KCAL/MOL
REMARK 927      BINDING AFFINITY PREDICTED BY RF-SCORE:    0.00 PKD
ROOT
HETATM    1  O   UNL     1      -7.263  13.145  70.351  1.00  0.00     1.059 OA 
HETATM    2  S   UNL     1      -5.783  12.909  69.763  1.00  0.00    -0.123 S  
HETATM    3  N   UNL     2     -10.443  14.093  68.570  1.00  0.00    -0.246 NA 
HETATM    4  H1  UNL     2     -10.309  13.340  69.246  1.00  0.00     0.000 HD 
HETATM    5  H2  UNL     2     -10.862  14.984  68.837  1.00  0.00     0.000 HD 
HETATM    6  C   UNL     2     -10.042  13.851  67.312  1.00  0.00    -0.242 C  
HETATM    7  N   UNL     3      -7.786  15.597  68.920  1.00  0.00    -0.166 NA 
HETATM    8  O   UNL     1      -5.131  14.351  70.023  1.00  0.00    -0.089 OA 
HETATM    9  O   UNL     1      -5.130  11.925  70.594  1.00  0.00    -0.097 OA 
HETATM   10  O   UNL     1      -5.920  12.749  68.342  1.00  0.00    -0.061 OA 
HETATM   11  C   UNL     3      -7.055  15.809  67.803  1.00  0.00    -0.151 C  
HETATM   12  H1  UNL     3      -7.489  15.895  69.850  1.00  0.00     0.000 HD 
HETATM   13  H2  UNL     3      -8.679  15.114  68.829  1.00  0.00     0.000 HD 
HETATM   14  N   UNL     2      -9.283  12.778  67.059  1.00  0.00    -0.215 NA 
HETATM   15  N   UNL     2     -10.212  14.799  66.461  1.00  0.00    -0.269 NA 
HETATM   16  H2  UNL     2     -10.631  15.690  66.728  1.00  0.00     0.000 HD 
HETATM   17  H   UNL     2      -8.850  12.761  66.136  1.00  0.00     0.000 HD 
HETATM   18  N   UNL     3      -7.426  15.436  66.639  1.00  0.00    -0.260 NA 
HETATM   19  N   UNL     3      -5.849  16.376  68.037  1.00  0.00    -0.107 NA 
HETATM   20  H2  UNL     3      -8.320  14.953  66.547  1.00  0.00     0.000 HD 
HETATM   21  H1  UNL     2      -9.907  14.615  65.505  1.00  0.00     0.000 HD 
HETATM   22  H1  UNL     3      -6.875  15.595  65.795  1.00  0.00     0.000 HD 
HETATM   23  H   UNL     3      -5.380  16.301  68.939  1.00  0.00     0.000 HD 
ENDROOT
BRANCH  14  24
HETATM   24  C   UNL     2      -8.985  11.636  67.904  1.00  0.00    -0.170 C  
BRANCH  24  25
HETATM   25  C   UNL     2      -8.597  10.438  67.055  1.00  0.00    -0.130 A  
HETATM   26  I   UNL     2      -5.649   7.228  67.224  1.00  0.00    -0.032 I  
HETATM   27  C   UNL     2      -9.269  10.163  65.851  1.00  0.00    -0.203 A  
HETATM   28  C   UNL     2      -7.561   9.573  67.458  1.00  0.00    -0.095 A  
HETATM   29  C   UNL     2      -8.879   9.105  65.035  1.00  0.00    -0.230 A  
HETATM   30  C   UNL     2      -7.192   8.499  66.645  1.00  0.00    -0.074 A  
HETATM   31  C   UNL     2      -7.839   8.268  65.430  1.00  0.00    -0.113 A  
ENDBRANCH  24  25
ENDBRANCH  14  24
BRANCH  19  32
HETATM   32  C   UNL     3      -5.263  17.101  66.917  1.00  0.00    -0.160 C  
BRANCH  32  33
HETATM   33  C   UNL     3      -6.025  18.347  66.571  1.00  0.00    -0.187 A  
HETATM   34  C   UNL     3      -7.733  20.417  65.732  1.00  0.00    -0.047 A  
HETATM   35  C   UNL     3      -7.141  18.697  67.331  1.00  0.00    -0.210 A  
HETATM   36  I   UNL     3      -9.742  20.077  67.973  1.00  0.00    -0.375 I  
HETATM   37  C   UNL     3      -6.585  20.127  64.999  1.00  0.00    -0.325 A  
HETATM   38  C   UNL     3      -8.001  19.706  66.900  1.00  0.00    -0.283 A  
HETATM   39  C   UNL     3      -5.738  19.093  65.409  1.00  0.00    -0.219 A  
ENDBRANCH  32  33
ENDBRANCH  19  32
TORSDOF 4
ENDMDL
MODEL      204
REMARK 921   NORMALIZED FREE ENERGY PREDICTED BY IDOCK:   -2.38 KCAL/MOL
REMARK 922        TOTAL FREE ENERGY PREDICTED BY IDOCK:   -3.59 KCAL/MOL
REMARK 923 INTER-LIGAND FREE ENERGY PREDICTED BY IDOCK:   -5.97 KCAL/MOL
REMARK 924 INTRA-LIGAND FREE ENERGY PREDICTED BY IDOCK:    2.38 KCAL/MOL
REMARK 927      BINDING AFFINITY PREDICTED BY RF-SCORE:    0.00 PKD
ROOT
HETATM    1  O   UNL     1      -7.941  18.185  68.070  1.00  0.00    -0.249 OA 
HETATM    2  S   UNL     1      -7.253  17.561  66.755  1.00  0.00    -0.239 S  
HETATM    3  N   UNL     2     -10.606  16.749  70.310  1.00  0.00    -0.014 NA 
HETATM    4  H1  UNL     2      -9.721  17.172  70.588  1.00  0.00     0.000 HD 
HETATM    5  H2  UNL     2     -11.485  17.267  70.355  1.00  0.00     0.000 HD 
HETATM    6  C   UNL     2     -10.559  15.478  69.880  1.00  0.00    -0.313 C  
HETATM    7  N   UNL     3     -10.660  17.544  67.341  1.00  0.00    -0.340 NA 
HETATM    8  O   UNL     1      -8.144  18.240  65.607  1.00  0.00    -0.477 OA 
HETATM    9  O   UNL     1      -5.902  18.066  66.682  1.00  0.00    -0.139 OA 
HETATM   10  O   UNL     1      -7.552  16.156  66.755  1.00  0.00    -0.225 OA 
HETATM   11  C   UNL     3     -10.822  16.544  66.446  1.00  0.00    -0.042 C  
HETATM   12  H1  UNL     3     -10.541  18.521  67.074  1.00  0.00     0.000 HD 
HETATM   13  H2  UNL     3     -10.654  17.309  68.333  1.00  0.00     0.000 HD 
HETATM   14  N   UNL     2      -9.373  14.923  69.604  1.00  0.00    -0.439 NA 
HETATM   15  N   UNL     2     -11.674  14.946  69.530  1.00  0.00    -0.301 NA 
HETATM   16  H2  UNL     2     -12.553  15.463  69.576  1.00  0.00     0.000 HD 
HETATM   17  H   UNL     2      -9.415  14.038  69.098  1.00  0.00     0.000 HD 
HETATM   18  N   UNL     3     -10.970  15.319  66.780  1.00  0.00    -0.318 NA 
HETATM   19  N   UNL     3     -10.727  16.941  65.157  1.00  0.00    -0.666 NA 
HETATM   20  H2  UNL     3     -10.965  15.083  67.773  1.00  0.00     0.000 HD 
HETATM   21  H1  UNL     2     -11.638  13.980  69.204  1.00  0.00     0.000 HD 
HETATM   22  H1  UNL     3     -11.093  14.564  66.105  1.00  0.00     0.000 HD 
HETATM   23  H   UNL     3     -10.220  17.783  64.885  1.00  0.00     0.000 HD 
ENDROOT
BRANCH  14  24
HETATM   24  C   UNL     2      -8.036  15.391  69.918  1.00  0.00     0.101 C  
BRANCH  24  25
HETATM   25  C   UNL     2      -7.033  14.258  69.788  1.00  0.00    -0.011 A  
HETATM   26  I   UNL     2      -6.269  10.977  67.017  1.00  0.00    -0.122 I  
HETATM   27  C   UNL     2      -6.025  14.076  70.751  1.00  0.00    -0.188 A  
HETATM   28  C   UNL     2      -7.088  13.368  68.697  1.00  0.00    -0.106 A  
HETATM   29  C   UNL     2      -5.142  13.003  70.674  1.00  0.00    -0.116 A  
HETATM   30  C   UNL     2      -6.183  12.307  68.615  1.00  0.00    -0.067 A  
HETATM   31  C   UNL     2      -5.218  12.115  69.605  1.00  0.00    -0.073 A  
ENDBRANCH  24  25
ENDBRANCH  14  24
BRANCH  19  32
HETATM   32  C   UNL     3     -11.395  16.090  64.181  1.00  0.00     0.028 C  
BRANCH  32  33
HETATM   33  C   UNL     3     -11.470  14.656  64.619  1.00  0.00    -0.389 A  
HETATM   34  C   UNL     3     -11.735  11.888  65.037  1.00  0.00    -0.253 A  
HETATM   35  C   UNL     3     -10.430  13.787  64.291  1.00  0.00    -0.088 A  
HETATM   36  I   UNL     3      -9.066  11.142  63.813  1.00  0.00     0.095 I  
HETATM   37  C   UNL     3     -12.754  12.749  65.434  1.00  0.00    -0.234 A  
HETATM   38  C   UNL     3     -10.572  12.412  64.474  1.00  0.00    -0.322 A  
HETATM   39  C   UNL     3     -12.629  14.125  65.221  1.00  0.00    -0.460 A  
ENDBRANCH  32  33
ENDBRANCH  19  32
TORSDOF 4
ENDMDL
MODEL      205
REMARK 921   NORMALIZED FREE ENERGY PREDICTED BY IDOCK:   -2.36 KCAL/MOL
REMARK 922        TOTAL FREE ENERGY PREDICTED BY IDOCK:   -3.56 KCAL/MOL
REMARK 923 INTER-LIGAND FREE ENERGY PREDICTED BY IDOCK:   -5.17 KCAL/MOL
REMARK 924 INTRA-LIGAND FREE ENERGY PREDICTED BY IDOCK:    1.61 KCAL/MOL
REMARK 927      BINDING AFFINITY PREDICTED BY RF-SCORE:    0.00 PKD
ROOT
HETATM    1  O   UNL     1      -7.288  14.027  70.556  1.00  0.00     0.736 OA 
HETATM    2  S   UNL     1      -6.072  13.443  69.678  1.00  0.00    -0.123 S  
HETATM    3  N   UNL     2     -10.609  15.419  69.451  1.00  0.00    -0.235 NA 
HETATM    4  H1  UNL     2     -10.436  14.723  70.177  1.00  0.00     0.000 HD 
HETATM    5  H2  UNL     2     -10.786  16.398  69.677  1.00  0.00     0.000 HD 
HETATM    6  C   UNL     2     -10.592  14.981  68.182  1.00  0.00    -0.248 C  
HETATM    7  N   UNL     3      -7.734  16.384  68.949  1.00  0.00    -0.219 NA 
HETATM    8  O   UNL     1      -5.139  14.742  69.567  1.00  0.00    -0.089 OA 
HETATM    9  O   UNL     1      -5.405  12.433  70.466  1.00  0.00    -0.114 OA 
HETATM   10  O   UNL     1      -6.595  13.177  68.366  1.00  0.00    -0.076 OA 
HETATM   11  C   UNL     3      -7.290  16.336  67.674  1.00  0.00    -0.140 C  
HETATM   12  H1  UNL     3      -7.162  16.705  69.730  1.00  0.00     0.000 HD 
HETATM   13  H2  UNL     3      -8.690  16.084  69.140  1.00  0.00     0.000 HD 
HETATM   14  N   UNL     2     -10.118  13.758  67.916  1.00  0.00    -0.240 NA 
HETATM   15  N   UNL     2     -10.810  15.856  67.267  1.00  0.00    -0.309 NA 
HETATM   16  H2  UNL     2     -10.988  16.835  67.494  1.00  0.00     0.000 HD 
HETATM   17  H   UNL     2      -9.946  13.564  66.929  1.00  0.00     0.000 HD 
HETATM   18  N   UNL     3      -8.007  15.934  66.694  1.00  0.00    -0.252 NA 
HETATM   19  N   UNL     3      -5.986  16.669  67.534  1.00  0.00    -0.138 NA 
HETATM   20  H2  UNL     3      -8.963  15.634  66.885  1.00  0.00     0.000 HD 
HETATM   21  H1  UNL     2     -10.798  15.523  66.303  1.00  0.00     0.000 HD 
HETATM   22  H1  UNL     3      -7.671  15.897  65.732  1.00  0.00     0.000 HD 
HETATM   23  H   UNL     3      -5.321  16.588  68.303  1.00  0.00     0.000 HD 
ENDROOT
BRANCH  14  24
HETATM   24  C   UNL     2      -9.812  12.666  68.822  1.00  0.00     0.029 C  
BRANCH  24  25
HETATM   25  C   UNL     2     -11.018  12.344  69.688  1.00  0.00     0.115 A  
HETATM   26  I   UNL     2     -14.080  14.572  71.851  1.00  0.00    -0.646 I  
HETATM   27  C   UNL     2     -11.362  11.011  69.972  1.00  0.00    -0.358 A  
HETATM   28  C   UNL     2     -11.821  13.372  70.220  1.00  0.00    -0.316 A  
HETATM   29  C   UNL     2     -12.427  10.707  70.816  1.00  0.00    -0.480 A  
HETATM   30  C   UNL     2     -12.902  13.058  71.046  1.00  0.00    -0.198 A  
HETATM   31  C   UNL     2     -13.201  11.730  71.355  1.00  0.00    -0.193 A  
ENDBRANCH  24  25
ENDBRANCH  14  24
BRANCH  19  32
HETATM   32  C   UNL     3      -5.593  17.148  66.216  1.00  0.00    -0.033 C  
BRANCH  32  33
HETATM   33  C   UNL     3      -5.936  18.594  66.000  1.00  0.00    -0.208 A  
HETATM   34  C   UNL     3      -6.155  21.363  65.559  1.00  0.00    -0.006 A  
HETATM   35  C   UNL     3      -5.948  19.106  64.704  1.00  0.00    -0.308 A  
HETATM   36  I   UNL     3      -5.872  21.210  62.547  1.00  0.00    -0.318 I  
HETATM   37  C   UNL     3      -6.214  20.861  66.857  1.00  0.00    -0.341 A  
HETATM   38  C   UNL     3      -6.030  20.481  64.487  1.00  0.00    -0.275 A  
HETATM   39  C   UNL     3      -6.098  19.486  67.081  1.00  0.00    -0.192 A  
ENDBRANCH  32  33
ENDBRANCH  19  32
TORSDOF 4
ENDMDL
MODEL      206
REMARK 921   NORMALIZED FREE ENERGY PREDICTED BY IDOCK:   -2.30 KCAL/MOL
REMARK 922        TOTAL FREE ENERGY PREDICTED BY IDOCK:   -3.49 KCAL/MOL
REMARK 923 INTER-LIGAND FREE ENERGY PREDICTED BY IDOCK:   -2.93 KCAL/MOL
REMARK 924 INTRA-LIGAND FREE ENERGY PREDICTED BY IDOCK:   -0.56 KCAL/MOL
REMARK 927      BINDING AFFINITY PREDICTED BY RF-SCORE:    0.00 PKD
ROOT
HETATM    1  O   UNL     1     -12.185  13.198  67.463  1.00  0.00    -0.282 OA 
HETATM    2  S   UNL     1     -11.841  12.824  65.935  1.00  0.00    -0.446 S  
HETATM    3  N   UNL     2      -9.937  14.484  70.197  1.00  0.00    -0.043 NA 
HETATM    4  H1  UNL     2     -10.847  14.849  69.916  1.00  0.00     0.000 HD 
HETATM    5  H2  UNL     2      -9.830  13.882  71.014  1.00  0.00     0.000 HD 
HETATM    6  C   UNL     2      -8.886  14.834  69.438  1.00  0.00     0.043 C  
HETATM    7  N   UNL     3      -9.929  11.834  68.639  1.00  0.00    -0.310 NA 
HETATM    8  O   UNL     1     -11.613  11.242  66.064  1.00  0.00    -0.170 OA 
HETATM    9  O   UNL     1     -13.020  13.080  65.142  1.00  0.00    -0.729 OA 
HETATM   10  O   UNL     1     -10.567  13.419  65.638  1.00  0.00    -0.272 OA 
HETATM   11  C   UNL     3      -8.872  11.608  67.827  1.00  0.00    -0.159 C  
HETATM   12  H1  UNL     3     -10.708  11.183  68.739  1.00  0.00     0.000 HD 
HETATM   13  H2  UNL     3      -9.948  12.699  69.179  1.00  0.00     0.000 HD 
HETATM   14  N   UNL     2      -9.099  15.413  68.250  1.00  0.00    -0.184 NA 
HETATM   15  N   UNL     2      -7.741  14.374  69.792  1.00  0.00    -0.363 NA 
HETATM   16  H2  UNL     2      -7.634  13.773  70.609  1.00  0.00     0.000 HD 
HETATM   17  H   UNL     2      -8.282  15.470  67.642  1.00  0.00     0.000 HD 
HETATM   18  N   UNL     3      -7.896  12.424  67.702  1.00  0.00    -0.150 NA 
HETATM   19  N   UNL     3      -8.980  10.481  67.088  1.00  0.00    -0.140 NA 
HETATM   20  H2  UNL     3      -7.914  13.289  68.242  1.00  0.00     0.000 HD 
HETATM   21  H1  UNL     2      -6.942  14.640  69.215  1.00  0.00     0.000 HD 
HETATM   22  H1  UNL     3      -7.098  12.254  67.089  1.00  0.00     0.000 HD 
HETATM   23  H   UNL     3      -9.882  10.060  66.868  1.00  0.00     0.000 HD 
ENDROOT
BRANCH  14  24
HETATM   24  C   UNL     2     -10.320  15.972  67.698  1.00  0.00    -0.284 C  
BRANCH  24  25
HETATM   25  C   UNL     2     -10.292  17.488  67.780  1.00  0.00    -0.367 A  
HETATM   26  I   UNL     2     -10.579  20.838  65.002  1.00  0.00     3.615 I  
HETATM   27  C   UNL     2     -10.120  18.138  69.015  1.00  0.00    -0.290 A  
HETATM   28  C   UNL     2     -10.443  18.276  66.622  1.00  0.00    -0.382 A  
HETATM   29  C   UNL     2     -10.030  19.525  69.091  1.00  0.00    -0.429 A  
HETATM   30  C   UNL     2     -10.375  19.668  66.711  1.00  0.00    -0.476 A  
HETATM   31  C   UNL     2     -10.158  20.295  67.939  1.00  0.00    -0.476 A  
ENDBRANCH  24  25
ENDBRANCH  14  24
BRANCH  19  32
HETATM   32  C   UNL     3      -7.724   9.906  66.624  1.00  0.00    -0.106 C  
BRANCH  32  33
HETATM   33  C   UNL     3      -7.376   8.628  67.333  1.00  0.00    -0.089 A  
HETATM   34  C   UNL     3      -7.101   6.090  68.511  1.00  0.00    -0.082 A  
HETATM   35  C   UNL     3      -6.867   7.558  66.599  1.00  0.00    -0.066 A  
HETATM   36  I   UNL     3      -6.153   4.692  65.997  1.00  0.00    -0.029 I  
HETATM   37  C   UNL     3      -7.545   7.165  69.278  1.00  0.00    -0.102 A  
HETATM   38  C   UNL     3      -6.755   6.294  67.177  1.00  0.00    -0.060 A  
HETATM   39  C   UNL     3      -7.691   8.426  68.693  1.00  0.00    -0.107 A  
ENDBRANCH  32  33
ENDBRANCH  19  32
TORSDOF 4
ENDMDL
MODEL      207
REMARK 921   NORMALIZED FREE ENERGY PREDICTED BY IDOCK:   -2.16 KCAL/MOL
REMARK 922        TOTAL FREE ENERGY PREDICTED BY IDOCK:   -3.31 KCAL/MOL
REMARK 923 INTER-LIGAND FREE ENERGY PREDICTED BY IDOCK:   -5.28 KCAL/MOL
REMARK 924 INTRA-LIGAND FREE ENERGY PREDICTED BY IDOCK:    1.96 KCAL/MOL
REMARK 927      BINDING AFFINITY PREDICTED BY RF-SCORE:    0.00 PKD
ROOT
HETATM    1  O   UNL     1     -10.809  13.701  67.399  1.00  0.00    -0.268 OA 
HETATM    2  S   UNL     1     -11.019  12.879  66.031  1.00  0.00    -0.282 S  
HETATM    3  N   UNL     2      -7.679  15.209  68.851  1.00  0.00    -0.146 NA 
HETATM    4  H1  UNL     2      -8.589  15.654  68.738  1.00  0.00     0.000 HD 
HETATM    5  H2  UNL     2      -7.372  14.835  69.750  1.00  0.00     0.000 HD 
HETATM    6  C   UNL     2      -6.902  15.139  67.758  1.00  0.00    -0.170 C  
HETATM    7  N   UNL     3      -8.441  12.291  68.256  1.00  0.00    -0.176 NA 
HETATM    8  O   UNL     1     -10.920  11.374  66.575  1.00  0.00    -0.282 OA 
HETATM    9  O   UNL     1     -12.360  13.137  65.562  1.00  0.00    -0.438 OA 
HETATM   10  O   UNL     1      -9.859  13.119  65.218  1.00  0.00    -0.196 OA 
HETATM   11  C   UNL     3      -7.733  11.661  67.292  1.00  0.00    -0.154 C  
HETATM   12  H1  UNL     3      -9.206  11.851  68.768  1.00  0.00     0.000 HD 
HETATM   13  H2  UNL     3      -8.197  13.255  68.484  1.00  0.00     0.000 HD 
HETATM   14  N   UNL     2      -7.431  15.413  66.559  1.00  0.00    -0.196 NA 
HETATM   15  N   UNL     2      -5.756  14.578  67.900  1.00  0.00    -0.228 NA 
HETATM   16  H2  UNL     2      -5.449  14.205  68.799  1.00  0.00     0.000 HD 
HETATM   17  H   UNL     2      -6.854  15.151  65.760  1.00  0.00     0.000 HD 
HETATM   18  N   UNL     3      -6.774  12.212  66.651  1.00  0.00    -0.392 NA 
HETATM   19  N   UNL     3      -8.186  10.421  67.001  1.00  0.00    -0.122 NA 
HETATM   20  H2  UNL     3      -6.530  13.176  66.878  1.00  0.00     0.000 HD 
HETATM   21  H1  UNL     2      -5.166  14.525  67.069  1.00  0.00     0.000 HD 
HETATM   22  H1  UNL     3      -6.240  11.738  65.923  1.00  0.00     0.000 HD 
HETATM   23  H   UNL     3      -9.149  10.138  67.186  1.00  0.00     0.000 HD 
ENDROOT
BRANCH  14  24
HETATM   24  C   UNL     2      -8.703  16.029  66.227  1.00  0.00    -0.336 C  
BRANCH  24  25
HETATM   25  C   UNL     2      -9.247  16.795  67.421  1.00  0.00    -0.220 A  
HETATM   26  I   UNL     2     -11.800  15.956  70.856  1.00  0.00    -0.307 I  
HETATM   27  C   UNL     2      -8.947  18.157  67.597  1.00  0.00    -0.260 A  
HETATM   28  C   UNL     2     -10.059  16.157  68.378  1.00  0.00    -0.236 A  
HETATM   29  C   UNL     2      -9.492  18.883  68.653  1.00  0.00    -0.427 A  
HETATM   30  C   UNL     2     -10.583  16.887  69.448  1.00  0.00    -0.292 A  
HETATM   31  C   UNL     2     -10.312  18.250  69.582  1.00  0.00     0.583 A  
ENDBRANCH  24  25
ENDBRANCH  14  24
BRANCH  19  32
HETATM   32  C   UNL     3      -7.213   9.515  66.406  1.00  0.00    -0.089 C  
BRANCH  32  33
HETATM   33  C   UNL     3      -7.734   8.113  66.272  1.00  0.00    -0.094 A  
HETATM   34  C   UNL     3      -8.753   5.578  65.603  1.00  0.00    -0.153 A  
HETATM   35  C   UNL     3      -6.889   7.113  65.792  1.00  0.00    -0.056 A  
HETATM   36  I   UNL     3      -6.133   4.466  64.566  1.00  0.00    -0.027 I  
HETATM   37  C   UNL     3      -9.598   6.543  66.147  1.00  0.00    -0.028 A  
HETATM   38  C   UNL     3      -7.399   5.865  65.437  1.00  0.00    -0.076 A  
HETATM   39  C   UNL     3      -9.097   7.806  66.473  1.00  0.00    -0.208 A  
ENDBRANCH  32  33
ENDBRANCH  19  32
TORSDOF 4
ENDMDL
MODEL      208
REMARK 921   NORMALIZED FREE ENERGY PREDICTED BY IDOCK:   -2.13 KCAL/MOL
REMARK 922        TOTAL FREE ENERGY PREDICTED BY IDOCK:   -3.28 KCAL/MOL
REMARK 923 INTER-LIGAND FREE ENERGY PREDICTED BY IDOCK:   -3.69 KCAL/MOL
REMARK 924 INTRA-LIGAND FREE ENERGY PREDICTED BY IDOCK:    0.42 KCAL/MOL
REMARK 927      BINDING AFFINITY PREDICTED BY RF-SCORE:    0.00 PKD
ROOT
HETATM    1  O   UNL     1      -8.711   9.776  67.892  1.00  0.00    -0.125 OA 
HETATM    2  S   UNL     1     -10.281   9.903  68.225  1.00  0.00    -0.186 S  
HETATM    3  N   UNL     2      -6.539   6.710  67.640  1.00  0.00    -0.052 NA 
HETATM    4  H1  UNL     2      -6.604   7.483  66.977  1.00  0.00     0.000 HD 
HETATM    5  H2  UNL     2      -5.773   6.642  68.311  1.00  0.00     0.000 HD 
HETATM    6  C   UNL     2      -7.511   5.785  67.584  1.00  0.00    -0.078 C  
HETATM    7  N   UNL     3      -8.087   7.912  70.007  1.00  0.00    -0.115 NA 
HETATM    8  O   UNL     1     -10.224  10.195  69.801  1.00  0.00    -0.234 OA 
HETATM    9  O   UNL     1     -10.785  11.066  67.535  1.00  0.00    -0.211 OA 
HETATM   10  O   UNL     1     -10.851   8.595  68.051  1.00  0.00    -0.122 OA 
HETATM   11  C   UNL     3      -9.119   7.186  70.492  1.00  0.00    -0.155 C  
HETATM   12  H1  UNL     3      -7.822   8.825  70.377  1.00  0.00     0.000 HD 
HETATM   13  H2  UNL     3      -7.548   7.528  69.231  1.00  0.00     0.000 HD 
HETATM   14  N   UNL     2      -8.614   6.035  66.868  1.00  0.00    -0.108 NA 
HETATM   15  N   UNL     2      -7.429   4.812  68.418  1.00  0.00    -0.069 NA 
HETATM   16  H2  UNL     2      -6.663   4.744  69.089  1.00  0.00     0.000 HD 
HETATM   17  H   UNL     2      -9.390   5.392  67.027  1.00  0.00     0.000 HD 
HETATM   18  N   UNL     3      -9.452   6.042  70.028  1.00  0.00    -0.155 NA 
HETATM   19  N   UNL     3      -9.827   7.815  71.457  1.00  0.00    -0.166 NA 
HETATM   20  H2  UNL     3      -8.912   5.657  69.253  1.00  0.00     0.000 HD 
HETATM   21  H1  UNL     2      -8.168   4.109  68.376  1.00  0.00     0.000 HD 
HETATM   22  H1  UNL     3     -10.230   5.493  70.394  1.00  0.00     0.000 HD 
HETATM   23  H   UNL     3      -9.843   8.831  71.543  1.00  0.00     0.000 HD 
ENDROOT
BRANCH  14  24
HETATM   24  C   UNL     2      -8.871   7.086  65.901  1.00  0.00    -0.103 C  
BRANCH  24  25
HETATM   25  C   UNL     2      -7.829   7.054  64.796  1.00  0.00    -0.126 A  
HETATM   26  I   UNL     2      -5.390   9.947  62.628  1.00  0.00    -0.109 I  
HETATM   27  C   UNL     2      -7.452   5.839  64.199  1.00  0.00    -0.072 A  
HETATM   28  C   UNL     2      -7.214   8.240  64.350  1.00  0.00    -0.088 A  
HETATM   29  C   UNL     2      -6.545   5.807  63.144  1.00  0.00    -0.032 A  
HETATM   30  C   UNL     2      -6.287   8.197  63.306  1.00  0.00    -0.080 A  
HETATM   31  C   UNL     2      -5.959   6.986  62.694  1.00  0.00    -0.041 A  
ENDBRANCH  24  25
ENDBRANCH  14  24
BRANCH  19  32
HETATM   32  C   UNL     3     -10.568   6.949  72.365  1.00  0.00    -0.211 C  
BRANCH  32  33
HETATM   33  C   UNL     3      -9.735   5.817  72.894  1.00  0.00    -0.167 A  
HETATM   34  C   UNL     3      -8.437   3.707  74.224  1.00  0.00    -0.088 A  
HETATM   35  C   UNL     3     -10.210   4.511  72.782  1.00  0.00    -0.233 A  
HETATM   36  I   UNL     3     -10.423   1.571  73.407  1.00  0.00    -0.241 I  
HETATM   37  C   UNL     3      -7.910   4.995  74.289  1.00  0.00    -0.097 A  
HETATM   38  C   UNL     3      -9.581   3.470  73.463  1.00  0.00    -0.106 A  
HETATM   39  C   UNL     3      -8.557   6.048  73.635  1.00  0.00    -0.125 A  
ENDBRANCH  32  33
ENDBRANCH  19  32
TORSDOF 4
ENDMDL
MODEL      209
REMARK 921   NORMALIZED FREE ENERGY PREDICTED BY IDOCK:   -1.98 KCAL/MOL
REMARK 922        TOTAL FREE ENERGY PREDICTED BY IDOCK:   -3.09 KCAL/MOL
REMARK 923 INTER-LIGAND FREE ENERGY PREDICTED BY IDOCK:   -3.49 KCAL/MOL
REMARK 924 INTRA-LIGAND FREE ENERGY PREDICTED BY IDOCK:    0.40 KCAL/MOL
REMARK 927      BINDING AFFINITY PREDICTED BY RF-SCORE:    0.00 PKD
ROOT
HETATM    1  O   UNL     1      -8.760   7.737  67.584  1.00  0.00    -0.125 OA 
HETATM    2  S   UNL     1     -10.283   7.987  67.123  1.00  0.00    -0.318 S  
HETATM    3  N   UNL     2      -5.884  10.157  67.821  1.00  0.00    -0.042 NA 
HETATM    4  H1  UNL     2      -6.194   9.487  68.525  1.00  0.00     0.000 HD 
HETATM    5  H2  UNL     2      -5.084   9.968  67.216  1.00  0.00     0.000 HD 
HETATM    6  C   UNL     2      -6.583  11.300  67.729  1.00  0.00    -0.068 C  
HETATM    7  N   UNL     3      -7.530   9.188  65.412  1.00  0.00    -0.092 NA 
HETATM    8  O   UNL     1     -10.198   7.553  65.582  1.00  0.00     1.010 OA 
HETATM    9  O   UNL     1     -11.119   7.055  67.843  1.00  0.00    -0.160 OA 
HETATM   10  O   UNL     1     -10.501   9.406  67.159  1.00  0.00    -0.249 OA 
HETATM   11  C   UNL     3      -8.301  10.109  64.791  1.00  0.00    -0.165 C  
HETATM   12  H1  UNL     3      -7.489   8.209  65.128  1.00  0.00     0.000 HD 
HETATM   13  H2  UNL     3      -6.962   9.487  66.205  1.00  0.00     0.000 HD 
HETATM   14  N   UNL     2      -7.758  11.403  68.360  1.00  0.00    -0.120 NA 
HETATM   15  N   UNL     2      -6.193  12.144  66.842  1.00  0.00    -0.392 NA 
HETATM   16  H2  UNL     2      -5.393  11.955  66.238  1.00  0.00     0.000 HD 
HETATM   17  H   UNL     2      -8.326  12.207  68.092  1.00  0.00     0.000 HD 
HETATM   18  N   UNL     3      -8.353  11.336  65.147  1.00  0.00    -0.363 NA 
HETATM   19  N   UNL     3      -9.082   9.600  63.812  1.00  0.00    -0.365 NA 
HETATM   20  H2  UNL     3      -7.785  11.636  65.939  1.00  0.00     0.000 HD 
HETATM   21  H1  UNL     2      -6.723  13.012  66.773  1.00  0.00     0.000 HD 
HETATM   22  H1  UNL     3      -8.935  12.031  64.679  1.00  0.00     0.000 HD 
HETATM   23  H   UNL     3      -9.357   8.617  63.793  1.00  0.00     0.000 HD 
ENDROOT
BRANCH  14  24
HETATM   24  C   UNL     2      -8.346  10.542  69.370  1.00  0.00    -0.106 C  
BRANCH  24  25
HETATM   25  C   UNL     2      -9.761  10.991  69.690  1.00  0.00     0.333 A  
HETATM   26  I   UNL     2     -12.175  14.578  69.121  1.00  0.00     0.074 I  
HETATM   27  C   UNL     2     -10.651  10.135  70.362  1.00  0.00    -0.287 A  
HETATM   28  C   UNL     2     -10.214  12.271  69.316  1.00  0.00     0.321 A  
HETATM   29  C   UNL     2     -11.928  10.561  70.716  1.00  0.00    -0.472 A  
HETATM   30  C   UNL     2     -11.505  12.681  69.653  1.00  0.00    -0.182 A  
HETATM   31  C   UNL     2     -12.360  11.835  70.362  1.00  0.00    -0.362 A  
ENDBRANCH  24  25
ENDBRANCH  14  24
BRANCH  19  32
HETATM   32  C   UNL     3      -9.508  10.543  62.787  1.00  0.00    -0.325 C  
BRANCH  32  33
HETATM   33  C   UNL     3     -10.597  11.461  63.261  1.00  0.00    -0.374 A  
HETATM   34  C   UNL     3     -12.530  13.049  64.546  1.00  0.00    -0.427 A  
HETATM   35  C   UNL     3     -10.258  12.711  63.778  1.00  0.00    -0.281 A  
HETATM   36  I   UNL     3     -10.622  15.263  65.340  1.00  0.00    -0.452 I  
HETATM   37  C   UNL     3     -12.900  11.834  63.974  1.00  0.00    -0.181 A  
HETATM   38  C   UNL     3     -11.211  13.486  64.437  1.00  0.00    -0.379 A  
HETATM   39  C   UNL     3     -11.940  11.039  63.342  1.00  0.00     1.062 A  
ENDBRANCH  32  33
ENDBRANCH  19  32
TORSDOF 4
ENDMDL
MODEL      210
REMARK 921   NORMALIZED FREE ENERGY PREDICTED BY IDOCK:    0.04 KCAL/MOL
REMARK 922        TOTAL FREE ENERGY PREDICTED BY IDOCK:   -0.60 KCAL/MOL
REMARK 923 INTER-LIGAND FREE ENERGY PREDICTED BY IDOCK:   -4.03 KCAL/MOL
REMARK 924 INTRA-LIGAND FREE ENERGY PREDICTED BY IDOCK:    3.44 KCAL/MOL
REMARK 927      BINDING AFFINITY PREDICTED BY RF-SCORE:    0.00 PKD
ROOT
HETATM    1  O   UNL     1     -11.934  18.026  66.798  1.00  0.00     2.274 OA 
HETATM    2  S   UNL     1     -10.747  18.174  65.719  1.00  0.00     0.142 S  
HETATM    3  N   UNL     2     -12.110  15.922  69.916  1.00  0.00    -0.292 NA 
HETATM    4  H1  UNL     2     -12.340  16.911  69.819  1.00  0.00     0.000 HD 
HETATM    5  H2  UNL     2     -12.835  15.203  69.935  1.00  0.00     0.000 HD 
HETATM    6  C   UNL     2     -10.808  15.613  70.017  1.00  0.00    -0.330 C  
HETATM    7  N   UNL     3     -11.863  15.144  66.952  1.00  0.00    -0.104 NA 
HETATM    8  O   UNL     1     -11.227  17.123  64.608  1.00  0.00    -1.003 OA 
HETATM    9  O   UNL     1     -10.807  19.512  65.179  1.00  0.00    -0.409 OA 
HETATM   10  O   UNL     1      -9.560  17.642  66.330  1.00  0.00    -0.357 OA 
HETATM   11  C   UNL     3     -10.710  14.549  66.573  1.00  0.00    -0.312 C  
HETATM   12  H1  UNL     3     -12.625  15.352  66.307  1.00  0.00     0.000 HD 
HETATM   13  H2  UNL     3     -11.977  15.398  67.934  1.00  0.00     0.000 HD 
HETATM   14  N   UNL     2      -9.889  16.546  69.743  1.00  0.00     0.016 NA 
HETATM   15  N   UNL     2     -10.519  14.367  70.140  1.00  0.00    -0.269 NA 
HETATM   16  H2  UNL     2     -11.243  13.649  70.160  1.00  0.00     0.000 HD 
HETATM   17  H   UNL     2      -8.934  16.199  69.643  1.00  0.00     0.000 HD 
HETATM   18  N   UNL     3      -9.755  14.289  67.382  1.00  0.00    -0.231 NA 
HETATM   19  N   UNL     3     -10.617  14.332  65.242  1.00  0.00    -0.356 NA 
HETATM   20  H2  UNL     3      -9.868  14.542  68.364  1.00  0.00     0.000 HD 
HETATM   21  H1  UNL     2      -9.529  14.132  70.217  1.00  0.00     0.000 HD 
HETATM   22  H1  UNL     3      -8.884  13.840  67.097  1.00  0.00     0.000 HD 
HETATM   23  H   UNL     3     -11.148  14.880  64.565  1.00  0.00     0.000 HD 
ENDROOT
BRANCH  14  24
HETATM   24  C   UNL     2     -10.047  17.978  69.566  1.00  0.00     0.195 C  
BRANCH  24  25
HETATM   25  C   UNL     2      -8.944  18.526  68.677  1.00  0.00    -0.323 A  
HETATM   26  I   UNL     2      -5.180  17.089  67.009  1.00  0.00    -0.120 I  
HETATM   27  C   UNL     2      -9.003  19.844  68.191  1.00  0.00    -0.330 A  
HETATM   28  C   UNL     2      -7.843  17.726  68.316  1.00  0.00    -0.279 A  
HETATM   29  C   UNL     2      -7.967  20.376  67.428  1.00  0.00    -0.361 A  
HETATM   30  C   UNL     2      -6.819  18.260  67.530  1.00  0.00    -0.198 A  
HETATM   31  C   UNL     2      -6.872  19.585  67.095  1.00  0.00    -0.219 A  
ENDBRANCH  24  25
ENDBRANCH  14  24
BRANCH  19  32
HETATM   32  C   UNL     3      -9.710  13.266  64.836  1.00  0.00     0.128 C  
BRANCH  32  33
HETATM   33  C   UNL     3     -10.127  11.922  65.359  1.00  0.00    -0.285 A  
HETATM   34  C   UNL     3     -10.502   9.372  66.483  1.00  0.00    -0.199 A  
HETATM   35  C   UNL     3     -10.436  11.782  66.711  1.00  0.00    -0.260 A  
HETATM   36  I   UNL     3     -10.887  10.349  69.324  1.00  0.00    -0.351 I  
HETATM   37  C   UNL     3     -10.262   9.498  65.116  1.00  0.00     0.478 A  
HETATM   38  C   UNL     3     -10.597  10.516  67.273  1.00  0.00    -0.264 A  
HETATM   39  C   UNL     3     -10.068  10.764  64.556  1.00  0.00    -0.415 A  
ENDBRANCH  32  33
ENDBRANCH  19  32
TORSDOF 4
ENDMDL
MODEL      211
REMARK 921   NORMALIZED FREE ENERGY PREDICTED BY IDOCK:    0.51 KCAL/MOL
REMARK 922        TOTAL FREE ENERGY PREDICTED BY IDOCK:   -0.02 KCAL/MOL
REMARK 923 INTER-LIGAND FREE ENERGY PREDICTED BY IDOCK:    0.78 KCAL/MOL
REMARK 924 INTRA-LIGAND FREE ENERGY PREDICTED BY IDOCK:   -0.80 KCAL/MOL
REMARK 927      BINDING AFFINITY PREDICTED BY RF-SCORE:    0.00 PKD
ROOT
HETATM    1  O   UNL     1     -11.835  13.763  65.422  1.00  0.00    -0.332 OA 
HETATM    2  S   UNL     1     -11.929  15.203  66.136  1.00  0.00     0.329 S  
HETATM    3  N   UNL     2      -9.755  10.755  66.323  1.00  0.00    -0.197 NA 
HETATM    4  H1  UNL     2     -10.753  10.782  66.111  1.00  0.00     0.000 HD 
HETATM    5  H2  UNL     2      -9.067  10.458  65.631  1.00  0.00     0.000 HD 
HETATM    6  C   UNL     2      -9.393  11.131  67.560  1.00  0.00    -0.168 C  
HETATM    7  N   UNL     3      -8.954  13.588  65.439  1.00  0.00     0.410 NA 
HETATM    8  O   UNL     1     -10.893  16.041  65.244  1.00  0.00    -0.384 OA 
HETATM    9  O   UNL     1     -13.266  15.710  65.931  1.00  0.00     2.105 OA 
HETATM   10  O   UNL     1     -11.351  15.059  67.444  1.00  0.00    -0.329 OA 
HETATM   11  C   UNL     3      -8.310  14.351  66.351  1.00  0.00     0.543 C  
HETATM   12  H1  UNL     3      -9.190  13.915  64.502  1.00  0.00     0.000 HD 
HETATM   13  H2  UNL     3      -9.217  12.639  65.703  1.00  0.00     0.000 HD 
HETATM   14  N   UNL     2     -10.286  11.741  68.348  1.00  0.00    -0.208 NA 
HETATM   15  N   UNL     2      -8.138  11.098  67.828  1.00  0.00    -0.115 NA 
HETATM   16  H2  UNL     2      -7.450  10.801  67.135  1.00  0.00     0.000 HD 
HETATM   17  H   UNL     2      -9.900  12.177  69.186  1.00  0.00     0.000 HD 
HETATM   18  N   UNL     3      -8.014  13.943  67.526  1.00  0.00    -0.169 NA 
HETATM   19  N   UNL     3      -8.083  15.620  65.942  1.00  0.00     0.302 NA 
HETATM   20  H2  UNL     3      -8.277  12.993  67.789  1.00  0.00     0.000 HD 
HETATM   21  H1  UNL     2      -7.862  11.384  68.768  1.00  0.00     0.000 HD 
HETATM   22  H1  UNL     3      -7.529  14.518  68.214  1.00  0.00     0.000 HD 
HETATM   23  H   UNL     3      -8.649  16.067  65.221  1.00  0.00     0.000 HD 
ENDROOT
BRANCH  14  24
HETATM   24  C   UNL     2     -11.723  11.876  68.189  1.00  0.00    -0.320 C  
BRANCH  24  25
HETATM   25  C   UNL     2     -12.410  11.848  69.543  1.00  0.00    -0.082 A  
HETATM   26  I   UNL     2     -13.566   8.833  72.474  1.00  0.00    -0.107 I  
HETATM   27  C   UNL     2     -12.869  13.036  70.139  1.00  0.00     0.268 A  
HETATM   28  C   UNL     2     -12.598  10.635  70.233  1.00  0.00    -0.333 A  
HETATM   29  C   UNL     2     -13.557  13.014  71.350  1.00  0.00     0.094 A  
HETATM   30  C   UNL     2     -13.268  10.624  71.458  1.00  0.00    -0.360 A  
HETATM   31  C   UNL     2     -13.758  11.808  72.014  1.00  0.00     0.022 A  
ENDBRANCH  24  25
ENDBRANCH  14  24
BRANCH  19  32
HETATM   32  C   UNL     3      -6.979  16.308  66.597  1.00  0.00    -0.021 C  
BRANCH  32  33
HETATM   33  C   UNL     3      -7.441  17.425  67.489  1.00  0.00    -0.197 A  
HETATM   34  C   UNL     3      -8.029  19.761  68.939  1.00  0.00    -0.206 A  
HETATM   35  C   UNL     3      -8.372  18.343  67.006  1.00  0.00    -0.257 A  
HETATM   36  I   UNL     3      -9.908  20.932  66.872  1.00  0.00     1.080 I  
HETATM   37  C   UNL     3      -7.149  18.820  69.469  1.00  0.00    -0.040 A  
HETATM   38  C   UNL     3      -8.644  19.514  67.713  1.00  0.00    -0.315 A  
HETATM   39  C   UNL     3      -6.849  17.661  68.747  1.00  0.00    -0.235 A  
ENDBRANCH  32  33
ENDBRANCH  19  32
TORSDOF 4
ENDMDL
MODEL      212
REMARK 921   NORMALIZED FREE ENERGY PREDICTED BY IDOCK:    1.14 KCAL/MOL
REMARK 922        TOTAL FREE ENERGY PREDICTED BY IDOCK:    0.76 KCAL/MOL
REMARK 923 INTER-LIGAND FREE ENERGY PREDICTED BY IDOCK:   -3.96 KCAL/MOL
REMARK 924 INTRA-LIGAND FREE ENERGY PREDICTED BY IDOCK:    4.72 KCAL/MOL
REMARK 927      BINDING AFFINITY PREDICTED BY RF-SCORE:    0.00 PKD
ROOT
HETATM    1  O   UNL     1      -9.315  11.875  68.822  1.00  0.00    -0.111 OA 
HETATM    2  S   UNL     1     -10.621  11.053  68.360  1.00  0.00    -0.209 S  
HETATM    3  N   UNL     2      -5.681  10.896  68.703  1.00  0.00    -0.040 NA 
HETATM    4  H1  UNL     2      -6.101  11.769  68.383  1.00  0.00     0.000 HD 
HETATM    5  H2  UNL     2      -5.201  10.830  69.602  1.00  0.00     0.000 HD 
HETATM    6  C   UNL     2      -5.790   9.839  67.883  1.00  0.00    -0.040 C  
HETATM    7  N   UNL     3      -8.057   9.699  70.242  1.00  0.00    -0.179 NA 
HETATM    8  O   UNL     1     -11.071  10.407  69.757  1.00  0.00    -0.254 OA 
HETATM    9  O   UNL     1     -11.613  12.008  67.926  1.00  0.00    -0.308 OA 
HETATM   10  O   UNL     1     -10.162   9.982  67.519  1.00  0.00    -0.186 OA 
HETATM   11  C   UNL     3      -8.442   8.451  69.894  1.00  0.00    -0.126 C  
HETATM   12  H1  UNL     3      -8.523  10.248  70.965  1.00  0.00     0.000 HD 
HETATM   13  H2  UNL     3      -7.261  10.114  69.757  1.00  0.00     0.000 HD 
HETATM   14  N   UNL     2      -6.628   9.899  66.842  1.00  0.00    -0.066 NA 
HETATM   15  N   UNL     2      -5.260   8.740  68.286  1.00  0.00    -0.034 NA 
HETATM   16  H2  UNL     2      -4.781   8.674  69.185  1.00  0.00     0.000 HD 
HETATM   17  H   UNL     2      -6.814   9.008  66.382  1.00  0.00     0.000 HD 
HETATM   18  N   UNL     3      -7.858   7.763  68.988  1.00  0.00    -0.116 NA 
HETATM   19  N   UNL     3      -9.557   8.024  70.528  1.00  0.00    -0.170 NA 
HETATM   20  H2  UNL     3      -7.062   8.177  68.503  1.00  0.00     0.000 HD 
HETATM   21  H1  UNL     2      -5.343   7.936  67.663  1.00  0.00     0.000 HD 
HETATM   22  H1  UNL     3      -8.148   6.821  68.725  1.00  0.00     0.000 HD 
HETATM   23  H   UNL     3     -10.243   8.672  70.916  1.00  0.00     0.000 HD 
ENDROOT
BRANCH  14  24
HETATM   24  C   UNL     2      -7.311  11.045  66.269  1.00  0.00    -0.097 C  
BRANCH  24  25
HETATM   25  C   UNL     2      -6.908  12.318  66.994  1.00  0.00    -0.034 A  
HETATM   26  I   UNL     2      -8.914  15.830  68.625  1.00  0.00    -0.250 I  
HETATM   27  C   UNL     2      -5.558  12.587  67.276  1.00  0.00    -0.066 A  
HETATM   28  C   UNL     2      -7.879  13.252  67.404  1.00  0.00    -0.159 A  
HETATM   29  C   UNL     2      -5.174  13.780  67.883  1.00  0.00    -0.074 A  
HETATM   30  C   UNL     2      -7.487  14.436  68.033  1.00  0.00    -0.140 A  
HETATM   31  C   UNL     2      -6.138  14.708  68.264  1.00  0.00    -0.117 A  
ENDBRANCH  24  25
ENDBRANCH  14  24
BRANCH  19  32
HETATM   32  C   UNL     3      -9.719   6.579  70.621  1.00  0.00    -0.179 C  
BRANCH  32  33
HETATM   33  C   UNL     3      -9.412   6.050  71.992  1.00  0.00    -0.161 A  
HETATM   34  C   UNL     3      -8.955   4.675  74.403  1.00  0.00    -0.111 A  
HETATM   35  C   UNL     3      -8.203   5.392  72.214  1.00  0.00    -0.115 A  
HETATM   36  I   UNL     3      -6.242   3.582  73.615  1.00  0.00    -0.026 I  
HETATM   37  C   UNL     3     -10.139   5.386  74.225  1.00  0.00    -0.267 A  
HETATM   38  C   UNL     3      -7.987   4.689  73.399  1.00  0.00    -0.099 A  
HETATM   39  C   UNL     3     -10.373   6.064  73.024  1.00  0.00    -0.224 A  
ENDBRANCH  32  33
ENDBRANCH  19  32
TORSDOF 4
ENDMDL
MODEL      213
REMARK 921   NORMALIZED FREE ENERGY PREDICTED BY IDOCK:    1.35 KCAL/MOL
REMARK 922        TOTAL FREE ENERGY PREDICTED BY IDOCK:    1.01 KCAL/MOL
REMARK 923 INTER-LIGAND FREE ENERGY PREDICTED BY IDOCK:    1.60 KCAL/MOL
REMARK 924 INTRA-LIGAND FREE ENERGY PREDICTED BY IDOCK:   -0.59 KCAL/MOL
REMARK 927      BINDING AFFINITY PREDICTED BY RF-SCORE:    0.00 PKD
ROOT
HETATM    1  O   UNL     1      -7.411   9.962  68.392  1.00  0.00    -0.076 OA 
HETATM    2  S   UNL     1      -6.624   8.720  67.734  1.00  0.00    -0.062 S  
HETATM    3  N   UNL     2     -10.759  10.056  70.113  1.00  0.00    -0.288 NA 
HETATM    4  H1  UNL     2      -9.879  10.456  70.440  1.00  0.00     0.000 HD 
HETATM    5  H2  UNL     2     -11.478  10.629  69.671  1.00  0.00     0.000 HD 
HETATM    6  C   UNL     2     -10.923   8.735  70.294  1.00  0.00    -0.235 C  
HETATM    7  N   UNL     3      -9.981   9.365  67.221  1.00  0.00    -0.182 NA 
HETATM    8  O   UNL     1      -7.059   8.878  66.199  1.00  0.00    -0.082 OA 
HETATM    9  O   UNL     1      -5.209   8.976  67.864  1.00  0.00    -0.034 OA 
HETATM   10  O   UNL     1      -7.241   7.523  68.235  1.00  0.00    -0.088 OA 
HETATM   11  C   UNL     3     -10.180   8.088  66.825  1.00  0.00    -0.297 C  
HETATM   12  H1  UNL     3      -9.579  10.082  66.617  1.00  0.00     0.000 HD 
HETATM   13  H2  UNL     3     -10.245   9.624  68.171  1.00  0.00     0.000 HD 
HETATM   14  N   UNL     2      -9.873   7.985  70.646  1.00  0.00    -0.184 NA 
HETATM   15  N   UNL     2     -12.031   8.231  69.882  1.00  0.00    -0.029 NA 
HETATM   16  H2  UNL     2     -12.750   8.805  69.440  1.00  0.00     0.000 HD 
HETATM   17  H   UNL     2     -10.014   6.978  70.572  1.00  0.00     0.000 HD 
HETATM   18  N   UNL     3     -10.683   7.188  67.582  1.00  0.00    -0.380 NA 
HETATM   19  N   UNL     3      -9.717   7.820  65.583  1.00  0.00    -0.125 NA 
HETATM   20  H2  UNL     3     -10.948   7.447  68.532  1.00  0.00     0.000 HD 
HETATM   21  H1  UNL     2     -12.156   7.228  70.019  1.00  0.00     0.000 HD 
HETATM   22  H1  UNL     3     -10.833   6.224  67.284  1.00  0.00     0.000 HD 
HETATM   23  H   UNL     3      -8.978   8.373  65.149  1.00  0.00     0.000 HD 
ENDROOT
BRANCH  14  24
HETATM   24  C   UNL     2      -8.562   8.392  71.119  1.00  0.00    -0.154 C  
BRANCH  24  25
HETATM   25  C   UNL     2      -7.786   7.189  71.628  1.00  0.00    -0.097 A  
HETATM   26  I   UNL     2      -6.373   3.391  70.017  1.00  0.00    -0.029 I  
HETATM   27  C   UNL     2      -7.348   7.130  72.962  1.00  0.00    -0.076 A  
HETATM   28  C   UNL     2      -7.485   6.111  70.773  1.00  0.00    -0.091 A  
HETATM   29  C   UNL     2      -6.692   6.004  73.454  1.00  0.00    -0.075 A  
HETATM   30  C   UNL     2      -6.805   4.996  71.269  1.00  0.00    -0.040 A  
HETATM   31  C   UNL     2      -6.418   4.934  72.608  1.00  0.00    -0.043 A  
ENDBRANCH  24  25
ENDBRANCH  14  24
BRANCH  19  32
HETATM   32  C   UNL     3     -10.342   6.692  64.904  1.00  0.00     4.089 C  
BRANCH  32  33
HETATM   33  C   UNL     3      -9.348   5.647  64.486  1.00  0.00     0.621 A  
HETATM   34  C   UNL     3      -7.577   3.501  64.078  1.00  0.00    -0.075 A  
HETATM   35  C   UNL     3      -9.808   4.437  63.968  1.00  0.00     0.019 A  
HETATM   36  I   UNL     3      -9.694   1.530  63.180  1.00  0.00    -0.114 I  
HETATM   37  C   UNL     3      -7.089   4.726  64.529  1.00  0.00    -0.054 A  
HETATM   38  C   UNL     3      -8.934   3.365  63.791  1.00  0.00    -0.093 A  
HETATM   39  C   UNL     3      -7.968   5.792  64.740  1.00  0.00    -0.124 A  
ENDBRANCH  32  33
ENDBRANCH  19  32
TORSDOF 4
ENDMDL
MODEL      214
REMARK 921   NORMALIZED FREE ENERGY PREDICTED BY IDOCK:    2.62 KCAL/MOL
REMARK 922        TOTAL FREE ENERGY PREDICTED BY IDOCK:    2.59 KCAL/MOL
REMARK 923 INTER-LIGAND FREE ENERGY PREDICTED BY IDOCK:   -4.77 KCAL/MOL
REMARK 924 INTRA-LIGAND FREE ENERGY PREDICTED BY IDOCK:    7.35 KCAL/MOL
REMARK 927      BINDING AFFINITY PREDICTED BY RF-SCORE:    0.00 PKD
ROOT
HETATM    1  O   UNL     1      -8.369  10.312  66.075  1.00  0.00    -0.132 OA 
HETATM    2  S   UNL     1      -9.471  11.160  65.263  1.00  0.00    -0.225 S  
HETATM    3  N   UNL     2      -8.393   9.123  69.648  1.00  0.00    -0.121 NA 
HETATM    4  H1  UNL     2      -8.177   8.579  68.812  1.00  0.00     0.000 HD 
HETATM    5  H2  UNL     2      -7.658   9.492  70.252  1.00  0.00     0.000 HD 
HETATM    6  C   UNL     2      -9.693   9.328  69.914  1.00  0.00    -0.201 C  
HETATM    7  N   UNL     3      -8.392  11.953  68.450  1.00  0.00    -0.168 NA 
HETATM    8  O   UNL     1      -8.884  12.643  65.433  1.00  0.00     0.599 OA 
HETATM    9  O   UNL     1      -9.396  10.766  63.876  1.00  0.00    -0.216 OA 
HETATM   10  O   UNL     1     -10.690  11.091  66.019  1.00  0.00    -0.245 OA 
HETATM   11  C   UNL     3      -9.500  12.701  68.653  1.00  0.00     0.005 C  
HETATM   12  H1  UNL     3      -7.587  12.279  67.915  1.00  0.00     0.000 HD 
HETATM   13  H2  UNL     3      -8.361  11.016  68.850  1.00  0.00     0.000 HD 
HETATM   14  N   UNL     2     -10.607   9.043  68.979  1.00  0.00    -0.297 NA 
HETATM   15  N   UNL     2      -9.964  10.013  70.966  1.00  0.00    -0.130 NA 
HETATM   16  H2  UNL     2      -9.229  10.382  71.570  1.00  0.00     0.000 HD 
HETATM   17  H   UNL     2     -11.543   9.405  69.162  1.00  0.00     0.000 HD 
HETATM   18  N   UNL     3     -10.510  12.293  69.323  1.00  0.00    -0.426 NA 
HETATM   19  N   UNL     3      -9.484  13.890  68.011  1.00  0.00    -0.202 NA 
HETATM   20  H2  UNL     3     -10.479  11.355  69.724  1.00  0.00     0.000 HD 
HETATM   21  H1  UNL     2     -10.952  10.169  71.168  1.00  0.00     0.000 HD 
HETATM   22  H1  UNL     3     -11.346  12.856  69.477  1.00  0.00     0.000 HD 
HETATM   23  H   UNL     3      -8.914  14.051  67.180  1.00  0.00     0.000 HD 
ENDROOT
BRANCH  14  24
HETATM   24  C   UNL     2     -10.465   8.297  67.742  1.00  0.00    -0.215 C  
BRANCH  24  25
HETATM   25  C   UNL     2      -9.003   7.975  67.484  1.00  0.00    -0.143 A  
HETATM   26  I   UNL     2      -5.155   9.955  68.026  1.00  0.00    -0.034 I  
HETATM   27  C   UNL     2      -8.629   6.750  66.904  1.00  0.00    -0.116 A  
HETATM   28  C   UNL     2      -7.990   8.893  67.824  1.00  0.00    -0.102 A  
HETATM   29  C   UNL     2      -7.298   6.472  66.605  1.00  0.00    -0.078 A  
HETATM   30  C   UNL     2      -6.655   8.596  67.543  1.00  0.00    -0.058 A  
HETATM   31  C   UNL     2      -6.306   7.394  66.925  1.00  0.00    -0.048 A  
ENDBRANCH  24  25
ENDBRANCH  14  24
BRANCH  19  32
HETATM   32  C   UNL     3     -10.334  14.928  68.579  1.00  0.00    -0.237 C  
BRANCH  32  33
HETATM   33  C   UNL     3      -9.855  16.313  68.251  1.00  0.00    -0.227 A  
HETATM   34  C   UNL     3      -8.907  18.954  68.061  1.00  0.00    -0.337 A  
HETATM   35  C   UNL     3      -8.486  16.575  68.237  1.00  0.00    -0.199 A  
HETATM   36  I   UNL     3      -5.976  18.241  68.324  1.00  0.00    -0.180 I  
HETATM   37  C   UNL     3     -10.276  18.703  68.003  1.00  0.00    -0.426 A  
HETATM   38  C   UNL     3      -8.017  17.887  68.169  1.00  0.00    -0.265 A  
HETATM   39  C   UNL     3     -10.751  17.392  68.105  1.00  0.00    -0.343 A  
ENDBRANCH  32  33
ENDBRANCH  19  32
TORSDOF 4
ENDMDL
MODEL      215
REMARK 921   NORMALIZED FREE ENERGY PREDICTED BY IDOCK:    4.34 KCAL/MOL
REMARK 922        TOTAL FREE ENERGY PREDICTED BY IDOCK:    4.71 KCAL/MOL
REMARK 923 INTER-LIGAND FREE ENERGY PREDICTED BY IDOCK:   -0.20 KCAL/MOL
REMARK 924 INTRA-LIGAND FREE ENERGY PREDICTED BY IDOCK:    4.91 KCAL/MOL
REMARK 927      BINDING AFFINITY PREDICTED BY RF-SCORE:    0.00 PKD
ROOT
HETATM    1  O   UNL     1      -9.447  18.745  67.643  1.00  0.00    -0.294 OA 
HETATM    2  S   UNL     1      -8.949  18.330  69.117  1.00  0.00     0.224 S  
HETATM    3  N   UNL     2     -10.301  16.575  64.685  1.00  0.00    -0.180 NA 
HETATM    4  H1  UNL     2     -10.849  17.342  65.073  1.00  0.00     0.000 HD 
HETATM    5  H2  UNL     2      -9.721  16.696  63.854  1.00  0.00     0.000 HD 
HETATM    6  C   UNL     2     -10.380  15.396  65.324  1.00  0.00    -0.390 C  
HETATM    7  N   UNL     3      -7.659  16.996  66.200  1.00  0.00    -0.330 NA 
HETATM    8  O   UNL     1      -7.362  18.480  68.943  1.00  0.00    -0.290 OA 
HETATM    9  O   UNL     1      -9.432  19.327  70.042  1.00  0.00     0.448 OA 
HETATM   10  O   UNL     1      -9.233  16.930  69.274  1.00  0.00    -0.161 OA 
HETATM   11  C   UNL     3      -7.174  15.936  66.883  1.00  0.00    -0.138 C  
HETATM   12  H1  UNL     3      -7.203  17.908  66.182  1.00  0.00     0.000 HD 
HETATM   13  H2  UNL     3      -8.527  16.878  65.676  1.00  0.00     0.000 HD 
HETATM   14  N   UNL     2     -10.946  15.342  66.535  1.00  0.00    -0.303 NA 
HETATM   15  N   UNL     2      -9.689  14.429  64.836  1.00  0.00    -0.407 NA 
HETATM   16  H2  UNL     2      -9.110  14.550  64.004  1.00  0.00     0.000 HD 
HETATM   17  H   UNL     2     -10.797  14.472  67.046  1.00  0.00     0.000 HD 
HETATM   18  N   UNL     3      -7.745  14.792  66.906  1.00  0.00    -0.296 NA 
HETATM   19  N   UNL     3      -6.072  16.214  67.616  1.00  0.00    -0.139 NA 
HETATM   20  H2  UNL     3      -8.612  14.674  66.382  1.00  0.00     0.000 HD 
HETATM   21  H1  UNL     2      -9.749  13.533  65.321  1.00  0.00     0.000 HD 
HETATM   22  H1  UNL     3      -7.379  13.992  67.422  1.00  0.00     0.000 HD 
HETATM   23  H   UNL     3      -5.855  17.159  67.932  1.00  0.00     0.000 HD 
ENDROOT
BRANCH  14  24
HETATM   24  C   UNL     2     -11.742  16.338  67.230  1.00  0.00     0.634 C  
BRANCH  24  25
HETATM   25  C   UNL     2     -11.811  16.018  68.713  1.00  0.00    -0.210 A  
HETATM   26  I   UNL     2     -13.322  12.779  71.212  1.00  0.00     0.613 I  
HETATM   27  C   UNL     2     -11.306  16.920  69.666  1.00  0.00     0.423 A  
HETATM   28  C   UNL     2     -12.377  14.811  69.166  1.00  0.00    -0.114 A  
HETATM   29  C   UNL     2     -11.422  16.665  71.030  1.00  0.00     0.131 A  
HETATM   30  C   UNL     2     -12.469  14.552  70.535  1.00  0.00    -0.344 A  
HETATM   31  C   UNL     2     -12.003  15.480  71.469  1.00  0.00    -0.463 A  
ENDBRANCH  24  25
ENDBRANCH  14  24
BRANCH  19  32
HETATM   32  C   UNL     3      -5.214  15.078  67.926  1.00  0.00    -0.086 C  
BRANCH  32  33
HETATM   33  C   UNL     3      -5.826  14.149  68.935  1.00  0.00    -0.086 A  
HETATM   34  C   UNL     3      -6.601  12.193  70.800  1.00  0.00     1.466 A  
HETATM   35  C   UNL     3      -5.467  14.268  70.277  1.00  0.00    -0.112 A  
HETATM   36  I   UNL     3      -5.128  13.414  73.148  1.00  0.00     0.164 I  
HETATM   37  C   UNL     3      -7.027  12.096  69.478  1.00  0.00     0.113 A  
HETATM   38  C   UNL     3      -5.830  13.284  71.196  1.00  0.00     0.013 A  
HETATM   39  C   UNL     3      -6.637  13.063  68.546  1.00  0.00    -0.088 A  
ENDBRANCH  32  33
ENDBRANCH  19  32
TORSDOF 4
ENDMDL
MODEL      216
REMARK 921   NORMALIZED FREE ENERGY PREDICTED BY IDOCK:    5.02 KCAL/MOL
REMARK 922        TOTAL FREE ENERGY PREDICTED BY IDOCK:    5.55 KCAL/MOL
REMARK 923 INTER-LIGAND FREE ENERGY PREDICTED BY IDOCK:   -3.36 KCAL/MOL
REMARK 924 INTRA-LIGAND FREE ENERGY PREDICTED BY IDOCK:    8.91 KCAL/MOL
REMARK 927      BINDING AFFINITY PREDICTED BY RF-SCORE:    0.00 PKD
ROOT
HETATM    1  O   UNL     1      -8.577   5.791  67.346  1.00  0.00    -0.108 OA 
HETATM    2  S   UNL     1      -9.978   6.585  67.363  1.00  0.00    -0.159 S  
HETATM    3  N   UNL     2      -5.932   5.511  70.012  1.00  0.00    -0.020 NA 
HETATM    4  H1  UNL     2      -6.352   4.756  69.470  1.00  0.00     0.000 HD 
HETATM    5  H2  UNL     2      -5.015   5.892  69.780  1.00  0.00     0.000 HD 
HETATM    6  C   UNL     2      -6.648   5.979  71.048  1.00  0.00    -0.049 C  
HETATM    7  N   UNL     3      -6.985   7.935  68.443  1.00  0.00    -0.073 NA 
HETATM    8  O   UNL     1      -9.549   7.952  66.642  1.00  0.00    -0.197 OA 
HETATM    9  O   UNL     1     -10.903   5.864  66.521  1.00  0.00    -0.269 OA 
HETATM   10  O   UNL     1     -10.265   6.895  68.736  1.00  0.00    -0.161 OA 
HETATM   11  C   UNL     3      -7.649   8.877  69.150  1.00  0.00    -0.080 C  
HETATM   12  H1  UNL     3      -6.839   7.991  67.434  1.00  0.00     0.000 HD 
HETATM   13  H2  UNL     3      -6.612   7.128  68.942  1.00  0.00     0.000 HD 
HETATM   14  N   UNL     2      -7.934   5.629  71.168  1.00  0.00    -0.109 NA 
HETATM   15  N   UNL     2      -6.119   6.930  71.730  1.00  0.00    -0.038 NA 
HETATM   16  H2  UNL     2      -5.201   7.311  71.498  1.00  0.00     0.000 HD 
HETATM   17  H   UNL     2      -8.469   6.168  71.849  1.00  0.00     0.000 HD 
HETATM   18  N   UNL     3      -7.832   8.808  70.413  1.00  0.00    -0.087 NA 
HETATM   19  N   UNL     3      -8.181   9.860  68.389  1.00  0.00    -0.104 NA 
HETATM   20  H2  UNL     3      -7.459   8.001  70.913  1.00  0.00     0.000 HD 
HETATM   21  H1  UNL     2      -6.663   7.286  72.517  1.00  0.00     0.000 HD 
HETATM   22  H1  UNL     3      -8.333   9.518  70.947  1.00  0.00     0.000 HD 
HETATM   23  H   UNL     3      -8.399   9.724  67.402  1.00  0.00     0.000 HD 
ENDROOT
BRANCH  14  24
HETATM   24  C   UNL     2      -8.681   4.596  70.475  1.00  0.00    -0.102 C  
BRANCH  24  25
HETATM   25  C   UNL     2      -7.859   4.027  69.331  1.00  0.00    -0.052 A  
HETATM   26  I   UNL     2      -6.854   5.176  65.246  1.00  0.00    -0.064 I  
HETATM   27  C   UNL     2      -7.194   2.796  69.467  1.00  0.00    -0.044 A  
HETATM   28  C   UNL     2      -7.742   4.721  68.111  1.00  0.00    -0.082 A  
HETATM   29  C   UNL     2      -6.491   2.236  68.404  1.00  0.00    -0.029 A  
HETATM   30  C   UNL     2      -7.015   4.164  67.057  1.00  0.00    -0.063 A  
HETATM   31  C   UNL     2      -6.399   2.919  67.195  1.00  0.00    -0.035 A  
ENDBRANCH  24  25
ENDBRANCH  14  24
BRANCH  19  32
HETATM   32  C   UNL     3      -8.423  11.126  69.068  1.00  0.00    -0.037 C  
BRANCH  32  33
HETATM   33  C   UNL     3      -8.584  12.273  68.114  1.00  0.00    -0.181 A  
HETATM   34  C   UNL     3      -9.243  14.515  66.548  1.00  0.00    -0.282 A  
HETATM   35  C   UNL     3      -8.209  13.554  68.517  1.00  0.00    -0.104 A  
HETATM   36  I   UNL     3      -8.129  16.566  68.478  1.00  0.00    -0.244 I  
HETATM   37  C   UNL     3      -9.563  13.237  66.097  1.00  0.00    -0.211 A  
HETATM   38  C   UNL     3      -8.558  14.667  67.753  1.00  0.00    -0.173 A  
HETATM   39  C   UNL     3      -9.244  12.121  66.876  1.00  0.00    -0.203 A  
ENDBRANCH  32  33
ENDBRANCH  19  32
TORSDOF 4
ENDMDL
MODEL      217
REMARK 921   NORMALIZED FREE ENERGY PREDICTED BY IDOCK:    6.40 KCAL/MOL
REMARK 922        TOTAL FREE ENERGY PREDICTED BY IDOCK:    7.25 KCAL/MOL
REMARK 923 INTER-LIGAND FREE ENERGY PREDICTED BY IDOCK:    6.50 KCAL/MOL
REMARK 924 INTRA-LIGAND FREE ENERGY PREDICTED BY IDOCK:    0.74 KCAL/MOL
REMARK 927      BINDING AFFINITY PREDICTED BY RF-SCORE:    0.00 PKD
ROOT
HETATM    1  O   UNL     1     -13.071  12.851  65.857  1.00  0.00     0.001 OA 
HETATM    2  S   UNL     1     -12.361  11.864  64.801  1.00  0.00     0.237 S  
HETATM    3  N   UNL     2     -11.842  14.103  69.189  1.00  0.00    -0.321 NA 
HETATM    4  H1  UNL     2     -12.243  14.651  68.428  1.00  0.00     0.000 HD 
HETATM    5  H2  UNL     2     -12.394  13.834  70.004  1.00  0.00     0.000 HD 
HETATM    6  C   UNL     2     -10.551  13.753  69.066  1.00  0.00    -0.139 C  
HETATM    7  N   UNL     3     -12.501  11.267  68.202  1.00  0.00    -0.064 NA 
HETATM    8  O   UNL     1     -13.021  10.463  65.219  1.00  0.00     6.687 OA 
HETATM    9  O   UNL     1     -12.811  12.235  63.480  1.00  0.00    -0.768 OA 
HETATM   10  O   UNL     1     -10.970  11.806  65.154  1.00  0.00    -0.297 OA 
HETATM   11  C   UNL     3     -11.468  10.401  68.107  1.00  0.00    -0.118 C  
HETATM   12  H1  UNL     3     -13.460  11.026  67.951  1.00  0.00     0.000 HD 
HETATM   13  H2  UNL     3     -12.312  12.210  68.542  1.00  0.00     0.000 HD 
HETATM   14  N   UNL     2      -9.939  13.910  67.886  1.00  0.00    -0.236 NA 
HETATM   15  N   UNL     2     -10.047  13.064  70.025  1.00  0.00     1.311 NA 
HETATM   16  H2  UNL     2     -10.599  12.795  70.840  1.00  0.00     0.000 HD 
HETATM   17  H   UNL     2      -9.034  13.447  67.802  1.00  0.00     0.000 HD 
HETATM   18  N   UNL     3     -10.266  10.702  68.421  1.00  0.00    -0.166 NA 
HETATM   19  N   UNL     3     -11.802   9.208  67.564  1.00  0.00     1.657 NA 
HETATM   20  H2  UNL     3     -10.076  11.645  68.762  1.00  0.00     0.000 HD 
HETATM   21  H1  UNL     2      -9.066  12.798  69.931  1.00  0.00     0.000 HD 
HETATM   22  H1  UNL     3      -9.487  10.048  68.349  1.00  0.00     0.000 HD 
HETATM   23  H   UNL     3     -12.610   9.097  66.952  1.00  0.00     0.000 HD 
ENDROOT
BRANCH  14  24
HETATM   24  C   UNL     2     -10.370  14.642  66.710  1.00  0.00    -0.268 C  
BRANCH  24  25
HETATM   25  C   UNL     2     -10.028  16.116  66.848  1.00  0.00    -0.258 A  
HETATM   26  I   UNL     2      -7.192  18.533  69.114  1.00  0.00     0.034 I  
HETATM   27  C   UNL     2     -10.738  17.089  66.123  1.00  0.00    -0.099 A  
HETATM   28  C   UNL     2      -8.988  16.538  67.699  1.00  0.00    -0.198 A  
HETATM   29  C   UNL     2     -10.473  18.445  66.291  1.00  0.00    -0.421 A  
HETATM   30  C   UNL     2      -8.713  17.900  67.844  1.00  0.00    -0.252 A  
HETATM   31  C   UNL     2      -9.460  18.855  67.152  1.00  0.00    -0.337 A  
ENDBRANCH  24  25
ENDBRANCH  14  24
BRANCH  19  32
HETATM   32  C   UNL     3     -10.933   8.090  67.909  1.00  0.00     0.157 C  
BRANCH  32  33
HETATM   33  C   UNL     3     -10.793   7.901  69.392  1.00  0.00    -0.114 A  
HETATM   34  C   UNL     3     -10.823   7.863  72.203  1.00  0.00    -0.327 A  
HETATM   35  C   UNL     3     -11.757   7.166  70.080  1.00  0.00    -0.105 A  
HETATM   36  I   UNL     3     -13.342   6.200  72.454  1.00  0.00     1.712 I  
HETATM   37  C   UNL     3      -9.812   8.545  71.531  1.00  0.00    -0.309 A  
HETATM   38  C   UNL     3     -11.787   7.168  71.474  1.00  0.00    -0.313 A  
HETATM   39  C   UNL     3      -9.798   8.573  70.133  1.00  0.00    -0.184 A  
ENDBRANCH  32  33
ENDBRANCH  19  32
TORSDOF 4
ENDMDL
MODEL      218
REMARK 921   NORMALIZED FREE ENERGY PREDICTED BY IDOCK:   10.50 KCAL/MOL
REMARK 922        TOTAL FREE ENERGY PREDICTED BY IDOCK:   12.31 KCAL/MOL
REMARK 923 INTER-LIGAND FREE ENERGY PREDICTED BY IDOCK:   12.09 KCAL/MOL
REMARK 924 INTRA-LIGAND FREE ENERGY PREDICTED BY IDOCK:    0.22 KCAL/MOL
REMARK 927      BINDING AFFINITY PREDICTED BY RF-SCORE:    0.00 PKD
ROOT
HETATM    1  O   UNL     1     -11.607  14.737  64.632  1.00  0.00    -0.400 OA 
HETATM    2  S   UNL     1     -12.183  15.896  65.590  1.00  0.00     1.614 S  
HETATM    3  N   UNL     2      -8.538  12.589  65.021  1.00  0.00     0.996 NA 
HETATM    4  H1  UNL     2      -9.486  12.286  64.797  1.00  0.00     0.000 HD 
HETATM    5  H2  UNL     2      -7.823  12.689  64.301  1.00  0.00     0.000 HD 
HETATM    6  C   UNL     2      -8.279  12.851  66.313  1.00  0.00     0.785 C  
HETATM    7  N   UNL     3      -8.860  15.626  64.674  1.00  0.00     2.532 NA 
HETATM    8  O   UNL     1     -11.564  17.196  64.882  1.00  0.00    -0.048 OA 
HETATM    9  O   UNL     1     -13.620  15.908  65.452  1.00  0.00     2.582 OA 
HETATM   10  O   UNL     1     -11.531  15.748  66.861  1.00  0.00    -0.051 OA 
HETATM   11  C   UNL     3      -8.495  16.401  65.720  1.00  0.00     0.307 C  
HETATM   12  H1  UNL     3      -9.242  16.001  63.806  1.00  0.00     0.000 HD 
HETATM   13  H2  UNL     3      -8.749  14.616  64.758  1.00  0.00     0.000 HD 
HETATM   14  N   UNL     2      -9.294  12.946  67.179  1.00  0.00    -0.220 NA 
HETATM   15  N   UNL     2      -7.086  13.232  66.595  1.00  0.00     0.141 NA 
HETATM   16  H2  UNL     2      -6.370  13.332  65.874  1.00  0.00     0.000 HD 
HETATM   17  H   UNL     2      -9.053  13.339  68.089  1.00  0.00     0.000 HD 
HETATM   18  N   UNL     3      -8.016  15.931  66.809  1.00  0.00    -0.248 NA 
HETATM   19  N   UNL     3      -8.763  17.715  65.549  1.00  0.00     0.080 NA 
HETATM   20  H2  UNL     3      -7.904  14.921  66.893  1.00  0.00     0.000 HD 
HETATM   21  H1  UNL     2      -6.888  13.431  67.576  1.00  0.00     0.000 HD 
HETATM   22  H1  UNL     3      -7.740  16.515  67.598  1.00  0.00     0.000 HD 
HETATM   23  H   UNL     3      -9.485  18.043  64.908  1.00  0.00     0.000 HD 
ENDROOT
BRANCH  14  24
HETATM   24  C   UNL     2     -10.687  12.572  67.018  1.00  0.00    -0.242 C  
BRANCH  24  25
HETATM   25  C   UNL     2     -11.263  12.092  68.339  1.00  0.00    -0.314 A  
HETATM   26  I   UNL     2     -11.940   8.267  70.323  1.00  0.00     0.779 I  
HETATM   27  C   UNL     2     -11.768  13.009  69.278  1.00  0.00    -0.375 A  
HETATM   28  C   UNL     2     -11.298  10.720  68.655  1.00  0.00    -0.356 A  
HETATM   29  C   UNL     2     -12.355  12.575  70.463  1.00  0.00    -0.345 A  
HETATM   30  C   UNL     2     -11.867  10.294  69.858  1.00  0.00    -0.193 A  
HETATM   31  C   UNL     2     -12.406  11.216  70.757  1.00  0.00    -0.504 A  
ENDBRANCH  24  25
ENDBRANCH  14  24
BRANCH  19  32
HETATM   32  C   UNL     3      -7.954  18.634  66.339  1.00  0.00    -0.277 C  
BRANCH  32  33
HETATM   33  C   UNL     3      -8.251  18.551  67.808  1.00  0.00    -0.265 A  
HETATM   34  C   UNL     3      -8.661  17.991  70.533  1.00  0.00     4.192 A  
HETATM   35  C   UNL     3      -7.208  18.686  68.724  1.00  0.00    -0.330 A  
HETATM   36  I   UNL     3      -5.783  18.433  71.367  1.00  0.00     1.064 I  
HETATM   37  C   UNL     3      -9.730  17.919  69.643  1.00  0.00     0.493 A  
HETATM   38  C   UNL     3      -7.406  18.383  70.071  1.00  0.00     1.011 A  
HETATM   39  C   UNL     3      -9.528  18.189  68.286  1.00  0.00    -0.315 A  
ENDBRANCH  32  33
ENDBRANCH  19  32
TORSDOF 4
ENDMDL
MODEL      219
REMARK 921   NORMALIZED FREE ENERGY PREDICTED BY IDOCK:   11.50 KCAL/MOL
REMARK 922        TOTAL FREE ENERGY PREDICTED BY IDOCK:   13.54 KCAL/MOL
REMARK 923 INTER-LIGAND FREE ENERGY PREDICTED BY IDOCK:    9.87 KCAL/MOL
REMARK 924 INTRA-LIGAND FREE ENERGY PREDICTED BY IDOCK:    3.67 KCAL/MOL
REMARK 927      BINDING AFFINITY PREDICTED BY RF-SCORE:    0.00 PKD
ROOT
HETATM    1  O   UNL     1     -11.241  16.299  65.213  1.00  0.00    -0.173 OA 
HETATM    2  S   UNL     1     -12.603  15.473  65.447  1.00  0.00     1.257 S  
HETATM    3  N   UNL     2      -7.865  15.890  66.832  1.00  0.00    -0.235 NA 
HETATM    4  H1  UNL     2      -8.072  15.975  65.836  1.00  0.00     0.000 HD 
HETATM    5  H2  UNL     2      -7.527  16.682  67.378  1.00  0.00     0.000 HD 
HETATM    6  C   UNL     2      -8.059  14.682  67.386  1.00  0.00    -0.196 C  
HETATM    7  N   UNL     3     -10.601  16.652  68.006  1.00  0.00    -0.325 NA 
HETATM    8  O   UNL     1     -13.343  16.421  66.507  1.00  0.00     5.415 OA 
HETATM    9  O   UNL     1     -13.337  15.472  64.203  1.00  0.00     0.177 OA 
HETATM   10  O   UNL     1     -12.244  14.262  66.131  1.00  0.00    -0.431 OA 
HETATM   11  C   UNL     3     -11.160  15.772  68.867  1.00  0.00    -0.298 C  
HETATM   12  H1  UNL     3     -11.048  17.526  67.729  1.00  0.00     0.000 HD 
HETATM   13  H2  UNL     3      -9.686  16.430  67.614  1.00  0.00     0.000 HD 
HETATM   14  N   UNL     2      -8.728  13.746  66.703  1.00  0.00    -0.444 NA 
HETATM   15  N   UNL     2      -7.798  14.576  68.639  1.00  0.00    -0.135 NA 
HETATM   16  H2  UNL     2      -7.460  15.368  69.186  1.00  0.00     0.000 HD 
HETATM   17  H   UNL     2      -9.014  12.932  67.248  1.00  0.00     0.000 HD 
HETATM   18  N   UNL     3     -10.600  14.677  69.215  1.00  0.00    -0.286 NA 
HETATM   19  N   UNL     3     -12.408  16.111  69.263  1.00  0.00    -0.345 NA 
HETATM   20  H2  UNL     3      -9.685  14.455  68.824  1.00  0.00     0.000 HD 
HETATM   21  H1  UNL     2      -7.945  13.658  69.061  1.00  0.00     0.000 HD 
HETATM   22  H1  UNL     3     -11.022  14.013  69.865  1.00  0.00     0.000 HD 
HETATM   23  H   UNL     3     -13.007  16.721  68.706  1.00  0.00     0.000 HD 
ENDROOT
BRANCH  14  24
HETATM   24  C   UNL     2      -9.107  13.716  65.302  1.00  0.00     1.195 C  
BRANCH  24  25
HETATM   25  C   UNL     2      -9.414  12.293  64.868  1.00  0.00     0.164 A  
HETATM   26  I   UNL     2      -9.842   8.396  66.777  1.00  0.00    -0.336 I  
HETATM   27  C   UNL     2      -9.628  11.987  63.512  1.00  0.00    -0.111 A  
HETATM   28  C   UNL     2      -9.496  11.252  65.812  1.00  0.00    -0.252 A  
HETATM   29  C   UNL     2      -9.847  10.677  63.097  1.00  0.00    -0.351 A  
HETATM   30  C   UNL     2      -9.739   9.943  65.390  1.00  0.00    -0.306 A  
HETATM   31  C   UNL     2      -9.904   9.650  64.035  1.00  0.00     0.586 A  
ENDBRANCH  24  25
ENDBRANCH  14  24
BRANCH  19  32
HETATM   32  C   UNL     3     -12.844  15.547  70.534  1.00  0.00    -0.353 C  
BRANCH  32  33
HETATM   33  C   UNL     3     -12.796  14.047  70.549  1.00  0.00    -0.284 A  
HETATM   34  C   UNL     3     -12.396  11.282  70.870  1.00  0.00    -0.490 A  
HETATM   35  C   UNL     3     -13.432  13.354  71.578  1.00  0.00    -0.288 A  
HETATM   36  I   UNL     3     -14.044  11.032  73.400  1.00  0.00     7.821 I  
HETATM   37  C   UNL     3     -11.810  11.946  69.796  1.00  0.00    -0.411 A  
HETATM   38  C   UNL     3     -13.213  11.988  71.752  1.00  0.00    -0.317 A  
HETATM   39  C   UNL     3     -12.000  13.322  69.637  1.00  0.00    -0.376 A  
ENDBRANCH  32  33
ENDBRANCH  19  32
TORSDOF 4
ENDMDL
MODEL      220
REMARK 921   NORMALIZED FREE ENERGY PREDICTED BY IDOCK:   25.71 KCAL/MOL
REMARK 922        TOTAL FREE ENERGY PREDICTED BY IDOCK:   31.07 KCAL/MOL
REMARK 923 INTER-LIGAND FREE ENERGY PREDICTED BY IDOCK:   17.75 KCAL/MOL
REMARK 924 INTRA-LIGAND FREE ENERGY PREDICTED BY IDOCK:   13.32 KCAL/MOL
REMARK 927      BINDING AFFINITY PREDICTED BY RF-SCORE:    0.00 PKD
ROOT
HETATM    1  O   UNL     1      -9.441  18.748  67.648  1.00  0.00    -0.294 OA 
HETATM    2  S   UNL     1      -8.963  18.354  69.135  1.00  0.00     0.205 S  
HETATM    3  N   UNL     2     -10.245  16.537  64.708  1.00  0.00    -0.104 NA 
HETATM    4  H1  UNL     2     -10.801  17.308  65.078  1.00  0.00     0.000 HD 
HETATM    5  H2  UNL     2      -9.654  16.649  63.884  1.00  0.00     0.000 HD 
HETATM    6  C   UNL     2     -10.329  15.366  65.361  1.00  0.00    -0.394 C  
HETATM    7  N   UNL     3      -7.627  16.987  66.255  1.00  0.00    -0.307 NA 
HETATM    8  O   UNL     1      -7.374  18.508  68.983  1.00  0.00    -0.284 OA 
HETATM    9  O   UNL     1      -9.463  19.362  70.040  1.00  0.00     0.361 OA 
HETATM   10  O   UNL     1      -9.245  16.956  69.306  1.00  0.00    -0.161 OA 
HETATM   11  C   UNL     3      -7.148  15.938  66.959  1.00  0.00    -0.172 C  
HETATM   12  H1  UNL     3      -7.173  17.901  66.232  1.00  0.00     0.000 HD 
HETATM   13  H2  UNL     3      -8.486  16.859  65.720  1.00  0.00     0.000 HD 
HETATM   14  N   UNL     2     -10.913  15.326  66.564  1.00  0.00    -0.313 NA 
HETATM   15  N   UNL     2      -9.628  14.396  64.895  1.00  0.00    -0.329 NA 
HETATM   16  H2  UNL     2      -9.037  14.508  64.071  1.00  0.00     0.000 HD 
HETATM   17  H   UNL     2     -10.768  14.463  67.089  1.00  0.00     0.000 HD 
HETATM   18  N   UNL     3      -7.716  14.793  66.988  1.00  0.00    -0.318 NA 
HETATM   19  N   UNL     3      -6.057  16.230  67.704  1.00  0.00    -0.137 NA 
HETATM   20  H2  UNL     3      -8.575  14.664  66.453  1.00  0.00     0.000 HD 
HETATM   21  H1  UNL     2      -9.692  13.506  65.391  1.00  0.00     0.000 HD 
HETATM   22  H1  UNL     3      -7.354  14.001  67.520  1.00  0.00     0.000 HD 
HETATM   23  H   UNL     3      -5.848  17.180  68.011  1.00  0.00     0.000 HD 
ENDROOT
BRANCH  14  24
HETATM   24  C   UNL     2     -11.722  16.328  67.234  1.00  0.00     0.634 C  
BRANCH  24  25
HETATM   25  C   UNL     2     -11.533  17.685  66.579  1.00  0.00     1.425 A  
HETATM   26  I   UNL     2      -8.259  20.496  65.948  1.00  0.00     0.827 I  
HETATM   27  C   UNL     2     -12.618  18.351  65.982  1.00  0.00     8.418 A  
HETATM   28  C   UNL     2     -10.268  18.303  66.549  1.00  0.00    -0.409 A  
HETATM   29  C   UNL     2     -12.468  19.623  65.435  1.00  0.00     7.238 A  
HETATM   30  C   UNL     2     -10.121  19.569  65.978  1.00  0.00    -0.436 A  
HETATM   31  C   UNL     2     -11.219  20.236  65.431  1.00  0.00     0.542 A  
ENDBRANCH  24  25
ENDBRANCH  14  24
BRANCH  19  32
HETATM   32  C   UNL     3      -5.200  15.101  68.041  1.00  0.00    -0.120 C  
BRANCH  32  33
HETATM   33  C   UNL     3      -5.824  14.183  69.053  1.00  0.00    -0.089 A  
HETATM   34  C   UNL     3      -6.621  12.246  70.929  1.00  0.00     1.797 A  
HETATM   35  C   UNL     3      -5.483  14.317  70.398  1.00  0.00    -0.119 A  
HETATM   36  I   UNL     3      -5.180  13.496  73.282  1.00  0.00     0.172 I  
HETATM   37  C   UNL     3      -7.030  12.134  69.602  1.00  0.00     0.194 A  
HETATM   38  C   UNL     3      -5.856  13.342  71.323  1.00  0.00     0.015 A  
HETATM   39  C   UNL     3      -6.629  13.091  68.665  1.00  0.00    -0.092 A  
ENDBRANCH  32  33
ENDBRANCH  19  32
TORSDOF 4
ENDMDL
MODEL      221
REMARK 921   NORMALIZED FREE ENERGY PREDICTED BY IDOCK:   28.26 KCAL/MOL
REMARK 922        TOTAL FREE ENERGY PREDICTED BY IDOCK:   34.22 KCAL/MOL
REMARK 923 INTER-LIGAND FREE ENERGY PREDICTED BY IDOCK:   22.11 KCAL/MOL
REMARK 924 INTRA-LIGAND FREE ENERGY PREDICTED BY IDOCK:   12.11 KCAL/MOL
REMARK 927      BINDING AFFINITY PREDICTED BY RF-SCORE:    0.00 PKD
ROOT
HETATM    1  O   UNL     1      -9.503  18.748  67.649  1.00  0.00    -0.294 OA 
HETATM    2  S   UNL     1      -9.208  18.426  69.199  1.00  0.00     0.140 S  
HETATM    3  N   UNL     2     -10.302  16.406  64.809  1.00  0.00    -0.435 NA 
HETATM    4  H1  UNL     2     -10.793  17.262  65.067  1.00  0.00     0.000 HD 
HETATM    5  H2  UNL     2      -9.632  16.383  64.040  1.00  0.00     0.000 HD 
HETATM    6  C   UNL     2     -10.582  15.310  65.533  1.00  0.00    -0.373 C  
HETATM    7  N   UNL     3      -7.796  16.686  66.567  1.00  0.00    -0.280 NA 
HETATM    8  O   UNL     1      -7.605  18.388  69.191  1.00  0.00    -0.210 OA 
HETATM    9  O   UNL     1      -9.662  19.554  69.977  1.00  0.00     0.147 OA 
HETATM   10  O   UNL     1      -9.668  17.087  69.441  1.00  0.00    -0.132 OA 
HETATM   11  C   UNL     3      -7.509  15.651  67.387  1.00  0.00    -0.205 C  
HETATM   12  H1  UNL     3      -7.236  17.538  66.523  1.00  0.00     0.000 HD 
HETATM   13  H2  UNL     3      -8.614  16.612  65.962  1.00  0.00     0.000 HD 
HETATM   14  N   UNL     2     -11.270  15.435  66.673  1.00  0.00    -0.238 NA 
HETATM   15  N   UNL     2      -9.964  14.232  65.208  1.00  0.00    -0.550 NA 
HETATM   16  H2  UNL     2      -9.293  14.209  64.439  1.00  0.00     0.000 HD 
HETATM   17  H   UNL     2     -11.276  14.607  67.270  1.00  0.00     0.000 HD 
HETATM   18  N   UNL     3      -8.210  14.583  67.443  1.00  0.00    -0.190 NA 
HETATM   19  N   UNL     3      -6.462  15.879  68.212  1.00  0.00    -0.115 NA 
HETATM   20  H2  UNL     3      -9.027  14.508  66.838  1.00  0.00     0.000 HD 
HETATM   21  H1  UNL     2     -10.176  13.399  65.757  1.00  0.00     0.000 HD 
HETATM   22  H1  UNL     3      -7.994  13.802  68.062  1.00  0.00     0.000 HD 
HETATM   23  H   UNL     3      -6.169  16.821  68.469  1.00  0.00     0.000 HD 
ENDROOT
BRANCH  14  24
HETATM   24  C   UNL     2     -12.010  16.572  67.189  1.00  0.00     1.418 C  
BRANCH  24  25
HETATM   25  C   UNL     2     -11.689  17.820  66.385  1.00  0.00     2.409 A  
HETATM   26  I   UNL     2      -8.176  20.273  65.569  1.00  0.00     1.195 I  
HETATM   27  C   UNL     2     -12.694  18.489  65.665  1.00  0.00    10.345 A  
HETATM   28  C   UNL     2     -10.377  18.331  66.338  1.00  0.00    -0.418 A  
HETATM   29  C   UNL     2     -12.422  19.669  64.977  1.00  0.00     8.182 A  
HETATM   30  C   UNL     2     -10.108  19.502  65.626  1.00  0.00    -0.087 A  
HETATM   31  C   UNL     2     -11.128  20.179  64.955  1.00  0.00     0.689 A  
ENDBRANCH  24  25
ENDBRANCH  14  24
BRANCH  19  32
HETATM   32  C   UNL     3      -5.778  14.692  68.710  1.00  0.00    -0.086 C  
BRANCH  32  33
HETATM   33  C   UNL     3      -6.015  13.484  67.851  1.00  0.00    -0.143 A  
HETATM   34  C   UNL     3      -6.228  11.008  66.535  1.00  0.00    -0.133 A  
HETATM   35  C   UNL     3      -7.001  12.569  68.218  1.00  0.00    -0.089 A  
HETATM   36  I   UNL     3      -8.462   9.934  68.275  1.00  0.00    -0.115 I  
HETATM   37  C   UNL     3      -5.282  11.939  66.111  1.00  0.00     0.525 A  
HETATM   38  C   UNL     3      -7.089  11.331  67.582  1.00  0.00    -0.090 A  
HETATM   39  C   UNL     3      -5.169  13.168  66.768  1.00  0.00     1.243 A  
ENDBRANCH  32  33
ENDBRANCH  19  32
TORSDOF 4
ENDMDL
MODEL      222
REMARK 921   NORMALIZED FREE ENERGY PREDICTED BY IDOCK:   34.67 KCAL/MOL
REMARK 922        TOTAL FREE ENERGY PREDICTED BY IDOCK:   42.13 KCAL/MOL
REMARK 923 INTER-LIGAND FREE ENERGY PREDICTED BY IDOCK:   38.94 KCAL/MOL
REMARK 924 INTRA-LIGAND FREE ENERGY PREDICTED BY IDOCK:    3.19 KCAL/MOL
REMARK 927      BINDING AFFINITY PREDICTED BY RF-SCORE:    0.00 PKD
ROOT
HETATM    1  O   UNL     1     -12.508  13.830  63.209  1.00  0.00    -0.819 OA 
HETATM    2  S   UNL     1     -11.287  14.835  63.512  1.00  0.00     2.021 S  
HETATM    3  N   UNL     2     -13.430  10.583  64.879  1.00  0.00     7.817 NA 
HETATM    4  H1  UNL     2     -14.043  11.371  64.668  1.00  0.00     0.000 HD 
HETATM    5  H2  UNL     2     -13.407   9.750  64.291  1.00  0.00     0.000 HD 
HETATM    6  C   UNL     2     -12.656  10.698  65.971  1.00  0.00     6.309 C  
HETATM    7  N   UNL     3     -10.944  11.404  63.270  1.00  0.00    -0.792 NA 
HETATM    8  O   UNL     1     -10.217  14.333  62.428  1.00  0.00     8.790 OA 
HETATM    9  O   UNL     1     -11.723  16.171  63.180  1.00  0.00     0.810 OA 
HETATM   10  O   UNL     1     -10.776  14.491  64.810  1.00  0.00    -0.413 OA 
HETATM   11  C   UNL     3      -9.773  11.460  63.944  1.00  0.00    -0.270 C  
HETATM   12  H1  UNL     3     -11.031  11.633  62.280  1.00  0.00     0.000 HD 
HETATM   13  H2  UNL     3     -11.781  11.119  63.777  1.00  0.00     0.000 HD 
HETATM   14  N   UNL     2     -12.537  11.889  66.568  1.00  0.00     0.984 NA 
HETATM   15  N   UNL     2     -11.885   9.706  66.236  1.00  0.00     2.892 NA 
HETATM   16  H2  UNL     2     -11.861   8.872  65.648  1.00  0.00     0.000 HD 
HETATM   17  H   UNL     2     -11.789  11.955  67.259  1.00  0.00     0.000 HD 
HETATM   18  N   UNL     3      -9.663  11.173  65.185  1.00  0.00    -0.238 NA 
HETATM   19  N   UNL     3      -8.740  11.932  63.210  1.00  0.00    -0.229 NA 
HETATM   20  H2  UNL     3     -10.500  10.887  65.693  1.00  0.00     0.000 HD 
HETATM   21  H1  UNL     2     -11.297   9.793  67.065  1.00  0.00     0.000 HD 
HETATM   22  H1  UNL     3      -8.780  11.215  65.694  1.00  0.00     0.000 HD 
HETATM   23  H   UNL     3      -8.881  12.530  62.396  1.00  0.00     0.000 HD 
ENDROOT
BRANCH  14  24
HETATM   24  C   UNL     2     -13.312  13.101  66.379  1.00  0.00     2.702 C  
BRANCH  24  25
HETATM   25  C   UNL     2     -12.606  14.286  67.016  1.00  0.00     0.198 A  
HETATM   26  I   UNL     2      -9.049  14.946  69.452  1.00  0.00     0.234 I  
HETATM   27  C   UNL     2     -13.124  15.586  66.886  1.00  0.00     3.416 A  
HETATM   28  C   UNL     2     -11.414  14.108  67.745  1.00  0.00    -0.352 A  
HETATM   29  C   UNL     2     -12.519  16.668  67.519  1.00  0.00     2.709 A  
HETATM   30  C   UNL     2     -10.799  15.203  68.357  1.00  0.00    -0.255 A  
HETATM   31  C   UNL     2     -11.354  16.481  68.256  1.00  0.00    -0.180 A  
ENDBRANCH  24  25
ENDBRANCH  14  24
BRANCH  19  32
HETATM   32  C   UNL     3      -7.412  11.533  63.657  1.00  0.00     1.926 C  
BRANCH  32  33
HETATM   33  C   UNL     3      -7.446  10.369  64.605  1.00  0.00    -0.037 A  
HETATM   34  C   UNL     3      -7.918   8.304  66.454  1.00  0.00    -0.096 A  
HETATM   35  C   UNL     3      -8.031   9.172  64.196  1.00  0.00    -0.140 A  
HETATM   36  I   UNL     3      -9.316   6.463  64.497  1.00  0.00     2.314 I  
HETATM   37  C   UNL     3      -7.269   9.466  66.865  1.00  0.00    -0.087 A  
HETATM   38  C   UNL     3      -8.288   8.159  65.118  1.00  0.00    -0.143 A  
HETATM   39  C   UNL     3      -7.040  10.498  65.950  1.00  0.00    -0.134 A  
ENDBRANCH  32  33
ENDBRANCH  19  32
TORSDOF 4
ENDMDL
MODEL      223
REMARK 921   NORMALIZED FREE ENERGY PREDICTED BY IDOCK:   58.01 KCAL/MOL
REMARK 922        TOTAL FREE ENERGY PREDICTED BY IDOCK:   70.93 KCAL/MOL
REMARK 923 INTER-LIGAND FREE ENERGY PREDICTED BY IDOCK:   70.62 KCAL/MOL
REMARK 924 INTRA-LIGAND FREE ENERGY PREDICTED BY IDOCK:    0.31 KCAL/MOL
REMARK 927      BINDING AFFINITY PREDICTED BY RF-SCORE:    0.00 PKD
ROOT
HETATM    1  O   UNL     1     -11.840  15.291  63.378  1.00  0.00     0.278 OA 
HETATM    2  S   UNL     1     -12.428  16.326  64.463  1.00  0.00     1.861 S  
HETATM    3  N   UNL     2      -8.562  13.437  63.343  1.00  0.00     5.664 NA 
HETATM    4  H1  UNL     2      -9.495  13.056  63.182  1.00  0.00     0.000 HD 
HETATM    5  H2  UNL     2      -7.930  13.651  62.571  1.00  0.00     0.000 HD 
HETATM    6  C   UNL     2      -8.207  13.643  64.621  1.00  0.00     7.508 C  
HETATM    7  N   UNL     3      -9.196  16.443  63.241  1.00  0.00    11.787 NA 
HETATM    8  O   UNL     1     -12.002  17.721  63.797  1.00  0.00     3.506 OA 
HETATM    9  O   UNL     1     -13.866  16.204  64.454  1.00  0.00     1.811 OA 
HETATM   10  O   UNL     1     -11.647  16.165  65.658  1.00  0.00     0.306 OA 
HETATM   11  C   UNL     3      -8.807  17.184  64.302  1.00  0.00     8.702 C  
HETATM   12  H1  UNL     3      -9.692  16.831  62.438  1.00  0.00     0.000 HD 
HETATM   13  H2  UNL     3      -8.984  15.445  63.243  1.00  0.00     0.000 HD 
HETATM   14  N   UNL     2      -9.140  13.583  65.579  1.00  0.00     0.004 NA 
HETATM   15  N   UNL     2      -7.033  14.123  64.823  1.00  0.00    13.939 NA 
HETATM   16  H2  UNL     2      -6.401  14.337  64.051  1.00  0.00     0.000 HD 
HETATM   17  H   UNL     2      -8.851  13.942  66.489  1.00  0.00     0.000 HD 
HETATM   18  N   UNL     3      -8.186  16.698  65.308  1.00  0.00     1.269 NA 
HETATM   19  N   UNL     3      -9.211  18.473  64.248  1.00  0.00     6.817 NA 
HETATM   20  H2  UNL     3      -7.973  15.700  65.311  1.00  0.00     0.000 HD 
HETATM   21  H1  UNL     2      -6.763  14.279  65.795  1.00  0.00     0.000 HD 
HETATM   22  H1  UNL     3      -7.892  17.256  66.110  1.00  0.00     0.000 HD 
HETATM   23  H   UNL     3     -10.018  18.767  63.699  1.00  0.00     0.000 HD 
ENDROOT
BRANCH  14  24
HETATM   24  C   UNL     2     -10.501  13.084  65.515  1.00  0.00    -0.285 C  
BRANCH  24  25
HETATM   25  C   UNL     2     -10.946  12.584  66.879  1.00  0.00    -0.296 A  
HETATM   26  I   UNL     2     -11.959   8.751  68.696  1.00  0.00     4.014 I  
HETATM   27  C   UNL     2     -11.141  13.480  67.944  1.00  0.00    -0.288 A  
HETATM   28  C   UNL     2     -11.166  11.212  67.108  1.00  0.00    -0.320 A  
HETATM   29  C   UNL     2     -11.609  13.039  69.179  1.00  0.00    -0.368 A  
HETATM   30  C   UNL     2     -11.613  10.774  68.357  1.00  0.00    -0.239 A  
HETATM   31  C   UNL     2     -11.846  11.684  69.389  1.00  0.00    -0.408 A  
ENDBRANCH  24  25
ENDBRANCH  14  24
BRANCH  19  32
HETATM   32  C   UNL     3      -8.419  19.418  65.026  1.00  0.00     2.067 C  
BRANCH  32  33
HETATM   33  C   UNL     3      -8.661  19.296  66.503  1.00  0.00    -0.362 A  
HETATM   34  C   UNL     3      -8.921  19.452  69.299  1.00  0.00    -0.052 A  
HETATM   35  C   UNL     3      -9.729  19.984  67.079  1.00  0.00    -0.555 A  
HETATM   36  I   UNL     3     -11.351  21.260  69.275  1.00  0.00     5.115 I  
HETATM   37  C   UNL     3      -7.888  18.703  68.740  1.00  0.00    -0.319 A  
HETATM   38  C   UNL     3      -9.842  20.082  68.465  1.00  0.00    -0.299 A  
HETATM   39  C   UNL     3      -7.752  18.629  67.351  1.00  0.00    -0.237 A  
ENDBRANCH  32  33
ENDBRANCH  19  32
TORSDOF 4
ENDMDL
MODEL      224
REMARK 921   NORMALIZED FREE ENERGY PREDICTED BY IDOCK:   62.40 KCAL/MOL
REMARK 922        TOTAL FREE ENERGY PREDICTED BY IDOCK:   76.34 KCAL/MOL
REMARK 923 INTER-LIGAND FREE ENERGY PREDICTED BY IDOCK:   30.48 KCAL/MOL
REMARK 924 INTRA-LIGAND FREE ENERGY PREDICTED BY IDOCK:   45.86 KCAL/MOL
REMARK 927      BINDING AFFINITY PREDICTED BY RF-SCORE:    0.00 PKD
ROOT
HETATM    1  O   UNL     1     -10.943  18.769  67.634  1.00  0.00    -0.384 OA 
HETATM    2  S   UNL     1      -9.457  18.587  67.043  1.00  0.00    -0.298 S  
HETATM    3  N   UNL     2     -12.479  17.366  70.774  1.00  0.00     4.607 NA 
HETATM    4  H1  UNL     2     -12.505  18.331  70.445  1.00  0.00     0.000 HD 
HETATM    5  H2  UNL     2     -13.270  16.735  70.646  1.00  0.00     0.000 HD 
HETATM    6  C   UNL     2     -11.350  16.967  71.382  1.00  0.00     0.862 C  
HETATM    7  N   UNL     3     -11.378  15.984  68.258  1.00  0.00    -0.350 NA 
HETATM    8  O   UNL     1      -9.695  17.380  66.015  1.00  0.00    -0.459 OA 
HETATM    9  O   UNL     1      -9.123  19.787  66.312  1.00  0.00    -0.365 OA 
HETATM   10  O   UNL     1      -8.641  18.085  68.114  1.00  0.00    -0.258 OA 
HETATM   11  C   UNL     3     -10.272  15.223  68.416  1.00  0.00    -0.223 C  
HETATM   12  H1  UNL     3     -11.838  16.124  67.359  1.00  0.00     0.000 HD 
HETATM   13  H2  UNL     3     -11.772  16.441  69.080  1.00  0.00     0.000 HD 
HETATM   14  N   UNL     2     -10.259  17.738  71.311  1.00  0.00     2.938 NA 
HETATM   15  N   UNL     2     -11.317  15.752  71.796  1.00  0.00    -0.364 NA 
HETATM   16  H2  UNL     2     -12.108  15.120  71.668  1.00  0.00     0.000 HD 
HETATM   17  H   UNL     2      -9.392  17.294  71.615  1.00  0.00     0.000 HD 
HETATM   18  N   UNL     3      -9.696  15.047  69.544  1.00  0.00    -0.403 NA 
HETATM   19  N   UNL     3      -9.774  14.732  67.259  1.00  0.00    -0.227 NA 
HETATM   20  H2  UNL     3     -10.090  15.503  70.366  1.00  0.00     0.000 HD 
HETATM   21  H1  UNL     2     -10.459  15.449  72.258  1.00  0.00     0.000 HD 
HETATM   22  H1  UNL     3      -8.861  14.473  69.664  1.00  0.00     0.000 HD 
HETATM   23  H   UNL     3      -9.955  15.177  66.359  1.00  0.00     0.000 HD 
ENDROOT
BRANCH  14  24
HETATM   24  C   UNL     2     -10.124  19.113  70.865  1.00  0.00     2.214 C  
BRANCH  24  25
HETATM   25  C   UNL     2      -9.320  19.175  69.577  1.00  0.00     0.163 A  
HETATM   26  I   UNL     2      -5.922  17.069  67.833  1.00  0.00    -0.177 I  
HETATM   27  C   UNL     2      -9.623  20.125  68.586  1.00  0.00    -0.149 A  
HETATM   28  C   UNL     2      -8.258  18.279  69.346  1.00  0.00     0.390 A  
HETATM   29  C   UNL     2      -8.853  20.231  67.432  1.00  0.00    -0.442 A  
HETATM   30  C   UNL     2      -7.505  18.377  68.174  1.00  0.00    -0.267 A  
HETATM   31  C   UNL     2      -7.791  19.357  67.221  1.00  0.00    -0.285 A  
ENDBRANCH  24  25
ENDBRANCH  14  24
BRANCH  19  32
HETATM   32  C   UNL     3      -8.961  13.529  67.379  1.00  0.00    -0.219 C  
BRANCH  32  33
HETATM   33  C   UNL     3      -8.261  13.174  66.098  1.00  0.00     1.179 A  
HETATM   34  C   UNL     3      -6.930  12.110  63.862  1.00  0.00     5.721 A  
HETATM   35  C   UNL     3      -8.977  12.543  65.082  1.00  0.00     0.892 A  
HETATM   36  I   UNL     3      -9.401  10.914  62.582  1.00  0.00    -0.204 I  
HETATM   37  C   UNL     3      -6.209  12.799  64.834  1.00  0.00     9.281 A  
HETATM   38  C   UNL     3      -8.313  11.993  63.986  1.00  0.00     2.091 A  
HETATM   39  C   UNL     3      -6.866  13.322  65.951  1.00  0.00     5.221 A  
ENDBRANCH  32  33
ENDBRANCH  19  32
TORSDOF 4
ENDMDL
MODEL      225
REMARK 921   NORMALIZED FREE ENERGY PREDICTED BY IDOCK:   66.44 KCAL/MOL
REMARK 922        TOTAL FREE ENERGY PREDICTED BY IDOCK:   81.33 KCAL/MOL
REMARK 923 INTER-LIGAND FREE ENERGY PREDICTED BY IDOCK:   19.07 KCAL/MOL
REMARK 924 INTRA-LIGAND FREE ENERGY PREDICTED BY IDOCK:   62.27 KCAL/MOL
REMARK 927      BINDING AFFINITY PREDICTED BY RF-SCORE:    0.00 PKD
ROOT
HETATM    1  O   UNL     1     -10.737  19.786  68.859  1.00  0.00     0.020 OA 
HETATM    2  S   UNL     1      -9.260  19.555  68.260  1.00  0.00    -0.352 S  
HETATM    3  N   UNL     2     -12.319  18.391  71.979  1.00  0.00     7.834 NA 
HETATM    4  H1  UNL     2     -12.308  19.362  71.667  1.00  0.00     0.000 HD 
HETATM    5  H2  UNL     2     -13.135  17.794  71.843  1.00  0.00     0.000 HD 
HETATM    6  C   UNL     2     -11.206  17.937  72.577  1.00  0.00     2.498 C  
HETATM    7  N   UNL     3     -11.281  17.010  69.436  1.00  0.00    -0.183 NA 
HETATM    8  O   UNL     1      -9.549  18.377  67.212  1.00  0.00    -0.279 OA 
HETATM    9  O   UNL     1      -8.881  20.754  67.549  1.00  0.00    -0.263 OA 
HETATM   10  O   UNL     1      -8.462  19.002  69.320  1.00  0.00    -0.127 OA 
HETATM   11  C   UNL     3     -10.206  16.203  69.578  1.00  0.00    -0.261 C  
HETATM   12  H1  UNL     3     -11.737  17.184  68.541  1.00  0.00     0.000 HD 
HETATM   13  H2  UNL     3     -11.655  17.468  70.268  1.00  0.00     0.000 HD 
HETATM   14  N   UNL     2     -10.085  18.665  72.515  1.00  0.00     4.202 NA 
HETATM   15  N   UNL     2     -11.220  16.714  72.969  1.00  0.00     0.959 NA 
HETATM   16  H2  UNL     2     -12.036  16.117  72.833  1.00  0.00     0.000 HD 
HETATM   17  H   UNL     2      -9.236  18.181  72.809  1.00  0.00     0.000 HD 
HETATM   18  N   UNL     3      -9.634  15.984  70.700  1.00  0.00     1.180 NA 
HETATM   19  N   UNL     3      -9.730  15.713  68.410  1.00  0.00    -0.200 NA 
HETATM   20  H2  UNL     3     -10.008  16.442  71.532  1.00  0.00     0.000 HD 
HETATM   21  H1  UNL     2     -10.374  16.369  73.423  1.00  0.00     0.000 HD 
HETATM   22  H1  UNL     3      -8.822  15.375  70.807  1.00  0.00     0.000 HD 
HETATM   23  H   UNL     3      -9.896  16.180  67.519  1.00  0.00     0.000 HD 
ENDROOT
BRANCH  14  24
HETATM   24  C   UNL     2      -9.896  20.041  72.093  1.00  0.00     3.040 C  
BRANCH  24  25
HETATM   25  C   UNL     2      -9.248  20.088  70.720  1.00  0.00     1.727 A  
HETATM   26  I   UNL     2      -5.288  19.377  69.036  1.00  0.00    -0.223 I  
HETATM   27  C   UNL     2      -9.992  20.458  69.586  1.00  0.00     0.327 A  
HETATM   28  C   UNL     2      -7.889  19.757  70.552  1.00  0.00     1.256 A  
HETATM   29  C   UNL     2      -9.391  20.566  68.335  1.00  0.00     0.171 A  
HETATM   30  C   UNL     2      -7.300  19.845  69.289  1.00  0.00    -0.156 A  
HETATM   31  C   UNL     2      -8.043  20.259  68.182  1.00  0.00    -0.091 A  
ENDBRANCH  24  25
ENDBRANCH  14  24
BRANCH  19  32
HETATM   32  C   UNL     3      -8.966  14.476  68.507  1.00  0.00    -0.188 C  
BRANCH  32  33
HETATM   33  C   UNL     3      -9.784  13.263  68.169  1.00  0.00    -0.227 A  
HETATM   34  C   UNL     3     -11.434  11.210  67.185  1.00  0.00    -0.163 A  
HETATM   35  C   UNL     3      -9.300  12.355  67.228  1.00  0.00    -0.184 A  
HETATM   36  I   UNL     3      -9.418  10.130  65.199  1.00  0.00    -0.379 I  
HETATM   37  C   UNL     3     -11.909  12.066  68.176  1.00  0.00    -0.352 A  
HETATM   38  C   UNL     3     -10.127  11.353  66.722  1.00  0.00    -0.216 A  
HETATM   39  C   UNL     3     -11.094  13.092  68.661  1.00  0.00    -0.304 A  
ENDBRANCH  32  33
ENDBRANCH  19  32
TORSDOF 4
ENDMDL
MODEL      226
REMARK 921   NORMALIZED FREE ENERGY PREDICTED BY IDOCK:   71.98 KCAL/MOL
REMARK 922        TOTAL FREE ENERGY PREDICTED BY IDOCK:   88.17 KCAL/MOL
REMARK 923 INTER-LIGAND FREE ENERGY PREDICTED BY IDOCK:   12.24 KCAL/MOL
REMARK 924 INTRA-LIGAND FREE ENERGY PREDICTED BY IDOCK:   75.92 KCAL/MOL
REMARK 927      BINDING AFFINITY PREDICTED BY RF-SCORE:    0.00 PKD
ROOT
HETATM    1  O   UNL     1      -9.718  18.795  67.736  1.00  0.00    -0.302 OA 
HETATM    2  S   UNL     1      -9.601  18.651  69.336  1.00  0.00     0.268 S  
HETATM    3  N   UNL     2     -11.337  16.508  65.220  1.00  0.00     0.098 NA 
HETATM    4  H1  UNL     2     -11.450  17.518  65.307  1.00  0.00     0.000 HD 
HETATM    5  H2  UNL     2     -10.718  16.096  64.521  1.00  0.00     0.000 HD 
HETATM    6  C   UNL     2     -12.043  15.748  66.073  1.00  0.00     1.121 C  
HETATM    7  N   UNL     3      -8.956  16.080  67.118  1.00  0.00    -0.195 NA 
HETATM    8  O   UNL     1      -8.147  17.990  69.466  1.00  0.00     0.290 OA 
HETATM    9  O   UNL     1      -9.581  19.981  69.898  1.00  0.00     0.142 OA 
HETATM   10  O   UNL     1     -10.561  17.660  69.736  1.00  0.00     0.088 OA 
HETATM   11  C   UNL     3      -9.120  15.170  68.103  1.00  0.00    -0.176 C  
HETATM   12  H1  UNL     3      -8.103  16.625  66.994  1.00  0.00     0.000 HD 
HETATM   13  H2  UNL     3      -9.726  16.230  66.465  1.00  0.00     0.000 HD 
HETATM   14  N   UNL     2     -12.643  16.322  67.121  1.00  0.00     1.957 NA 
HETATM   15  N   UNL     2     -11.900  14.476  65.964  1.00  0.00    -0.362 NA 
HETATM   16  H2  UNL     2     -11.282  14.064  65.265  1.00  0.00     0.000 HD 
HETATM   17  H   UNL     2     -12.988  15.677  67.832  1.00  0.00     0.000 HD 
HETATM   18  N   UNL     3     -10.189  14.487  68.259  1.00  0.00    -0.229 NA 
HETATM   19  N   UNL     3      -8.082  15.107  68.968  1.00  0.00    -0.177 NA 
HETATM   20  H2  UNL     3     -10.959  14.636  67.606  1.00  0.00     0.000 HD 
HETATM   21  H1  UNL     2     -12.436  13.898  66.611  1.00  0.00     0.000 HD 
HETATM   22  H1  UNL     3     -10.313  13.800  69.003  1.00  0.00     0.000 HD 
HETATM   23  H   UNL     3      -7.442  15.889  69.106  1.00  0.00     0.000 HD 
ENDROOT
BRANCH  14  24
HETATM   24  C   UNL     2     -12.876  17.728  67.399  1.00  0.00     6.421 C  
BRANCH  24  25
HETATM   25  C   UNL     2     -11.560  18.486  67.435  1.00  0.00     1.257 A  
HETATM   26  I   UNL     2      -7.840  18.313  69.705  1.00  0.00     1.420 I  
HETATM   27  C   UNL     2     -11.334  19.573  66.573  1.00  0.00     0.320 A  
HETATM   28  C   UNL     2     -10.537  18.113  68.328  1.00  0.00    -0.267 A  
HETATM   29  C   UNL     2     -10.156  20.312  66.642  1.00  0.00    -0.538 A  
HETATM   30  C   UNL     2      -9.349  18.846  68.375  1.00  0.00    -0.350 A  
HETATM   31  C   UNL     2      -9.160  19.951  67.543  1.00  0.00    -0.432 A  
ENDBRANCH  24  25
ENDBRANCH  14  24
BRANCH  19  32
HETATM   32  C   UNL     3      -7.937  13.851  69.692  1.00  0.00     0.751 C  
BRANCH  32  33
HETATM   33  C   UNL     3      -8.681  12.719  69.043  1.00  0.00     0.494 A  
HETATM   34  C   UNL     3      -9.969  10.374  68.178  1.00  0.00    -0.170 A  
HETATM   35  C   UNL     3      -9.981  12.432  69.455  1.00  0.00     1.013 A  
HETATM   36  I   UNL     3     -12.479  10.787  69.822  1.00  0.00     0.284 I  
HETATM   37  C   UNL     3      -8.696  10.682  67.702  1.00  0.00    -0.121 A  
HETATM   38  C   UNL     3     -10.609  11.256  69.047  1.00  0.00    -0.208 A  
HETATM   39  C   UNL     3      -8.050  11.843  68.136  1.00  0.00    -0.155 A  
ENDBRANCH  32  33
ENDBRANCH  19  32
TORSDOF 4
ENDMDL
