MODEL        1
REMARK 921   NORMALIZED FREE ENERGY PREDICTED BY IDOCK:   -6.26 KCAL/MOL
REMARK 922        TOTAL FREE ENERGY PREDICTED BY IDOCK:  -10.85 KCAL/MOL
REMARK 923 INTER-LIGAND FREE ENERGY PREDICTED BY IDOCK:   -9.55 KCAL/MOL
REMARK 924 INTRA-LIGAND FREE ENERGY PREDICTED BY IDOCK:   -1.30 KCAL/MOL
REMARK 927      BINDING AFFINITY PREDICTED BY RF-SCORE:    0.00 PKD
ROOT
HETATM    1  C   UNL     1      -5.992   7.560  64.974  1.00  0.00    -0.038 C  
HETATM    2  N   UNL     1      -6.985   8.273  65.777  1.00  0.00    -0.066 N  
HETATM    3  O   UNL     1      -8.641   7.548  64.332  1.00  0.00     0.109 OA 
HETATM    4  C   UNL     1      -8.319   8.226  65.301  1.00  0.00    -0.166 C  
ENDROOT
BRANCH   2   5
HETATM    5  C   UNL     1      -6.537   8.716  67.110  1.00  0.00    -0.058 C  
BRANCH   5   6
HETATM    6  C   UNL     1      -6.468  10.213  67.412  1.00  0.00    -0.067 C  
HETATM    7  H   UNL     1      -5.645  11.385  68.774  1.00  0.00     0.000 HD 
HETATM    8  O   UNL     1      -5.688  10.455  68.587  1.00  0.00    -0.041 OA 
BRANCH   6   9
HETATM    9  C   UNL     1      -5.801  10.909  66.202  1.00  0.00    -0.145 C  
HETATM   10  H   UNL     1      -4.898  12.631  65.770  1.00  0.00     0.000 HD 
HETATM   11  O   UNL     1      -5.307  12.204  66.513  1.00  0.00    -0.326 OA 
ENDBRANCH   6   9
ENDBRANCH   5   6
ENDBRANCH   2   5
BRANCH   4  12
HETATM   12  C   UNL     1      -9.419   8.984  65.986  1.00  0.00    -0.323 A  
HETATM   13  C   UNL     1     -10.051   8.399  67.089  1.00  0.00    -0.265 A  
HETATM   14  C   UNL     1      -9.912  10.249  65.530  1.00  0.00    -0.296 A  
HETATM   15  C   UNL     1     -10.834  11.010  66.316  1.00  0.00    -0.234 A  
HETATM   16  I   UNL     1      -9.260  10.955  63.595  1.00  0.00    -0.213 I  
HETATM   17  I   UNL     1     -10.071   6.246  67.260  1.00  0.00    -0.325 I  
HETATM   18  C   UNL     1     -11.123  10.518  67.611  1.00  0.00    -0.309 A  
HETATM   19  I   UNL     1     -11.538  11.926  69.194  1.00  0.00    -0.395 I  
HETATM   20  C   UNL     1     -10.826   9.174  67.970  1.00  0.00    -0.075 A  
BRANCH  15  21
HETATM   21  C   UNL     1     -11.367  12.340  65.800  1.00  0.00    -0.355 C  
HETATM   22  O   UNL     1     -12.448  12.333  65.204  1.00  0.00    -0.563 OA 
HETATM   23  N   UNL     1     -10.725  13.569  66.060  1.00  0.00    -0.277 N  
HETATM   24  C   UNL     1      -9.302  13.751  66.326  1.00  0.00    -0.145 C  
BRANCH  23  25
HETATM   25  C   UNL     1     -11.486  14.818  65.807  1.00  0.00    -0.322 C  
BRANCH  25  26
HETATM   26  C   UNL     1     -10.706  15.953  65.109  1.00  0.00    -0.429 C  
HETATM   27  H   UNL     1     -10.979  17.277  63.630  1.00  0.00     0.000 HD 
HETATM   28  O   UNL     1     -11.459  16.578  64.060  1.00  0.00    -1.137 OA 
BRANCH  26  29
HETATM   29  C   UNL     1     -10.335  17.075  66.094  1.00  0.00    -0.319 C  
HETATM   30  H   UNL     1     -10.317  19.044  66.088  1.00  0.00     0.000 HD 
HETATM   31  O   UNL     1     -10.546  18.351  65.480  1.00  0.00    -0.627 OA 
ENDBRANCH  26  29
ENDBRANCH  25  26
ENDBRANCH  23  25
ENDBRANCH  15  21
BRANCH  20  32
HETATM   32  N   UNL     1     -11.186   8.595  69.221  1.00  0.00    -0.417 N  
HETATM   33  C   UNL     1     -10.306   8.544  70.294  1.00  0.00    -0.205 C  
HETATM   34  H   UNL     1     -12.122   8.204  69.332  1.00  0.00     0.000 HD 
HETATM   35  H   UNL     1     -13.553   9.944  71.711  1.00  0.00     0.000 HD 
HETATM   36  H   UNL     1      -8.458   8.455  73.672  1.00  0.00     0.000 HD 
HETATM   37  C   UNL     1     -10.953   8.033  71.586  1.00  0.00    -0.288 C  
HETATM   38  O   UNL     1      -9.140   8.932  70.249  1.00  0.00    -0.156 OA 
HETATM   39  O   UNL     1      -9.123   8.720  73.046  1.00  0.00    -0.279 OA 
HETATM   40  O   UNL     1     -12.989   9.279  71.334  1.00  0.00    -0.327 OA 
HETATM   41  C   UNL     1     -11.861   9.102  72.191  1.00  0.00    -0.263 C  
HETATM   42  C   UNL     1      -9.887   7.609  72.590  1.00  0.00    -0.206 C  
ENDBRANCH  20  32
ENDBRANCH   4  12
TORSDOF 9
ENDMDL
MODEL        2
REMARK 921   NORMALIZED FREE ENERGY PREDICTED BY IDOCK:   -5.30 KCAL/MOL
REMARK 922        TOTAL FREE ENERGY PREDICTED BY IDOCK:   -9.38 KCAL/MOL
REMARK 923 INTER-LIGAND FREE ENERGY PREDICTED BY IDOCK:   -8.02 KCAL/MOL
REMARK 924 INTRA-LIGAND FREE ENERGY PREDICTED BY IDOCK:   -1.37 KCAL/MOL
REMARK 927      BINDING AFFINITY PREDICTED BY RF-SCORE:    0.00 PKD
ROOT
HETATM    1  C   UNL     1      -6.005   7.132  65.349  1.00  0.00    -0.037 C  
HETATM    2  N   UNL     1      -6.996   7.859  66.140  1.00  0.00    -0.061 N  
HETATM    3  O   UNL     1      -8.655   7.114  64.709  1.00  0.00     0.046 OA 
HETATM    4  C   UNL     1      -8.330   7.807  65.667  1.00  0.00    -0.139 C  
ENDROOT
BRANCH   2   5
HETATM    5  C   UNL     1      -6.546   8.322  67.467  1.00  0.00    -0.058 C  
BRANCH   5   6
HETATM    6  C   UNL     1      -6.738   7.410  68.678  1.00  0.00    -0.057 C  
HETATM    7  H   UNL     1      -6.555   5.487  69.093  1.00  0.00     0.000 HD 
HETATM    8  O   UNL     1      -6.436   6.054  68.340  1.00  0.00    -0.044 OA 
BRANCH   6   9
HETATM    9  C   UNL     1      -5.773   7.889  69.788  1.00  0.00    -0.023 C  
HETATM   10  H   UNL     1      -4.954   9.584  70.438  1.00  0.00     0.000 HD 
HETATM   11  O   UNL     1      -5.546   9.290  69.756  1.00  0.00    -0.032 OA 
ENDBRANCH   6   9
ENDBRANCH   5   6
ENDBRANCH   2   5
BRANCH   4  12
HETATM   12  C   UNL     1      -9.428   8.578  66.341  1.00  0.00    -0.297 A  
HETATM   13  C   UNL     1     -10.123   7.974  67.394  1.00  0.00    -0.228 A  
HETATM   14  C   UNL     1      -9.857   9.878  65.920  1.00  0.00    -0.274 A  
HETATM   15  C   UNL     1     -10.781  10.642  66.701  1.00  0.00    -0.246 A  
HETATM   16  I   UNL     1      -9.105  10.636  64.041  1.00  0.00    -0.224 I  
HETATM   17  I   UNL     1     -10.229   5.818  67.475  1.00  0.00    -0.326 I  
HETATM   18  C   UNL     1     -11.138  10.109  67.962  1.00  0.00    -0.240 A  
HETATM   19  I   UNL     1     -11.563  11.467  69.586  1.00  0.00    -0.413 I  
HETATM   20  C   UNL     1     -10.904   8.742  68.277  1.00  0.00     0.032 A  
BRANCH  15  21
HETATM   21  C   UNL     1     -11.245  12.010  66.221  1.00  0.00    -0.342 C  
HETATM   22  O   UNL     1     -12.303  12.068  65.588  1.00  0.00    -0.470 OA 
HETATM   23  N   UNL     1     -10.567  13.202  66.552  1.00  0.00    -0.282 N  
HETATM   24  C   UNL     1      -9.148  13.318  66.873  1.00  0.00    -0.232 C  
BRANCH  23  25
HETATM   25  C   UNL     1     -11.271  14.489  66.323  1.00  0.00    -0.342 C  
BRANCH  25  26
HETATM   26  C   UNL     1     -10.381  15.750  66.308  1.00  0.00    -0.310 C  
HETATM   27  H   UNL     1     -10.013  17.316  65.115  1.00  0.00     0.000 HD 
HETATM   28  O   UNL     1     -10.560  16.540  65.124  1.00  0.00    -0.632 OA 
BRANCH  26  29
HETATM   29  C   UNL     1     -10.699  16.681  67.491  1.00  0.00    -0.278 C  
HETATM   30  H   UNL     1      -9.680  17.775  68.773  1.00  0.00     0.000 HD 
HETATM   31  O   UNL     1      -9.484  17.200  68.043  1.00  0.00    -0.251 OA 
ENDBRANCH  26  29
ENDBRANCH  25  26
ENDBRANCH  23  25
ENDBRANCH  15  21
BRANCH  20  32
HETATM   32  N   UNL     1     -11.334   8.127  69.489  1.00  0.00    -0.420 N  
HETATM   33  C   UNL     1     -10.500   8.005  70.593  1.00  0.00    -0.210 C  
HETATM   34  H   UNL     1     -12.285   7.764  69.547  1.00  0.00     0.000 HD 
HETATM   35  H   UNL     1     -13.757   9.457  71.934  1.00  0.00     0.000 HD 
HETATM   36  H   UNL     1      -8.797   7.723  74.035  1.00  0.00     0.000 HD 
HETATM   37  C   UNL     1     -11.216   7.467  71.836  1.00  0.00    -0.282 C  
HETATM   38  O   UNL     1      -9.321   8.355  70.609  1.00  0.00    -0.152 OA 
HETATM   39  O   UNL     1      -9.426   8.034  73.394  1.00  0.00    -0.279 OA 
HETATM   40  O   UNL     1     -13.199   8.789  71.554  1.00  0.00    -0.333 OA 
HETATM   41  C   UNL     1     -12.113   8.541  72.447  1.00  0.00    -0.367 C  
HETATM   42  C   UNL     1     -10.206   6.968  72.864  1.00  0.00    -0.215 C  
ENDBRANCH  20  32
ENDBRANCH   4  12
TORSDOF 9
ENDMDL
MODEL        3
REMARK 921   NORMALIZED FREE ENERGY PREDICTED BY IDOCK:   -5.25 KCAL/MOL
REMARK 922        TOTAL FREE ENERGY PREDICTED BY IDOCK:   -9.32 KCAL/MOL
REMARK 923 INTER-LIGAND FREE ENERGY PREDICTED BY IDOCK:   -8.30 KCAL/MOL
REMARK 924 INTRA-LIGAND FREE ENERGY PREDICTED BY IDOCK:   -1.01 KCAL/MOL
REMARK 927      BINDING AFFINITY PREDICTED BY RF-SCORE:    0.00 PKD
ROOT
HETATM    1  C   UNL     1      -9.018   8.156  73.152  1.00  0.00    -0.261 C  
HETATM    2  N   UNL     1      -9.506   8.017  71.780  1.00  0.00    -0.157 N  
HETATM    3  O   UNL     1      -7.943   9.577  71.088  1.00  0.00    -0.315 OA 
HETATM    4  C   UNL     1      -8.894   8.853  70.814  1.00  0.00    -0.208 C  
ENDROOT
BRANCH   2   5
HETATM    5  C   UNL     1     -10.370   6.850  71.520  1.00  0.00    -0.203 C  
BRANCH   5   6
HETATM    6  C   UNL     1     -11.589   6.612  72.411  1.00  0.00    -0.245 C  
HETATM    7  H   UNL     1     -13.554   6.578  72.208  1.00  0.00     0.000 HD 
HETATM    8  O   UNL     1     -12.797   6.726  71.653  1.00  0.00    -0.358 OA 
BRANCH   6   9
HETATM    9  C   UNL     1     -11.479   5.183  72.991  1.00  0.00    -0.274 C  
HETATM   10  H   UNL     1     -10.409   3.526  72.711  1.00  0.00     0.000 HD 
HETATM   11  O   UNL     1     -10.476   4.404  72.355  1.00  0.00    -0.190 OA 
ENDBRANCH   6   9
ENDBRANCH   5   6
ENDBRANCH   2   5
BRANCH   4  12
HETATM   12  C   UNL     1      -9.360   8.867  69.387  1.00  0.00    -0.153 A  
HETATM   13  C   UNL     1     -10.375   9.758  69.022  1.00  0.00    -0.208 A  
HETATM   14  C   UNL     1      -8.873   7.967  68.386  1.00  0.00    -0.130 A  
HETATM   15  C   UNL     1      -9.215   8.137  67.007  1.00  0.00    -0.187 A  
HETATM   16  I   UNL     1      -7.642   6.309  69.023  1.00  0.00    -0.099 I  
HETATM   17  I   UNL     1     -11.769  10.427  70.529  1.00  0.00    -0.453 I  
HETATM   18  C   UNL     1      -9.939   9.306  66.673  1.00  0.00    -0.264 A  
HETATM   19  I   UNL     1      -9.608  10.224  64.746  1.00  0.00    -0.353 I  
HETATM   20  C   UNL     1     -10.611  10.066  67.670  1.00  0.00    -0.270 A  
BRANCH  15  21
HETATM   21  C   UNL     1      -8.709   7.153  65.962  1.00  0.00    -0.147 C  
HETATM   22  O   UNL     1      -7.765   7.506  65.251  1.00  0.00    -0.097 OA 
HETATM   23  N   UNL     1      -9.213   5.840  65.847  1.00  0.00    -0.146 N  
HETATM   24  C   UNL     1     -10.545   5.397  66.245  1.00  0.00    -0.208 C  
BRANCH  23  25
HETATM   25  C   UNL     1      -8.439   4.867  65.036  1.00  0.00    -0.142 C  
BRANCH  25  26
HETATM   26  C   UNL     1      -9.110   4.395  63.728  1.00  0.00    -0.136 C  
HETATM   27  H   UNL     1      -8.836   4.568  61.751  1.00  0.00     0.000 HD 
HETATM   28  O   UNL     1      -8.423   4.858  62.557  1.00  0.00    -0.095 OA 
BRANCH  26  29
HETATM   29  C   UNL     1      -9.136   2.860  63.626  1.00  0.00    -0.096 C  
HETATM   30  H   UNL     1      -9.324   1.341  64.865  1.00  0.00     0.000 HD 
HETATM   31  O   UNL     1      -9.307   2.289  64.928  1.00  0.00    -0.139 OA 
ENDBRANCH  26  29
ENDBRANCH  25  26
ENDBRANCH  23  25
ENDBRANCH  15  21
BRANCH  20  32
HETATM   32  N   UNL     1     -11.438  11.191  67.380  1.00  0.00    -0.253 N  
HETATM   33  C   UNL     1     -10.957  12.493  67.424  1.00  0.00    -0.259 C  
HETATM   34  H   UNL     1     -12.415  11.033  67.133  1.00  0.00     0.000 HD 
HETATM   35  H   UNL     1     -12.778  12.193  64.091  1.00  0.00     0.000 HD 
HETATM   36  H   UNL     1     -10.107  16.228  67.024  1.00  0.00     0.000 HD 
HETATM   37  C   UNL     1     -11.967  13.529  66.916  1.00  0.00    -0.447 C  
HETATM   38  O   UNL     1      -9.815  12.796  67.765  1.00  0.00    -0.208 OA 
HETATM   39  O   UNL     1     -10.356  15.354  66.746  1.00  0.00    -0.267 OA 
HETATM   40  O   UNL     1     -12.706  12.232  65.037  1.00  0.00    -0.581 OA 
HETATM   41  C   UNL     1     -12.083  13.465  65.395  1.00  0.00    -0.421 C  
HETATM   42  C   UNL     1     -11.568  14.931  67.362  1.00  0.00    -0.332 C  
ENDBRANCH  20  32
ENDBRANCH   4  12
TORSDOF 9
ENDMDL
MODEL        4
REMARK 921   NORMALIZED FREE ENERGY PREDICTED BY IDOCK:   -5.17 KCAL/MOL
REMARK 922        TOTAL FREE ENERGY PREDICTED BY IDOCK:   -9.19 KCAL/MOL
REMARK 923 INTER-LIGAND FREE ENERGY PREDICTED BY IDOCK:   -8.06 KCAL/MOL
REMARK 924 INTRA-LIGAND FREE ENERGY PREDICTED BY IDOCK:   -1.13 KCAL/MOL
REMARK 927      BINDING AFFINITY PREDICTED BY RF-SCORE:    0.00 PKD
ROOT
HETATM    1  C   UNL     1     -12.530  12.006  63.263  1.00  0.00    -0.425 C  
HETATM    2  N   UNL     1     -11.409  12.513  64.054  1.00  0.00    -0.371 N  
HETATM    3  O   UNL     1     -12.869  12.974  65.789  1.00  0.00    -0.411 OA 
HETATM    4  C   UNL     1     -11.734  13.034  65.331  1.00  0.00    -0.364 C  
ENDROOT
BRANCH   2   5
HETATM    5  C   UNL     1     -10.063  12.176  63.553  1.00  0.00    -0.383 C  
BRANCH   5   6
HETATM    6  C   UNL     1      -9.730  10.717  63.241  1.00  0.00    -0.355 C  
HETATM    7  H   UNL     1      -8.371   9.727  62.201  1.00  0.00     0.000 HD 
HETATM    8  O   UNL     1      -8.579  10.634  62.395  1.00  0.00    -0.202 OA 
BRANCH   6   9
HETATM    9  C   UNL     1      -9.434  10.003  64.580  1.00  0.00    -0.305 C  
HETATM   10  H   UNL     1      -8.445   8.406  65.245  1.00  0.00     0.000 HD 
HETATM   11  O   UNL     1      -8.627   8.845  64.422  1.00  0.00    -0.173 OA 
ENDBRANCH   6   9
ENDBRANCH   5   6
ENDBRANCH   2   5
BRANCH   4  12
HETATM   12  C   UNL     1     -10.687  13.660  66.208  1.00  0.00    -0.285 A  
HETATM   13  C   UNL     1     -10.172  12.914  67.273  1.00  0.00    -0.234 A  
HETATM   14  C   UNL     1     -10.236  15.011  66.060  1.00  0.00    -0.301 A  
HETATM   15  C   UNL     1      -9.116  15.501  66.803  1.00  0.00    -0.282 A  
HETATM   16  I   UNL     1     -11.326  16.306  64.717  1.00  0.00     0.527 I  
HETATM   17  I   UNL     1     -11.383  11.348  68.135  1.00  0.00    -0.379 I  
HETATM   18  C   UNL     1      -8.403  14.555  67.577  1.00  0.00    -0.188 A  
HETATM   19  I   UNL     1      -6.274  14.806  67.834  1.00  0.00    -0.072 I  
HETATM   20  C   UNL     1      -8.973  13.293  67.904  1.00  0.00    -0.199 A  
BRANCH  15  21
HETATM   21  C   UNL     1      -8.668  16.948  66.652  1.00  0.00    -0.247 C  
HETATM   22  O   UNL     1      -7.831  17.202  65.781  1.00  0.00    -0.449 OA 
HETATM   23  N   UNL     1      -9.238  18.003  67.396  1.00  0.00    -0.252 N  
HETATM   24  C   UNL     1      -9.865  17.882  68.708  1.00  0.00    -0.352 C  
BRANCH  23  25
HETATM   25  C   UNL     1      -8.976  19.393  66.946  1.00  0.00    -0.310 C  
BRANCH  25  26
HETATM   26  C   UNL     1      -7.948  20.188  67.780  1.00  0.00    -0.266 C  
HETATM   27  H   UNL     1      -6.605  19.853  69.227  1.00  0.00     0.000 HD 
HETATM   28  O   UNL     1      -7.237  19.364  68.714  1.00  0.00    -0.326 OA 
BRANCH  26  29
HETATM   29  C   UNL     1      -6.878  20.840  66.887  1.00  0.00    -0.304 C  
HETATM   30  H   UNL     1      -6.366  20.789  64.986  1.00  0.00     0.000 HD 
HETATM   31  O   UNL     1      -7.028  20.387  65.538  1.00  0.00    -0.276 OA 
ENDBRANCH  26  29
ENDBRANCH  25  26
ENDBRANCH  23  25
ENDBRANCH  15  21
BRANCH  20  32
HETATM   32  N   UNL     1      -8.347  12.344  68.764  1.00  0.00    -0.347 N  
HETATM   33  C   UNL     1      -7.514  11.344  68.280  1.00  0.00    -0.101 C  
HETATM   34  H   UNL     1      -8.516  12.402  69.768  1.00  0.00     0.000 HD 
HETATM   35  H   UNL     1      -5.598  12.960  71.148  1.00  0.00     0.000 HD 
HETATM   36  H   UNL     1      -4.866   8.640  67.568  1.00  0.00     0.000 HD 
HETATM   37  C   UNL     1      -6.819  10.545  69.387  1.00  0.00    -0.088 C  
HETATM   38  O   UNL     1      -7.290  11.151  67.086  1.00  0.00    -0.106 OA 
HETATM   39  O   UNL     1      -5.211   9.457  67.910  1.00  0.00    -0.037 OA 
HETATM   40  O   UNL     1      -6.293  12.448  70.752  1.00  0.00    -0.042 OA 
HETATM   41  C   UNL     1      -5.704  11.369  70.025  1.00  0.00    -0.113 C  
HETATM   42  C   UNL     1      -6.266   9.234  68.839  1.00  0.00    -0.043 C  
ENDBRANCH  20  32
ENDBRANCH   4  12
TORSDOF 9
ENDMDL
MODEL        5
REMARK 921   NORMALIZED FREE ENERGY PREDICTED BY IDOCK:   -5.14 KCAL/MOL
REMARK 922        TOTAL FREE ENERGY PREDICTED BY IDOCK:   -9.14 KCAL/MOL
REMARK 923 INTER-LIGAND FREE ENERGY PREDICTED BY IDOCK:   -7.98 KCAL/MOL
REMARK 924 INTRA-LIGAND FREE ENERGY PREDICTED BY IDOCK:   -1.16 KCAL/MOL
REMARK 927      BINDING AFFINITY PREDICTED BY RF-SCORE:    0.00 PKD
ROOT
HETATM    1  C   UNL     1     -11.441   6.580  72.041  1.00  0.00    -0.300 C  
HETATM    2  N   UNL     1     -10.954   7.138  70.781  1.00  0.00    -0.245 N  
HETATM    3  O   UNL     1     -10.063   8.930  71.943  1.00  0.00    -0.321 OA 
HETATM    4  C   UNL     1     -10.299   8.391  70.867  1.00  0.00    -0.194 C  
ENDROOT
BRANCH   2   5
HETATM    5  C   UNL     1     -10.957   6.219  69.626  1.00  0.00    -0.374 C  
BRANCH   5   6
HETATM    6  C   UNL     1      -9.716   5.371  69.347  1.00  0.00    -0.165 C  
HETATM    7  H   UNL     1      -8.623   4.035  70.308  1.00  0.00     0.000 HD 
HETATM    8  O   UNL     1      -9.394   4.562  70.482  1.00  0.00    -0.124 OA 
BRANCH   6   9
HETATM    9  C   UNL     1     -10.029   4.459  68.139  1.00  0.00     0.001 C  
HETATM   10  H   UNL     1      -9.622   2.616  67.503  1.00  0.00     0.000 HD 
HETATM   11  O   UNL     1      -9.429   3.176  68.245  1.00  0.00    -0.193 OA 
ENDBRANCH   6   9
ENDBRANCH   5   6
ENDBRANCH   2   5
BRANCH   4  12
HETATM   12  C   UNL     1      -9.825   9.111  69.637  1.00  0.00    -0.188 A  
HETATM   13  C   UNL     1      -8.570   8.785  69.112  1.00  0.00    -0.128 A  
HETATM   14  C   UNL     1     -10.556  10.169  69.008  1.00  0.00    -0.223 A  
HETATM   15  C   UNL     1     -10.150  10.698  67.743  1.00  0.00    -0.203 A  
HETATM   16  I   UNL     1     -12.268  10.978  70.048  1.00  0.00    -0.317 I  
HETATM   17  I   UNL     1      -7.064   7.973  70.429  1.00  0.00    -0.047 I  
HETATM   18  C   UNL     1      -9.082  10.037  67.091  1.00  0.00    -0.138 A  
HETATM   19  I   UNL     1      -9.061   9.962  64.933  1.00  0.00    -0.318 I  
HETATM   20  C   UNL     1      -8.220   9.155  67.800  1.00  0.00    -0.109 A  
BRANCH  15  21
HETATM   21  C   UNL     1     -10.926  11.842  67.104  1.00  0.00    -0.276 C  
HETATM   22  O   UNL     1     -12.026  11.582  66.609  1.00  0.00    -0.428 OA 
HETATM   23  N   UNL     1     -10.479  13.179  67.142  1.00  0.00    -0.246 N  
HETATM   24  C   UNL     1      -9.091  13.614  67.257  1.00  0.00    -0.228 C  
BRANCH  23  25
HETATM   25  C   UNL     1     -11.449  14.247  66.791  1.00  0.00    -0.367 C  
BRANCH  25  26
HETATM   26  C   UNL     1     -11.478  14.670  65.307  1.00  0.00    -0.361 C  
HETATM   27  H   UNL     1     -12.815  14.881  63.830  1.00  0.00     0.000 HD 
HETATM   28  O   UNL     1     -12.797  14.621  64.743  1.00  0.00    -0.542 OA 
BRANCH  26  29
HETATM   29  C   UNL     1     -10.990  16.117  65.120  1.00  0.00    -0.316 C  
HETATM   30  H   UNL     1     -11.308  17.589  63.851  1.00  0.00     0.000 HD 
HETATM   31  O   UNL     1     -11.609  16.695  63.967  1.00  0.00    -1.197 OA 
ENDBRANCH  26  29
ENDBRANCH  25  26
ENDBRANCH  23  25
ENDBRANCH  15  21
BRANCH  20  32
HETATM   32  N   UNL     1      -7.070   8.543  67.223  1.00  0.00    -0.075 N  
HETATM   33  C   UNL     1      -7.134   7.326  66.557  1.00  0.00    -0.078 C  
HETATM   34  H   UNL     1      -6.169   9.015  67.301  1.00  0.00     0.000 HD 
HETATM   35  H   UNL     1      -5.209   9.653  64.235  1.00  0.00     0.000 HD 
HETATM   36  H   UNL     1      -6.774   4.216  64.315  1.00  0.00     0.000 HD 
HETATM   37  C   UNL     1      -5.819   6.939  65.873  1.00  0.00    -0.035 C  
HETATM   38  O   UNL     1      -8.156   6.649  66.456  1.00  0.00    -0.106 OA 
HETATM   39  O   UNL     1      -6.779   5.141  64.531  1.00  0.00    -0.045 OA 
HETATM   40  O   UNL     1      -5.348   9.130  65.015  1.00  0.00    -0.041 OA 
HETATM   41  C   UNL     1      -5.596   7.781  64.620  1.00  0.00    -0.033 C  
HETATM   42  C   UNL     1      -5.810   5.454  65.526  1.00  0.00    -0.021 C  
ENDBRANCH  20  32
ENDBRANCH   4  12
TORSDOF 9
ENDMDL
MODEL        6
REMARK 921   NORMALIZED FREE ENERGY PREDICTED BY IDOCK:   -5.10 KCAL/MOL
REMARK 922        TOTAL FREE ENERGY PREDICTED BY IDOCK:   -9.08 KCAL/MOL
REMARK 923 INTER-LIGAND FREE ENERGY PREDICTED BY IDOCK:   -8.06 KCAL/MOL
REMARK 924 INTRA-LIGAND FREE ENERGY PREDICTED BY IDOCK:   -1.02 KCAL/MOL
REMARK 927      BINDING AFFINITY PREDICTED BY RF-SCORE:    0.00 PKD
ROOT
HETATM    1  C   UNL     1      -6.249   4.648  65.483  1.00  0.00    -0.034 C  
HETATM    2  N   UNL     1      -7.435   5.494  65.606  1.00  0.00    -0.076 N  
HETATM    3  O   UNL     1      -6.362   6.726  67.245  1.00  0.00    -0.043 OA 
HETATM    4  C   UNL     1      -7.379   6.505  66.596  1.00  0.00    -0.078 C  
ENDROOT
BRANCH   2   5
HETATM    5  C   UNL     1      -8.425   5.376  64.518  1.00  0.00    -0.117 C  
BRANCH   5   6
HETATM    6  C   UNL     1      -8.642   4.015  63.856  1.00  0.00    -0.103 C  
HETATM    7  H   UNL     1      -9.555   2.317  64.288  1.00  0.00     0.000 HD 
HETATM    8  O   UNL     1      -9.420   3.162  64.700  1.00  0.00    -0.142 OA 
BRANCH   6   9
HETATM    9  C   UNL     1      -9.401   4.252  62.529  1.00  0.00    -0.123 C  
HETATM   10  H   UNL     1     -11.259   4.141  61.820  1.00  0.00     0.000 HD 
HETATM   11  O   UNL     1     -10.794   3.995  62.635  1.00  0.00    -0.187 OA 
ENDBRANCH   6   9
ENDBRANCH   5   6
ENDBRANCH   2   5
BRANCH   4  12
HETATM   12  C   UNL     1      -8.561   7.387  66.880  1.00  0.00    -0.120 A  
HETATM   13  C   UNL     1      -9.506   6.961  67.819  1.00  0.00    -0.122 A  
HETATM   14  C   UNL     1      -8.817   8.614  66.187  1.00  0.00    -0.171 A  
HETATM   15  C   UNL     1      -9.854   9.502  66.615  1.00  0.00    -0.293 A  
HETATM   16  I   UNL     1      -7.623   9.065  64.444  1.00  0.00    -0.134 I  
HETATM   17  I   UNL     1      -9.735   4.845  68.185  1.00  0.00    -0.142 I  
HETATM   18  C   UNL     1     -10.513   9.174  67.823  1.00  0.00    -0.247 A  
HETATM   19  I   UNL     1     -11.226  10.770  69.091  1.00  0.00    -0.397 I  
HETATM   20  C   UNL     1     -10.426   7.867  68.378  1.00  0.00    -0.166 A  
BRANCH  15  21
HETATM   21  C   UNL     1     -10.128  10.788  65.848  1.00  0.00    -0.256 C  
HETATM   22  O   UNL     1     -10.890  10.728  64.879  1.00  0.00    -0.191 OA 
HETATM   23  N   UNL     1      -9.624  12.041  66.258  1.00  0.00    -0.228 N  
HETATM   24  C   UNL     1      -8.416  12.260  67.046  1.00  0.00    -0.181 C  
BRANCH  23  25
HETATM   25  C   UNL     1     -10.212  13.260  65.649  1.00  0.00    -0.289 C  
BRANCH  25  26
HETATM   26  C   UNL     1     -11.453  13.839  66.361  1.00  0.00    -0.336 C  
HETATM   27  H   UNL     1     -11.954  15.458  67.429  1.00  0.00     0.000 HD 
HETATM   28  O   UNL     1     -11.190  15.102  66.991  1.00  0.00    -0.335 OA 
BRANCH  26  29
HETATM   29  C   UNL     1     -12.608  14.087  65.375  1.00  0.00    -0.505 C  
HETATM   30  H   UNL     1     -13.819  12.991  64.276  1.00  0.00     0.000 HD 
HETATM   31  O   UNL     1     -13.106  12.838  64.885  1.00  0.00    -0.833 OA 
ENDBRANCH  26  29
ENDBRANCH  25  26
ENDBRANCH  23  25
ENDBRANCH  15  21
BRANCH  20  32
HETATM   32  N   UNL     1     -11.149   7.451  69.533  1.00  0.00    -0.435 N  
HETATM   33  C   UNL     1     -10.561   7.385  70.790  1.00  0.00    -0.223 C  
HETATM   34  H   UNL     1     -12.130   7.192  69.434  1.00  0.00     0.000 HD 
HETATM   35  H   UNL     1     -13.816   9.302  71.289  1.00  0.00     0.000 HD 
HETATM   36  H   UNL     1      -9.590   7.366  74.517  1.00  0.00     0.000 HD 
HETATM   37  C   UNL     1     -11.560   7.077  71.911  1.00  0.00    -0.320 C  
HETATM   38  O   UNL     1      -9.374   7.619  71.009  1.00  0.00    -0.152 OA 
HETATM   39  O   UNL     1     -10.044   7.655  73.733  1.00  0.00    -0.293 OA 
HETATM   40  O   UNL     1     -13.280   8.540  71.099  1.00  0.00    -0.180 OA 
HETATM   41  C   UNL     1     -12.421   8.300  72.214  1.00  0.00    -0.335 C  
HETATM   42  C   UNL     1     -10.831   6.613  73.167  1.00  0.00    -0.269 C  
ENDBRANCH  20  32
ENDBRANCH   4  12
TORSDOF 9
ENDMDL
MODEL        7
REMARK 921   NORMALIZED FREE ENERGY PREDICTED BY IDOCK:   -5.06 KCAL/MOL
REMARK 922        TOTAL FREE ENERGY PREDICTED BY IDOCK:   -9.02 KCAL/MOL
REMARK 923 INTER-LIGAND FREE ENERGY PREDICTED BY IDOCK:   -7.57 KCAL/MOL
REMARK 924 INTRA-LIGAND FREE ENERGY PREDICTED BY IDOCK:   -1.45 KCAL/MOL
REMARK 927      BINDING AFFINITY PREDICTED BY RF-SCORE:    0.00 PKD
ROOT
HETATM    1  C   UNL     1     -11.575  14.655  67.334  1.00  0.00    -0.389 C  
HETATM    2  N   UNL     1     -10.705  13.559  67.757  1.00  0.00    -0.249 N  
HETATM    3  O   UNL     1     -12.142  12.054  66.746  1.00  0.00    -0.613 OA 
HETATM    4  C   UNL     1     -11.145  12.253  67.430  1.00  0.00    -0.282 C  
ENDROOT
BRANCH   2   5
HETATM    5  C   UNL     1      -9.360  13.948  68.223  1.00  0.00    -0.209 C  
BRANCH   5   6
HETATM    6  C   UNL     1      -8.193  13.918  67.236  1.00  0.00    -0.161 C  
HETATM    7  H   UNL     1      -6.975  15.220  66.384  1.00  0.00     0.000 HD 
HETATM    8  O   UNL     1      -7.700  15.239  66.998  1.00  0.00    -0.208 OA 
BRANCH   6   9
HETATM    9  C   UNL     1      -7.069  13.057  67.859  1.00  0.00    -0.128 C  
HETATM   10  H   UNL     1      -5.692  11.738  67.283  1.00  0.00     0.000 HD 
HETATM   11  O   UNL     1      -6.382  12.267  66.900  1.00  0.00    -0.141 OA 
ENDBRANCH   6   9
ENDBRANCH   5   6
ENDBRANCH   2   5
BRANCH   4  12
HETATM   12  C   UNL     1     -10.385  11.038  67.880  1.00  0.00    -0.213 A  
HETATM   13  C   UNL     1      -9.477  10.449  66.993  1.00  0.00    -0.163 A  
HETATM   14  C   UNL     1     -10.590  10.399  69.145  1.00  0.00    -0.228 A  
HETATM   15  C   UNL     1      -9.721   9.357  69.597  1.00  0.00    -0.202 A  
HETATM   16  I   UNL     1     -12.283  11.023  70.335  1.00  0.00    -0.443 I  
HETATM   17  I   UNL     1      -9.773  10.706  64.870  1.00  0.00    -0.423 I  
HETATM   18  C   UNL     1      -8.583   9.088  68.800  1.00  0.00    -0.132 A  
HETATM   19  I   UNL     1      -6.765   8.433  69.762  1.00  0.00    -0.040 I  
HETATM   20  C   UNL     1      -8.502   9.546  67.455  1.00  0.00    -0.126 A  
BRANCH  15  21
HETATM   21  C   UNL     1      -9.973   8.672  70.933  1.00  0.00    -0.206 C  
HETATM   22  O   UNL     1      -9.413   9.136  71.930  1.00  0.00    -0.332 OA 
HETATM   23  N   UNL     1     -10.881   7.603  71.081  1.00  0.00    -0.232 N  
HETATM   24  C   UNL     1     -11.272   6.662  70.036  1.00  0.00    -0.369 C  
BRANCH  23  25
HETATM   25  C   UNL     1     -11.300   7.230  72.455  1.00  0.00    -0.296 C  
BRANCH  25  26
HETATM   26  C   UNL     1     -10.403   6.201  73.177  1.00  0.00    -0.219 C  
HETATM   27  H   UNL     1      -9.585   5.926  74.985  1.00  0.00     0.000 HD 
HETATM   28  O   UNL     1     -10.136   6.560  74.540  1.00  0.00    -0.344 OA 
BRANCH  26  29
HETATM   29  C   UNL     1     -11.061   4.811  73.223  1.00  0.00    -0.333 C  
HETATM   30  H   UNL     1     -11.349   3.402  74.569  1.00  0.00     0.000 HD 
HETATM   31  O   UNL     1     -10.943   4.261  74.540  1.00  0.00    -0.238 OA 
ENDBRANCH  26  29
ENDBRANCH  25  26
ENDBRANCH  23  25
ENDBRANCH  15  21
BRANCH  20  32
HETATM   32  N   UNL     1      -7.430   9.220  66.574  1.00  0.00    -0.092 N  
HETATM   33  C   UNL     1      -7.439   8.073  65.791  1.00  0.00    -0.081 C  
HETATM   34  H   UNL     1      -6.630   9.850  66.518  1.00  0.00     0.000 HD 
HETATM   35  H   UNL     1      -6.532  10.916  63.422  1.00  0.00     0.000 HD 
HETATM   36  H   UNL     1      -7.083   5.290  63.153  1.00  0.00     0.000 HD 
HETATM   37  C   UNL     1      -6.271   8.008  64.800  1.00  0.00    -0.049 C  
HETATM   38  O   UNL     1      -8.325   7.221  65.825  1.00  0.00    -0.128 OA 
HETATM   39  O   UNL     1      -7.195   6.176  63.479  1.00  0.00    -0.046 OA 
HETATM   40  O   UNL     1      -6.394  10.312  64.142  1.00  0.00    -0.132 OA 
HETATM   41  C   UNL     1      -6.493   8.978  63.643  1.00  0.00    -0.089 C  
HETATM   42  C   UNL     1      -6.090   6.587  64.276  1.00  0.00    -0.034 C  
ENDBRANCH  20  32
ENDBRANCH   4  12
TORSDOF 9
ENDMDL
MODEL        8
REMARK 921   NORMALIZED FREE ENERGY PREDICTED BY IDOCK:   -5.00 KCAL/MOL
REMARK 922        TOTAL FREE ENERGY PREDICTED BY IDOCK:   -8.94 KCAL/MOL
REMARK 923 INTER-LIGAND FREE ENERGY PREDICTED BY IDOCK:   -7.46 KCAL/MOL
REMARK 924 INTRA-LIGAND FREE ENERGY PREDICTED BY IDOCK:   -1.48 KCAL/MOL
REMARK 927      BINDING AFFINITY PREDICTED BY RF-SCORE:    0.00 PKD
ROOT
HETATM    1  C   UNL     1      -6.291   6.379  65.452  1.00  0.00    -0.038 C  
HETATM    2  N   UNL     1      -7.240   7.117  66.284  1.00  0.00    -0.073 N  
HETATM    3  O   UNL     1      -5.467   8.176  67.329  1.00  0.00    -0.035 OA 
HETATM    4  C   UNL     1      -6.675   7.981  67.255  1.00  0.00    -0.065 C  
ENDROOT
BRANCH   2   5
HETATM    5  C   UNL     1      -8.646   7.086  65.839  1.00  0.00    -0.145 C  
BRANCH   5   6
HETATM    6  C   UNL     1      -9.523   5.895  66.228  1.00  0.00    -0.139 C  
HETATM    7  H   UNL     1      -9.326   4.222  67.260  1.00  0.00     0.000 HD 
HETATM    8  O   UNL     1      -8.782   4.961  67.018  1.00  0.00    -0.105 OA 
BRANCH   6   9
HETATM    9  C   UNL     1     -10.713   6.435  67.055  1.00  0.00    -0.363 C  
HETATM   10  H   UNL     1     -11.498   8.185  67.592  1.00  0.00     0.000 HD 
HETATM   11  O   UNL     1     -10.767   7.854  67.084  1.00  0.00    -0.326 OA 
ENDBRANCH   6   9
ENDBRANCH   5   6
ENDBRANCH   2   5
BRANCH   4  12
HETATM   12  C   UNL     1      -7.539   8.732  68.227  1.00  0.00    -0.096 A  
HETATM   13  C   UNL     1      -7.903  10.048  67.922  1.00  0.00    -0.090 A  
HETATM   14  C   UNL     1      -7.953   8.203  69.491  1.00  0.00    -0.113 A  
HETATM   15  C   UNL     1      -8.917   8.885  70.299  1.00  0.00    -0.201 A  
HETATM   16  I   UNL     1      -7.045   6.362  70.169  1.00  0.00    -0.080 I  
HETATM   17  I   UNL     1      -6.632  11.209  66.618  1.00  0.00    -0.055 I  
HETATM   18  C   UNL     1      -9.531  10.025  69.728  1.00  0.00    -0.207 A  
HETATM   19  I   UNL     1     -11.578  10.478  70.245  1.00  0.00    -0.438 I  
HETATM   20  C   UNL     1      -8.966  10.676  68.596  1.00  0.00    -0.170 A  
BRANCH  15  21
HETATM   21  C   UNL     1      -9.324   8.319  71.652  1.00  0.00    -0.192 C  
HETATM   22  O   UNL     1      -8.721   8.724  72.649  1.00  0.00    -0.408 OA 
HETATM   23  N   UNL     1     -10.411   7.433  71.810  1.00  0.00    -0.197 N  
HETATM   24  C   UNL     1     -10.931   6.528  70.791  1.00  0.00    -0.276 C  
BRANCH  23  25
HETATM   25  C   UNL     1     -10.928   7.205  73.182  1.00  0.00    -0.305 C  
BRANCH  25  26
HETATM   26  C   UNL     1     -10.609   5.828  73.803  1.00  0.00    -0.260 C  
HETATM   27  H   UNL     1     -11.285   3.944  73.711  1.00  0.00     0.000 HD 
HETATM   28  O   UNL     1     -11.482   4.792  73.329  1.00  0.00    -0.332 OA 
BRANCH  26  29
HETATM   29  C   UNL     1      -9.181   5.370  73.461  1.00  0.00    -0.130 C  
HETATM   30  H   UNL     1      -8.341   3.833  72.560  1.00  0.00     0.000 HD 
HETATM   31  O   UNL     1      -9.224   4.116  72.771  1.00  0.00    -0.114 OA 
ENDBRANCH  26  29
ENDBRANCH  25  26
ENDBRANCH  23  25
ENDBRANCH  15  21
BRANCH  20  32
HETATM   32  N   UNL     1      -9.482  11.884  68.042  1.00  0.00    -0.191 N  
HETATM   33  C   UNL     1     -10.361  11.889  66.968  1.00  0.00    -0.212 C  
HETATM   34  H   UNL     1      -9.194  12.774  68.450  1.00  0.00     0.000 HD 
HETATM   35  H   UNL     1     -11.930  14.180  69.577  1.00  0.00     0.000 HD 
HETATM   36  H   UNL     1     -13.063  12.502  64.292  1.00  0.00     0.000 HD 
HETATM   37  C   UNL     1     -10.916  13.281  66.646  1.00  0.00    -0.297 C  
HETATM   38  O   UNL     1     -10.725  10.879  66.369  1.00  0.00    -0.249 OA 
HETATM   39  O   UNL     1     -12.684  12.486  65.164  1.00  0.00    -0.659 OA 
HETATM   40  O   UNL     1     -11.285  13.919  68.930  1.00  0.00    -0.246 OA 
HETATM   41  C   UNL     1     -11.952  13.701  67.686  1.00  0.00    -0.351 C  
HETATM   42  C   UNL     1     -11.525  13.307  65.248  1.00  0.00    -0.295 C  
ENDBRANCH  20  32
ENDBRANCH   4  12
TORSDOF 9
ENDMDL
MODEL        9
REMARK 921   NORMALIZED FREE ENERGY PREDICTED BY IDOCK:   -5.00 KCAL/MOL
REMARK 922        TOTAL FREE ENERGY PREDICTED BY IDOCK:   -8.93 KCAL/MOL
REMARK 923 INTER-LIGAND FREE ENERGY PREDICTED BY IDOCK:   -7.86 KCAL/MOL
REMARK 924 INTRA-LIGAND FREE ENERGY PREDICTED BY IDOCK:   -1.07 KCAL/MOL
REMARK 927      BINDING AFFINITY PREDICTED BY RF-SCORE:    0.00 PKD
ROOT
HETATM    1  C   UNL     1     -11.145   6.184  72.848  1.00  0.00    -0.247 C  
HETATM    2  N   UNL     1     -10.580   7.215  71.978  1.00  0.00    -0.209 N  
HETATM    3  O   UNL     1     -11.909   6.451  70.244  1.00  0.00    -0.396 OA 
HETATM    4  C   UNL     1     -11.027   7.209  70.634  1.00  0.00    -0.258 C  
ENDROOT
BRANCH   2   5
HETATM    5  C   UNL     1      -9.834   8.291  72.657  1.00  0.00    -0.287 C  
BRANCH   5   6
HETATM    6  C   UNL     1      -8.319   8.161  72.816  1.00  0.00    -0.181 C  
HETATM    7  H   UNL     1      -6.703   9.073  72.139  1.00  0.00     0.000 HD 
HETATM    8  O   UNL     1      -7.644   9.154  72.040  1.00  0.00    -0.335 OA 
BRANCH   6   9
HETATM    9  C   UNL     1      -7.982   8.362  74.312  1.00  0.00    -0.168 C  
HETATM   10  H   UNL     1      -6.522   9.123  75.433  1.00  0.00     0.000 HD 
HETATM   11  O   UNL     1      -6.729   8.999  74.515  1.00  0.00    -0.345 OA 
ENDBRANCH   6   9
ENDBRANCH   5   6
ENDBRANCH   2   5
BRANCH   4  12
HETATM   12  C   UNL     1     -10.462   8.161  69.619  1.00  0.00    -0.224 A  
HETATM   13  C   UNL     1      -9.351   7.762  68.870  1.00  0.00    -0.146 A  
HETATM   14  C   UNL     1     -10.954   9.492  69.423  1.00  0.00    -0.170 A  
HETATM   15  C   UNL     1     -10.503  10.293  68.327  1.00  0.00    -0.230 A  
HETATM   16  I   UNL     1     -12.367  10.275  70.859  1.00  0.00    -0.517 I  
HETATM   17  I   UNL     1      -8.012   6.281  69.694  1.00  0.00    -0.115 I  
HETATM   18  C   UNL     1      -9.659   9.661  67.383  1.00  0.00    -0.148 A  
HETATM   19  I   UNL     1      -9.773  10.263  65.313  1.00  0.00    -0.374 I  
HETATM   20  C   UNL     1      -8.995   8.442  67.691  1.00  0.00    -0.135 A  
BRANCH  15  21
HETATM   21  C   UNL     1     -11.018  11.715  68.152  1.00  0.00    -0.226 C  
HETATM   22  O   UNL     1     -12.191  11.861  67.797  1.00  0.00    -0.508 OA 
HETATM   23  N   UNL     1     -10.242  12.850  68.468  1.00  0.00    -0.229 N  
HETATM   24  C   UNL     1      -8.784  12.917  68.461  1.00  0.00    -0.038 C  
BRANCH  23  25
HETATM   25  C   UNL     1     -10.935  14.158  68.579  1.00  0.00    -0.254 C  
BRANCH  25  26
HETATM   26  C   UNL     1     -11.222  14.648  70.015  1.00  0.00    -0.209 C  
HETATM   27  H   UNL     1     -11.312  16.377  71.023  1.00  0.00     0.000 HD 
HETATM   28  O   UNL     1     -11.135  16.075  70.140  1.00  0.00    -0.320 OA 
BRANCH  26  29
HETATM   29  C   UNL     1     -12.642  14.267  70.470  1.00  0.00    -0.353 C  
HETATM   30  H   UNL     1     -14.146  15.155  71.380  1.00  0.00     0.000 HD 
HETATM   31  O   UNL     1     -13.269  15.390  71.098  1.00  0.00    -0.462 OA 
ENDBRANCH  26  29
ENDBRANCH  25  26
ENDBRANCH  23  25
ENDBRANCH  15  21
BRANCH  20  32
HETATM   32  N   UNL     1      -8.055   7.814  66.822  1.00  0.00    -0.113 N  
HETATM   33  C   UNL     1      -8.403   6.749  66.002  1.00  0.00    -0.134 C  
HETATM   34  H   UNL     1      -7.096   8.160  66.801  1.00  0.00     0.000 HD 
HETATM   35  H   UNL     1      -6.578   9.215  63.743  1.00  0.00     0.000 HD 
HETATM   36  H   UNL     1      -8.867   4.060  63.283  1.00  0.00     0.000 HD 
HETATM   37  C   UNL     1      -7.288   6.341  65.032  1.00  0.00    -0.078 C  
HETATM   38  O   UNL     1      -9.513   6.220  65.991  1.00  0.00    -0.109 OA 
HETATM   39  O   UNL     1      -8.704   4.928  63.636  1.00  0.00    -0.138 OA 
HETATM   40  O   UNL     1      -6.658   8.581  64.446  1.00  0.00    -0.066 OA 
HETATM   41  C   UNL     1      -7.158   7.360  63.903  1.00  0.00    -0.065 C  
HETATM   42  C   UNL     1      -7.549   4.949  64.467  1.00  0.00    -0.077 C  
ENDBRANCH  20  32
ENDBRANCH   4  12
TORSDOF 9
ENDMDL
MODEL       10
REMARK 921   NORMALIZED FREE ENERGY PREDICTED BY IDOCK:   -4.97 KCAL/MOL
REMARK 922        TOTAL FREE ENERGY PREDICTED BY IDOCK:   -8.89 KCAL/MOL
REMARK 923 INTER-LIGAND FREE ENERGY PREDICTED BY IDOCK:   -7.98 KCAL/MOL
REMARK 924 INTRA-LIGAND FREE ENERGY PREDICTED BY IDOCK:   -0.91 KCAL/MOL
REMARK 927      BINDING AFFINITY PREDICTED BY RF-SCORE:    0.00 PKD
ROOT
HETATM    1  C   UNL     1     -11.263   6.076  72.787  1.00  0.00    -0.261 C  
HETATM    2  N   UNL     1     -10.647   7.090  71.932  1.00  0.00    -0.213 N  
HETATM    3  O   UNL     1     -11.930   6.342  70.157  1.00  0.00    -0.354 OA 
HETATM    4  C   UNL     1     -11.047   7.084  70.573  1.00  0.00    -0.280 C  
ENDROOT
BRANCH   2   5
HETATM    5  C   UNL     1      -9.904   8.156  72.631  1.00  0.00    -0.294 C  
BRANCH   5   6
HETATM    6  C   UNL     1      -8.389   8.023  72.792  1.00  0.00    -0.167 C  
HETATM    7  H   UNL     1      -6.772   8.967  72.161  1.00  0.00     0.000 HD 
HETATM    8  O   UNL     1      -7.713   9.049  72.060  1.00  0.00    -0.348 OA 
BRANCH   6   9
HETATM    9  C   UNL     1      -8.060   8.165  74.297  1.00  0.00    -0.251 C  
HETATM   10  H   UNL     1      -6.887   9.256  75.481  1.00  0.00     0.000 HD 
HETATM   11  O   UNL     1      -7.089   9.169  74.557  1.00  0.00    -0.408 OA 
ENDBRANCH   6   9
ENDBRANCH   5   6
ENDBRANCH   2   5
BRANCH   4  12
HETATM   12  C   UNL     1     -10.429   8.019  69.574  1.00  0.00    -0.226 A  
HETATM   13  C   UNL     1      -9.317   7.583  68.845  1.00  0.00    -0.142 A  
HETATM   14  C   UNL     1     -10.869   9.367  69.373  1.00  0.00    -0.189 A  
HETATM   15  C   UNL     1     -10.368  10.155  68.289  1.00  0.00    -0.215 A  
HETATM   16  I   UNL     1     -12.281  10.195  70.783  1.00  0.00    -0.432 I  
HETATM   17  I   UNL     1      -8.049   6.053  69.690  1.00  0.00    -0.109 I  
HETATM   18  C   UNL     1      -9.528   9.497  67.360  1.00  0.00    -0.135 A  
HETATM   19  I   UNL     1      -9.579  10.108  65.290  1.00  0.00    -0.375 I  
HETATM   20  C   UNL     1      -8.914   8.253  67.676  1.00  0.00    -0.135 A  
BRANCH  15  21
HETATM   21  C   UNL     1     -10.828  11.595  68.109  1.00  0.00    -0.217 C  
HETATM   22  O   UNL     1     -12.016  11.788  67.836  1.00  0.00    -0.575 OA 
HETATM   23  N   UNL     1      -9.979  12.699  68.333  1.00  0.00    -0.226 N  
HETATM   24  C   UNL     1      -8.524  12.696  68.219  1.00  0.00    -0.163 C  
BRANCH  23  25
HETATM   25  C   UNL     1     -10.601  14.041  68.455  1.00  0.00    -0.254 C  
BRANCH  25  26
HETATM   26  C   UNL     1     -10.572  14.916  67.183  1.00  0.00    -0.285 C  
HETATM   27  H   UNL     1     -11.692  15.236  65.554  1.00  0.00     0.000 HD 
HETATM   28  O   UNL     1     -11.710  14.698  66.336  1.00  0.00    -0.369 OA 
BRANCH  26  29
HETATM   29  C   UNL     1     -10.578  16.415  67.526  1.00  0.00    -0.309 C  
HETATM   30  H   UNL     1     -10.498  18.116  66.536  1.00  0.00     0.000 HD 
HETATM   31  O   UNL     1     -10.495  17.190  66.325  1.00  0.00    -0.319 OA 
ENDBRANCH  26  29
ENDBRANCH  25  26
ENDBRANCH  23  25
ENDBRANCH  15  21
BRANCH  20  32
HETATM   32  N   UNL     1      -7.980   7.595  66.823  1.00  0.00    -0.109 N  
HETATM   33  C   UNL     1      -8.360   6.583  65.951  1.00  0.00    -0.140 C  
HETATM   34  H   UNL     1      -7.001   7.878  66.854  1.00  0.00     0.000 HD 
HETATM   35  H   UNL     1      -6.285   8.999  63.861  1.00  0.00     0.000 HD 
HETATM   36  H   UNL     1      -8.879   4.024  63.120  1.00  0.00     0.000 HD 
HETATM   37  C   UNL     1      -7.233   6.136  65.014  1.00  0.00    -0.070 C  
HETATM   38  O   UNL     1      -9.500   6.129  65.877  1.00  0.00    -0.077 OA 
HETATM   39  O   UNL     1      -8.676   4.867  63.510  1.00  0.00    -0.138 OA 
HETATM   40  O   UNL     1      -6.436   8.349  64.536  1.00  0.00    -0.065 OA 
HETATM   41  C   UNL     1      -6.990   7.182  63.929  1.00  0.00    -0.057 C  
HETATM   42  C   UNL     1      -7.559   4.784  64.388  1.00  0.00    -0.073 C  
ENDBRANCH  20  32
ENDBRANCH   4  12
TORSDOF 9
ENDMDL
MODEL       11
REMARK 921   NORMALIZED FREE ENERGY PREDICTED BY IDOCK:   -4.97 KCAL/MOL
REMARK 922        TOTAL FREE ENERGY PREDICTED BY IDOCK:   -8.89 KCAL/MOL
REMARK 923 INTER-LIGAND FREE ENERGY PREDICTED BY IDOCK:   -7.79 KCAL/MOL
REMARK 924 INTRA-LIGAND FREE ENERGY PREDICTED BY IDOCK:   -1.09 KCAL/MOL
REMARK 927      BINDING AFFINITY PREDICTED BY RF-SCORE:    0.00 PKD
ROOT
HETATM    1  C   UNL     1      -6.219   5.112  66.086  1.00  0.00    -0.031 C  
HETATM    2  N   UNL     1      -7.177   6.099  66.581  1.00  0.00    -0.072 N  
HETATM    3  O   UNL     1      -5.448   7.222  67.630  1.00  0.00    -0.019 OA 
HETATM    4  C   UNL     1      -6.650   7.115  67.415  1.00  0.00    -0.059 C  
ENDROOT
BRANCH   2   5
HETATM    5  C   UNL     1      -8.507   6.081  65.941  1.00  0.00    -0.143 C  
BRANCH   5   6
HETATM    6  C   UNL     1      -9.571   5.117  66.465  1.00  0.00    -0.158 C  
HETATM    7  H   UNL     1      -9.634   3.495  67.593  1.00  0.00     0.000 HD 
HETATM    8  O   UNL     1      -8.973   4.094  67.267  1.00  0.00    -0.114 OA 
BRANCH   6   9
HETATM    9  C   UNL     1     -10.563   5.930  67.329  1.00  0.00    -0.291 C  
HETATM   10  H   UNL     1     -11.376   7.748  67.372  1.00  0.00     0.000 HD 
HETATM   11  O   UNL     1     -10.767   7.249  66.842  1.00  0.00    -0.338 OA 
ENDBRANCH   6   9
ENDBRANCH   5   6
ENDBRANCH   2   5
BRANCH   4  12
HETATM   12  C   UNL     1      -7.541   8.141  68.054  1.00  0.00    -0.106 A  
HETATM   13  C   UNL     1      -7.686   9.385  67.431  1.00  0.00    -0.095 A  
HETATM   14  C   UNL     1      -8.199   7.945  69.311  1.00  0.00    -0.128 A  
HETATM   15  C   UNL     1      -9.173   8.877  69.789  1.00  0.00    -0.167 A  
HETATM   16  I   UNL     1      -7.642   6.223  70.492  1.00  0.00    -0.100 I  
HETATM   17  I   UNL     1      -6.101  10.104  66.153  1.00  0.00    -0.107 I  
HETATM   18  C   UNL     1      -9.547   9.916  68.904  1.00  0.00    -0.172 A  
HETATM   19  I   UNL     1     -11.572  10.663  68.965  1.00  0.00    -0.169 I  
HETATM   20  C   UNL     1      -8.746  10.244  67.775  1.00  0.00    -0.121 A  
BRANCH  15  21
HETATM   21  C   UNL     1      -9.841   8.665  71.141  1.00  0.00    -0.222 C  
HETATM   22  O   UNL     1      -9.331   9.207  72.125  1.00  0.00    -0.300 OA 
HETATM   23  N   UNL     1     -11.054   7.959  71.287  1.00  0.00    -0.246 N  
HETATM   24  C   UNL     1     -11.550   6.917  70.394  1.00  0.00    -0.335 C  
BRANCH  23  25
HETATM   25  C   UNL     1     -11.784   8.091  72.573  1.00  0.00    -0.387 C  
BRANCH  25  26
HETATM   26  C   UNL     1     -13.038   8.991  72.546  1.00  0.00    -0.385 C  
HETATM   27  H   UNL     1     -13.571  10.807  71.888  1.00  0.00     0.000 HD 
HETATM   28  O   UNL     1     -12.800  10.253  71.905  1.00  0.00    -0.425 OA 
BRANCH  26  29
HETATM   29  C   UNL     1     -14.193   8.332  71.771  1.00  0.00    -0.464 C  
HETATM   30  H   UNL     1     -15.032   6.553  71.682  1.00  0.00     0.000 HD 
HETATM   31  O   UNL     1     -14.319   6.961  72.160  1.00  0.00    -0.251 OA 
ENDBRANCH  26  29
ENDBRANCH  25  26
ENDBRANCH  23  25
ENDBRANCH  15  21
BRANCH  20  32
HETATM   32  N   UNL     1      -9.016  11.343  66.909  1.00  0.00    -0.165 N  
HETATM   33  C   UNL     1      -9.778  11.206  65.755  1.00  0.00    -0.225 C  
HETATM   34  H   UNL     1      -8.638  12.261  67.144  1.00  0.00     0.000 HD 
HETATM   35  H   UNL     1     -11.225  14.224  67.576  1.00  0.00     0.000 HD 
HETATM   36  H   UNL     1     -12.086  11.507  62.687  1.00  0.00     0.000 HD 
HETATM   37  C   UNL     1     -10.082  12.542  65.068  1.00  0.00    -0.258 C  
HETATM   38  O   UNL     1     -10.231  10.137  65.350  1.00  0.00    -0.298 OA 
HETATM   39  O   UNL     1     -11.799  11.649  63.582  1.00  0.00    -0.420 OA 
HETATM   40  O   UNL     1     -10.568  13.739  67.090  1.00  0.00    -0.273 OA 
HETATM   41  C   UNL     1     -11.137  13.321  65.849  1.00  0.00    -0.285 C  
HETATM   42  C   UNL     1     -10.542  12.315  63.632  1.00  0.00    -0.462 C  
ENDBRANCH  20  32
ENDBRANCH   4  12
TORSDOF 9
ENDMDL
MODEL       12
REMARK 921   NORMALIZED FREE ENERGY PREDICTED BY IDOCK:   -4.81 KCAL/MOL
REMARK 922        TOTAL FREE ENERGY PREDICTED BY IDOCK:   -8.64 KCAL/MOL
REMARK 923 INTER-LIGAND FREE ENERGY PREDICTED BY IDOCK:   -7.41 KCAL/MOL
REMARK 924 INTRA-LIGAND FREE ENERGY PREDICTED BY IDOCK:   -1.23 KCAL/MOL
REMARK 927      BINDING AFFINITY PREDICTED BY RF-SCORE:    0.00 PKD
ROOT
HETATM    1  C   UNL     1      -9.207   7.642  73.857  1.00  0.00    -0.247 C  
HETATM    2  N   UNL     1      -9.257   7.982  72.435  1.00  0.00    -0.179 N  
HETATM    3  O   UNL     1     -11.537   7.589  72.442  1.00  0.00    -0.294 OA 
HETATM    4  C   UNL     1     -10.523   7.863  71.811  1.00  0.00    -0.221 C  
ENDROOT
BRANCH   2   5
HETATM    5  C   UNL     1      -8.065   8.662  71.894  1.00  0.00    -0.088 C  
BRANCH   5   6
HETATM    6  C   UNL     1      -6.773   7.864  71.711  1.00  0.00    -0.053 C  
HETATM    7  H   UNL     1      -5.646   7.249  70.210  1.00  0.00     0.000 HD 
HETATM    8  O   UNL     1      -6.448   7.744  70.323  1.00  0.00    -0.037 OA 
BRANCH   6   9
HETATM    9  C   UNL     1      -5.640   8.625  72.439  1.00  0.00    -0.057 C  
HETATM   10  H   UNL     1      -5.411   9.854  73.990  1.00  0.00     0.000 HD 
HETATM   11  O   UNL     1      -6.107   9.387  73.543  1.00  0.00    -0.317 OA 
ENDBRANCH   6   9
ENDBRANCH   5   6
ENDBRANCH   2   5
BRANCH   4  12
HETATM   12  C   UNL     1     -10.693   8.102  70.338  1.00  0.00    -0.234 A  
HETATM   13  C   UNL     1     -11.275   9.302  69.917  1.00  0.00    -0.126 A  
HETATM   14  C   UNL     1     -10.357   7.137  69.335  1.00  0.00    -0.198 A  
HETATM   15  C   UNL     1     -10.370   7.478  67.946  1.00  0.00    -0.266 A  
HETATM   16  I   UNL     1      -9.875   5.131  69.977  1.00  0.00    -0.346 I  
HETATM   17  I   UNL     1     -12.620  10.337  71.252  1.00  0.00    -0.585 I  
HETATM   18  C   UNL     1     -10.596   8.839  67.628  1.00  0.00    -0.213 A  
HETATM   19  I   UNL     1      -9.641   9.676  65.883  1.00  0.00    -0.335 I  
HETATM   20  C   UNL     1     -11.149   9.735  68.584  1.00  0.00    -0.093 A  
BRANCH  15  21
HETATM   21  C   UNL     1     -10.036   6.430  66.894  1.00  0.00    -0.187 C  
HETATM   22  O   UNL     1     -10.972   5.796  66.398  1.00  0.00    -0.206 OA 
HETATM   23  N   UNL     1      -8.726   6.228  66.409  1.00  0.00    -0.132 N  
HETATM   24  C   UNL     1      -7.493   6.519  67.132  1.00  0.00    -0.088 C  
BRANCH  23  25
HETATM   25  C   UNL     1      -8.559   5.431  65.168  1.00  0.00    -0.149 C  
BRANCH  25  26
HETATM   26  C   UNL     1      -8.099   3.970  65.362  1.00  0.00    -0.101 C  
HETATM   27  H   UNL     1      -8.543   2.395  66.518  1.00  0.00     0.000 HD 
HETATM   28  O   UNL     1      -8.826   3.295  66.398  1.00  0.00    -0.126 OA 
BRANCH  26  29
HETATM   29  C   UNL     1      -8.304   3.137  64.086  1.00  0.00    -0.089 C  
HETATM   30  H   UNL     1      -9.774   2.128  63.249  1.00  0.00     0.000 HD 
HETATM   31  O   UNL     1      -9.647   2.643  64.037  1.00  0.00    -0.130 OA 
ENDBRANCH  26  29
ENDBRANCH  25  26
ENDBRANCH  23  25
ENDBRANCH  15  21
BRANCH  20  32
HETATM   32  N   UNL     1     -11.494  11.087  68.290  1.00  0.00    -0.298 N  
HETATM   33  C   UNL     1     -10.558  12.113  68.324  1.00  0.00    -0.217 C  
HETATM   34  H   UNL     1     -12.460  11.307  68.047  1.00  0.00     0.000 HD 
HETATM   35  H   UNL     1     -12.376  12.504  64.999  1.00  0.00     0.000 HD 
HETATM   36  H   UNL     1      -8.368  15.252  67.899  1.00  0.00     0.000 HD 
HETATM   37  C   UNL     1     -11.107  13.450  67.813  1.00  0.00    -0.292 C  
HETATM   38  O   UNL     1      -9.385  11.966  68.660  1.00  0.00    -0.165 OA 
HETATM   39  O   UNL     1      -8.929  14.534  67.627  1.00  0.00    -0.180 OA 
HETATM   40  O   UNL     1     -12.289  12.517  65.945  1.00  0.00    -0.626 OA 
HETATM   41  C   UNL     1     -11.246  13.427  66.293  1.00  0.00    -0.305 C  
HETATM   42  C   UNL     1     -10.207  14.601  68.249  1.00  0.00    -0.227 C  
ENDBRANCH  20  32
ENDBRANCH   4  12
TORSDOF 9
ENDMDL
MODEL       13
REMARK 921   NORMALIZED FREE ENERGY PREDICTED BY IDOCK:   -4.77 KCAL/MOL
REMARK 922        TOTAL FREE ENERGY PREDICTED BY IDOCK:   -8.58 KCAL/MOL
REMARK 923 INTER-LIGAND FREE ENERGY PREDICTED BY IDOCK:   -7.52 KCAL/MOL
REMARK 924 INTRA-LIGAND FREE ENERGY PREDICTED BY IDOCK:   -1.06 KCAL/MOL
REMARK 927      BINDING AFFINITY PREDICTED BY RF-SCORE:    0.00 PKD
ROOT
HETATM    1  C   UNL     1      -6.344   7.823  64.994  1.00  0.00    -0.041 C  
HETATM    2  N   UNL     1      -7.346   8.410  65.883  1.00  0.00    -0.072 N  
HETATM    3  O   UNL     1      -5.774   8.473  67.580  1.00  0.00    -0.038 OA 
HETATM    4  C   UNL     1      -6.931   8.651  67.216  1.00  0.00    -0.075 C  
ENDROOT
BRANCH   2   5
HETATM    5  C   UNL     1      -8.562   8.929  65.228  1.00  0.00    -0.184 C  
BRANCH   5   6
HETATM    6  C   UNL     1      -8.422   9.764  63.956  1.00  0.00    -0.182 C  
HETATM    7  H   UNL     1      -8.794   9.547  62.027  1.00  0.00     0.000 HD 
HETATM    8  O   UNL     1      -8.881   9.028  62.818  1.00  0.00    -0.200 OA 
BRANCH   6   9
HETATM    9  C   UNL     1      -9.288  11.035  64.126  1.00  0.00    -0.210 C  
HETATM   10  H   UNL     1     -11.136  11.659  63.723  1.00  0.00     0.000 HD 
HETATM   11  O   UNL     1     -10.604  10.879  63.618  1.00  0.00    -0.326 OA 
ENDBRANCH   6   9
ENDBRANCH   5   6
ENDBRANCH   2   5
BRANCH   4  12
HETATM   12  C   UNL     1      -7.887   9.173  68.249  1.00  0.00    -0.102 A  
HETATM   13  C   UNL     1      -8.202  10.536  68.244  1.00  0.00    -0.117 A  
HETATM   14  C   UNL     1      -8.444   8.366  69.293  1.00  0.00    -0.125 A  
HETATM   15  C   UNL     1      -9.483   8.865  70.140  1.00  0.00    -0.198 A  
HETATM   16  I   UNL     1      -7.636   6.383  69.584  1.00  0.00    -0.098 I  
HETATM   17  I   UNL     1      -6.783  11.933  67.407  1.00  0.00    -0.129 I  
HETATM   18  C   UNL     1     -10.018  10.133  69.809  1.00  0.00    -0.220 A  
HETATM   19  I   UNL     1     -12.104  10.522  70.207  1.00  0.00    -0.369 I  
HETATM   20  C   UNL     1      -9.326  11.019  68.938  1.00  0.00    -0.145 A  
BRANCH  15  21
HETATM   21  C   UNL     1     -10.042   8.001  71.261  1.00  0.00    -0.185 C  
HETATM   22  O   UNL     1      -9.605   8.184  72.400  1.00  0.00    -0.210 OA 
HETATM   23  N   UNL     1     -11.092   7.079  71.060  1.00  0.00    -0.254 N  
HETATM   24  C   UNL     1     -11.417   6.416  69.802  1.00  0.00    -0.399 C  
BRANCH  23  25
HETATM   25  C   UNL     1     -11.781   6.537  72.258  1.00  0.00    -0.281 C  
BRANCH  25  26
HETATM   26  C   UNL     1     -11.243   5.193  72.794  1.00  0.00    -0.255 C  
HETATM   27  H   UNL     1      -9.978   3.747  72.226  1.00  0.00     0.000 HD 
HETATM   28  O   UNL     1     -10.310   4.574  71.897  1.00  0.00    -0.189 OA 
BRANCH  26  29
HETATM   29  C   UNL     1     -10.496   5.373  74.127  1.00  0.00    -0.278 C  
HETATM   30  H   UNL     1      -8.623   5.400  74.732  1.00  0.00     0.000 HD 
HETATM   31  O   UNL     1      -9.084   5.290  73.909  1.00  0.00    -0.122 OA 
ENDBRANCH  26  29
ENDBRANCH  25  26
ENDBRANCH  23  25
ENDBRANCH  15  21
BRANCH  20  32
HETATM   32  N   UNL     1      -9.764  12.345  68.651  1.00  0.00    -0.395 N  
HETATM   33  C   UNL     1     -10.603  12.631  67.582  1.00  0.00    -0.218 C  
HETATM   34  H   UNL     1      -9.451  13.108  69.251  1.00  0.00     0.000 HD 
HETATM   35  H   UNL     1     -12.157  14.377  70.590  1.00  0.00     0.000 HD 
HETATM   36  H   UNL     1     -13.175  13.956  65.040  1.00  0.00     0.000 HD 
HETATM   37  C   UNL     1     -11.081  14.087  67.560  1.00  0.00    -0.313 C  
HETATM   38  O   UNL     1     -10.991  11.797  66.767  1.00  0.00    -0.260 OA 
HETATM   39  O   UNL     1     -12.829  13.730  65.896  1.00  0.00    -0.438 OA 
HETATM   40  O   UNL     1     -11.502  14.230  69.918  1.00  0.00    -0.261 OA 
HETATM   41  C   UNL     1     -12.133  14.324  68.641  1.00  0.00    -0.260 C  
HETATM   42  C   UNL     1     -11.637  14.450  66.187  1.00  0.00    -0.369 C  
ENDBRANCH  20  32
ENDBRANCH   4  12
TORSDOF 9
ENDMDL
MODEL       14
REMARK 921   NORMALIZED FREE ENERGY PREDICTED BY IDOCK:   -4.75 KCAL/MOL
REMARK 922        TOTAL FREE ENERGY PREDICTED BY IDOCK:   -8.54 KCAL/MOL
REMARK 923 INTER-LIGAND FREE ENERGY PREDICTED BY IDOCK:   -8.42 KCAL/MOL
REMARK 924 INTRA-LIGAND FREE ENERGY PREDICTED BY IDOCK:   -0.12 KCAL/MOL
REMARK 927      BINDING AFFINITY PREDICTED BY RF-SCORE:    0.00 PKD
ROOT
HETATM    1  C   UNL     1      -8.158  10.357  64.932  1.00  0.00    -0.130 C  
HETATM    2  N   UNL     1      -9.109  10.423  66.041  1.00  0.00    -0.158 N  
HETATM    3  O   UNL     1      -7.344  10.721  67.509  1.00  0.00    -0.089 OA 
HETATM    4  C   UNL     1      -8.547  10.563  67.334  1.00  0.00    -0.122 C  
ENDROOT
BRANCH   2   5
HETATM    5  C   UNL     1     -10.523  10.611  65.666  1.00  0.00    -0.165 C  
BRANCH   5   6
HETATM    6  C   UNL     1     -10.928  11.869  64.898  1.00  0.00    -0.313 C  
HETATM    7  H   UNL     1     -11.613  12.315  63.099  1.00  0.00     0.000 HD 
HETATM    8  O   UNL     1     -11.361  11.534  63.576  1.00  0.00    -0.408 OA 
BRANCH   6   9
HETATM    9  C   UNL     1     -12.093  12.536  65.665  1.00  0.00    -0.400 C  
HETATM   10  H   UNL     1     -13.986  13.073  65.352  1.00  0.00     0.000 HD 
HETATM   11  O   UNL     1     -13.271  12.663  64.881  1.00  0.00    -0.819 OA 
ENDBRANCH   6   9
ENDBRANCH   5   6
ENDBRANCH   2   5
BRANCH   4  12
HETATM   12  C   UNL     1      -9.409  10.561  68.564  1.00  0.00    -0.168 A  
HETATM   13  C   UNL     1     -10.159  11.704  68.860  1.00  0.00    -0.092 A  
HETATM   14  C   UNL     1      -9.454   9.476  69.498  1.00  0.00    -0.185 A  
HETATM   15  C   UNL     1     -10.419   9.446  70.553  1.00  0.00    -0.335 A  
HETATM   16  I   UNL     1      -7.986   7.902  69.296  1.00  0.00    -0.121 I  
HETATM   17  I   UNL     1      -9.478  13.619  68.129  1.00  0.00    -0.178 I  
HETATM   18  C   UNL     1     -11.402  10.465  70.543  1.00  0.00    -0.341 A  
HETATM   19  I   UNL     1     -13.382  10.013  71.276  1.00  0.00    -0.103 I  
HETATM   20  C   UNL     1     -11.226  11.649  69.775  1.00  0.00    -0.127 A  
BRANCH  15  21
HETATM   21  C   UNL     1     -10.432   8.297  71.551  1.00  0.00    -0.227 C  
HETATM   22  O   UNL     1      -9.806   8.445  72.604  1.00  0.00    -0.282 OA 
HETATM   23  N   UNL     1     -11.198   7.128  71.356  1.00  0.00    -0.246 N  
HETATM   24  C   UNL     1     -11.613   6.583  70.067  1.00  0.00    -0.390 C  
BRANCH  23  25
HETATM   25  C   UNL     1     -11.403   6.229  72.519  1.00  0.00    -0.275 C  
BRANCH  25  26
HETATM   26  C   UNL     1     -10.730   4.843  72.426  1.00  0.00    -0.175 C  
HETATM   27  H   UNL     1      -8.890   4.076  72.229  1.00  0.00     0.000 HD 
HETATM   28  O   UNL     1      -9.305   4.929  72.286  1.00  0.00    -0.135 OA 
BRANCH  26  29
HETATM   29  C   UNL     1     -10.984   4.004  73.689  1.00  0.00    -0.260 C  
HETATM   30  H   UNL     1     -11.941   2.343  74.144  1.00  0.00     0.000 HD 
HETATM   31  O   UNL     1     -11.784   2.862  73.363  1.00  0.00    -0.112 OA 
ENDBRANCH  26  29
ENDBRANCH  25  26
ENDBRANCH  23  25
ENDBRANCH  15  21
BRANCH  20  32
HETATM   32  N   UNL     1     -12.131  12.750  69.806  1.00  0.00    -0.275 N  
HETATM   33  C   UNL     1     -12.517  13.357  70.994  1.00  0.00    -0.353 C  
HETATM   34  H   UNL     1     -12.507  13.104  68.926  1.00  0.00     0.000 HD 
HETATM   35  H   UNL     1     -11.484  16.206  68.685  1.00  0.00     0.000 HD 
HETATM   36  H   UNL     1     -13.636  15.639  73.888  1.00  0.00     0.000 HD 
HETATM   37  C   UNL     1     -13.358  14.621  70.783  1.00  0.00    -0.272 C  
HETATM   38  O   UNL     1     -12.169  12.974  72.109  1.00  0.00     0.445 OA 
HETATM   39  O   UNL     1     -13.181  15.401  73.088  1.00  0.00    -0.467 OA 
HETATM   40  O   UNL     1     -12.029  15.487  68.982  1.00  0.00    -0.354 OA 
HETATM   41  C   UNL     1     -12.482  15.776  70.305  1.00  0.00    -0.256 C  
HETATM   42  C   UNL     1     -14.088  15.001  72.066  1.00  0.00    -0.535 C  
ENDBRANCH  20  32
ENDBRANCH   4  12
TORSDOF 9
ENDMDL
MODEL       15
REMARK 921   NORMALIZED FREE ENERGY PREDICTED BY IDOCK:   -4.73 KCAL/MOL
REMARK 922        TOTAL FREE ENERGY PREDICTED BY IDOCK:   -8.52 KCAL/MOL
REMARK 923 INTER-LIGAND FREE ENERGY PREDICTED BY IDOCK:   -7.46 KCAL/MOL
REMARK 924 INTRA-LIGAND FREE ENERGY PREDICTED BY IDOCK:   -1.06 KCAL/MOL
REMARK 927      BINDING AFFINITY PREDICTED BY RF-SCORE:    0.00 PKD
ROOT
HETATM    1  C   UNL     1     -12.578  14.302  64.472  1.00  0.00    -0.216 C  
HETATM    2  N   UNL     1     -11.305  13.902  65.069  1.00  0.00    -0.322 N  
HETATM    3  O   UNL     1     -11.973  14.842  67.075  1.00  0.00    -0.293 OA 
HETATM    4  C   UNL     1     -11.099  14.291  66.416  1.00  0.00    -0.325 C  
ENDROOT
BRANCH   2   5
HETATM    5  C   UNL     1     -10.514  12.920  64.302  1.00  0.00    -0.407 C  
BRANCH   5   6
HETATM    6  C   UNL     1     -11.049  11.497  64.141  1.00  0.00    -0.344 C  
HETATM    7  H   UNL     1     -12.482  10.589  63.127  1.00  0.00     0.000 HD 
HETATM    8  O   UNL     1     -12.150  11.474  63.227  1.00  0.00    -0.319 OA 
BRANCH   6   9
HETATM    9  C   UNL     1      -9.903  10.621  63.585  1.00  0.00    -0.333 C  
HETATM   10  H   UNL     1      -8.357  10.783  62.339  1.00  0.00     0.000 HD 
HETATM   11  O   UNL     1      -9.061  11.321  62.681  1.00  0.00    -0.336 OA 
ENDBRANCH   6   9
ENDBRANCH   5   6
ENDBRANCH   2   5
BRANCH   4  12
HETATM   12  C   UNL     1      -9.801  14.015  67.119  1.00  0.00    -0.240 A  
HETATM   13  C   UNL     1      -9.650  12.799  67.795  1.00  0.00    -0.204 A  
HETATM   14  C   UNL     1      -8.727  14.959  67.199  1.00  0.00    -0.219 A  
HETATM   15  C   UNL     1      -7.450  14.584  67.724  1.00  0.00    -0.182 A  
HETATM   16  I   UNL     1      -9.106  16.985  66.549  1.00  0.00    -0.276 I  
HETATM   17  I   UNL     1     -11.411  11.784  68.524  1.00  0.00    -0.431 I  
HETATM   18  C   UNL     1      -7.266  13.215  68.028  1.00  0.00    -0.125 A  
HETATM   19  I   UNL     1      -5.305  12.345  67.778  1.00  0.00    -0.105 I  
HETATM   20  C   UNL     1      -8.375  12.336  68.168  1.00  0.00    -0.174 A  
BRANCH  15  21
HETATM   21  C   UNL     1      -6.331  15.611  67.826  1.00  0.00    -0.157 C  
HETATM   22  O   UNL     1      -5.752  15.934  66.785  1.00  0.00    -0.214 OA 
HETATM   23  N   UNL     1      -6.003  16.261  69.034  1.00  0.00    -0.129 N  
HETATM   24  C   UNL     1      -6.227  15.735  70.377  1.00  0.00     0.077 C  
BRANCH  23  25
HETATM   25  C   UNL     1      -5.138  17.466  68.963  1.00  0.00    -0.152 C  
BRANCH  25  26
HETATM   26  C   UNL     1      -5.863  18.824  69.081  1.00  0.00    -0.225 C  
HETATM   27  H   UNL     1      -7.738  19.522  69.200  1.00  0.00     0.000 HD 
HETATM   28  O   UNL     1      -7.291  18.686  69.127  1.00  0.00    -0.265 OA 
BRANCH  26  29
HETATM   29  C   UNL     1      -5.466  19.569  70.367  1.00  0.00    -0.238 C  
HETATM   30  H   UNL     1      -5.352  21.441  70.966  1.00  0.00     0.000 HD 
HETATM   31  O   UNL     1      -5.597  20.981  70.172  1.00  0.00    -0.543 OA 
ENDBRANCH  26  29
ENDBRANCH  25  26
ENDBRANCH  23  25
ENDBRANCH  15  21
BRANCH  20  32
HETATM   32  N   UNL     1      -8.257  10.974  68.573  1.00  0.00    -0.139 N  
HETATM   33  C   UNL     1      -8.203   9.932  67.657  1.00  0.00    -0.114 C  
HETATM   34  H   UNL     1      -8.210  10.759  69.569  1.00  0.00     0.000 HD 
HETATM   35  H   UNL     1      -5.301   9.331  70.050  1.00  0.00     0.000 HD 
HETATM   36  H   UNL     1      -7.642   6.718  65.610  1.00  0.00     0.000 HD 
HETATM   37  C   UNL     1      -7.907   8.573  68.301  1.00  0.00    -0.106 C  
HETATM   38  O   UNL     1      -8.309  10.076  66.440  1.00  0.00    -0.123 OA 
HETATM   39  O   UNL     1      -7.419   7.426  66.204  1.00  0.00    -0.079 OA 
HETATM   40  O   UNL     1      -6.214   9.388  69.794  1.00  0.00    -0.038 OA 
HETATM   41  C   UNL     1      -6.440   8.483  68.714  1.00  0.00    -0.053 C  
HETATM   42  C   UNL     1      -8.264   7.437  67.349  1.00  0.00    -0.113 C  
ENDBRANCH  20  32
ENDBRANCH   4  12
TORSDOF 9
ENDMDL
MODEL       16
REMARK 921   NORMALIZED FREE ENERGY PREDICTED BY IDOCK:   -4.71 KCAL/MOL
REMARK 922        TOTAL FREE ENERGY PREDICTED BY IDOCK:   -8.50 KCAL/MOL
REMARK 923 INTER-LIGAND FREE ENERGY PREDICTED BY IDOCK:   -7.18 KCAL/MOL
REMARK 924 INTRA-LIGAND FREE ENERGY PREDICTED BY IDOCK:   -1.32 KCAL/MOL
REMARK 927      BINDING AFFINITY PREDICTED BY RF-SCORE:    0.00 PKD
ROOT
HETATM    1  C   UNL     1     -10.752   6.299  71.041  1.00  0.00    -0.259 C  
HETATM    2  N   UNL     1     -10.546   7.059  69.810  1.00  0.00    -0.226 N  
HETATM    3  O   UNL     1      -9.144   8.499  70.957  1.00  0.00    -0.151 OA 
HETATM    4  C   UNL     1      -9.728   8.211  69.918  1.00  0.00    -0.176 C  
ENDROOT
BRANCH   2   5
HETATM    5  C   UNL     1     -10.981   6.398  68.565  1.00  0.00    -0.319 C  
BRANCH   5   6
HETATM    6  C   UNL     1      -9.969   5.574  67.768  1.00  0.00    -0.155 C  
HETATM    7  H   UNL     1      -8.976   3.880  67.992  1.00  0.00     0.000 HD 
HETATM    8  O   UNL     1      -9.605   4.392  68.487  1.00  0.00    -0.149 OA 
BRANCH   6   9
HETATM    9  C   UNL     1     -10.633   5.175  66.430  1.00  0.00    -0.276 C  
HETATM   10  H   UNL     1     -10.312   3.935  64.904  1.00  0.00     0.000 HD 
HETATM   11  O   UNL     1      -9.904   4.180  65.726  1.00  0.00    -0.189 OA 
ENDBRANCH   6   9
ENDBRANCH   5   6
ENDBRANCH   2   5
BRANCH   4  12
HETATM   12  C   UNL     1      -9.505   9.124  68.747  1.00  0.00    -0.147 A  
HETATM   13  C   UNL     1      -8.392   8.904  67.928  1.00  0.00    -0.118 A  
HETATM   14  C   UNL     1     -10.330  10.258  68.459  1.00  0.00    -0.178 A  
HETATM   15  C   UNL     1     -10.184  10.988  67.237  1.00  0.00    -0.234 A  
HETATM   16  I   UNL     1     -11.775  10.867  69.946  1.00  0.00    -0.485 I  
HETATM   17  I   UNL     1      -6.662   7.914  68.759  1.00  0.00    -0.060 I  
HETATM   18  C   UNL     1      -9.287  10.454  66.282  1.00  0.00    -0.166 A  
HETATM   19  I   UNL     1      -9.714  10.723  64.183  1.00  0.00    -0.417 I  
HETATM   20  C   UNL     1      -8.314   9.483  66.648  1.00  0.00    -0.116 A  
BRANCH  15  21
HETATM   21  C   UNL     1     -11.053  12.207  66.962  1.00  0.00    -0.294 C  
HETATM   22  O   UNL     1     -12.228  12.013  66.636  1.00  0.00    -0.550 OA 
HETATM   23  N   UNL     1     -10.596  13.527  67.157  1.00  0.00    -0.263 N  
HETATM   24  C   UNL     1      -9.206  13.968  67.095  1.00  0.00    -0.235 C  
BRANCH  23  25
HETATM   25  C   UNL     1     -11.604  14.616  67.182  1.00  0.00    -0.378 C  
BRANCH  25  26
HETATM   26  C   UNL     1     -11.775  15.344  68.533  1.00  0.00    -0.338 C  
HETATM   27  H   UNL     1     -11.342  15.046  70.466  1.00  0.00     0.000 HD 
HETATM   28  O   UNL     1     -11.237  14.599  69.635  1.00  0.00    -0.260 OA 
BRANCH  26  29
HETATM   29  C   UNL     1     -11.050  16.700  68.542  1.00  0.00    -0.301 C  
HETATM   30  H   UNL     1      -9.532  17.512  69.500  1.00  0.00     0.000 HD 
HETATM   31  O   UNL     1      -9.981  16.674  69.494  1.00  0.00    -0.201 OA 
ENDBRANCH  26  29
ENDBRANCH  25  26
ENDBRANCH  23  25
ENDBRANCH  15  21
BRANCH  20  32
HETATM   32  N   UNL     1      -7.320   8.987  65.756  1.00  0.00    -0.089 N  
HETATM   33  C   UNL     1      -7.542   7.888  64.937  1.00  0.00    -0.104 C  
HETATM   34  H   UNL     1      -6.414   9.456  65.717  1.00  0.00     0.000 HD 
HETATM   35  H   UNL     1      -6.105  10.580  62.656  1.00  0.00     0.000 HD 
HETATM   36  H   UNL     1      -7.709   5.171  62.212  1.00  0.00     0.000 HD 
HETATM   37  C   UNL     1      -6.404   7.633  63.942  1.00  0.00    -0.053 C  
HETATM   38  O   UNL     1      -8.573   7.218  64.946  1.00  0.00     0.001 OA 
HETATM   39  O   UNL     1      -7.653   6.051  62.566  1.00  0.00    -0.061 OA 
HETATM   40  O   UNL     1      -6.086   9.939  63.357  1.00  0.00    -0.106 OA 
HETATM   41  C   UNL     1      -6.434   8.664  62.816  1.00  0.00    -0.091 C  
HETATM   42  C   UNL     1      -6.493   6.221  63.374  1.00  0.00    -0.033 C  
ENDBRANCH  20  32
ENDBRANCH   4  12
TORSDOF 9
ENDMDL
MODEL       17
REMARK 921   NORMALIZED FREE ENERGY PREDICTED BY IDOCK:   -4.64 KCAL/MOL
REMARK 922        TOTAL FREE ENERGY PREDICTED BY IDOCK:   -8.38 KCAL/MOL
REMARK 923 INTER-LIGAND FREE ENERGY PREDICTED BY IDOCK:   -7.11 KCAL/MOL
REMARK 924 INTRA-LIGAND FREE ENERGY PREDICTED BY IDOCK:   -1.28 KCAL/MOL
REMARK 927      BINDING AFFINITY PREDICTED BY RF-SCORE:    0.00 PKD
ROOT
HETATM    1  C   UNL     1     -12.197  11.979  63.757  1.00  0.00    -0.498 C  
HETATM    2  N   UNL     1     -10.988  12.101  64.570  1.00  0.00    -0.299 N  
HETATM    3  O   UNL     1     -12.306  12.253  66.467  1.00  0.00    -0.504 OA 
HETATM    4  C   UNL     1     -11.190  12.290  65.960  1.00  0.00    -0.332 C  
ENDROOT
BRANCH   2   5
HETATM    5  C   UNL     1      -9.723  11.744  63.901  1.00  0.00    -0.202 C  
BRANCH   5   6
HETATM    6  C   UNL     1      -9.376  10.268  63.707  1.00  0.00    -0.295 C  
HETATM    7  H   UNL     1      -9.307   8.976  62.213  1.00  0.00     0.000 HD 
HETATM    8  O   UNL     1      -9.523   9.893  62.334  1.00  0.00    -0.278 OA 
BRANCH   6   9
HETATM    9  C   UNL     1      -7.904  10.067  64.138  1.00  0.00    -0.144 C  
HETATM   10  H   UNL     1      -6.073  10.438  63.448  1.00  0.00     0.000 HD 
HETATM   11  O   UNL     1      -6.977  10.562  63.183  1.00  0.00    -0.101 OA 
ENDBRANCH   6   9
ENDBRANCH   5   6
ENDBRANCH   2   5
BRANCH   4  12
HETATM   12  C   UNL     1     -10.035  12.511  66.894  1.00  0.00    -0.229 A  
HETATM   13  C   UNL     1      -9.314  11.400  67.344  1.00  0.00    -0.167 A  
HETATM   14  C   UNL     1      -9.670  13.796  67.411  1.00  0.00    -0.235 A  
HETATM   15  C   UNL     1      -8.460  13.979  68.152  1.00  0.00    -0.172 A  
HETATM   16  I   UNL     1     -11.027  15.446  67.082  1.00  0.00    -0.181 I  
HETATM   17  I   UNL     1     -10.295   9.477  67.416  1.00  0.00    -0.302 I  
HETATM   18  C   UNL     1      -7.588  12.867  68.227  1.00  0.00    -0.134 A  
HETATM   19  I   UNL     1      -5.458  13.214  68.305  1.00  0.00    -0.117 I  
HETATM   20  C   UNL     1      -8.042  11.553  67.923  1.00  0.00    -0.132 A  
BRANCH  15  21
HETATM   21  C   UNL     1      -8.104  15.347  68.716  1.00  0.00    -0.166 C  
HETATM   22  O   UNL     1      -8.359  15.561  69.905  1.00  0.00    -0.113 OA 
HETATM   23  N   UNL     1      -7.420  16.325  67.965  1.00  0.00    -0.133 N  
HETATM   24  C   UNL     1      -7.432  16.450  66.511  1.00  0.00    -0.188 C  
BRANCH  23  25
HETATM   25  C   UNL     1      -6.833  17.477  68.694  1.00  0.00    -0.227 C  
BRANCH  25  26
HETATM   26  C   UNL     1      -7.404  18.866  68.331  1.00  0.00    -0.288 C  
HETATM   27  H   UNL     1      -9.085  19.919  68.608  1.00  0.00     0.000 HD 
HETATM   28  O   UNL     1      -8.734  19.065  68.831  1.00  0.00    -0.331 OA 
BRANCH  26  29
HETATM   29  C   UNL     1      -6.552  20.001  68.925  1.00  0.00    -0.315 C  
HETATM   30  H   UNL     1      -5.745  21.679  68.282  1.00  0.00     0.000 HD 
HETATM   31  O   UNL     1      -6.272  20.978  67.916  1.00  0.00    -0.317 OA 
ENDBRANCH  26  29
ENDBRANCH  25  26
ENDBRANCH  23  25
ENDBRANCH  15  21
BRANCH  20  32
HETATM   32  N   UNL     1      -7.239  10.386  68.080  1.00  0.00    -0.086 N  
HETATM   33  C   UNL     1      -7.130   9.720  69.294  1.00  0.00    -0.066 C  
HETATM   34  H   UNL     1      -6.728  10.027  67.273  1.00  0.00     0.000 HD 
HETATM   35  H   UNL     1      -7.902   7.019  66.721  1.00  0.00     0.000 HD 
HETATM   36  H   UNL     1      -6.747   7.287  72.255  1.00  0.00     0.000 HD 
HETATM   37  C   UNL     1      -6.355   8.402  69.195  1.00  0.00    -0.043 C  
HETATM   38  O   UNL     1      -7.657  10.100  70.339  1.00  0.00    -0.249 OA 
HETATM   39  O   UNL     1      -7.023   7.579  71.393  1.00  0.00    -0.053 OA 
HETATM   40  O   UNL     1      -7.374   7.686  67.144  1.00  0.00    -0.087 OA 
HETATM   41  C   UNL     1      -7.203   7.330  68.516  1.00  0.00    -0.094 C  
HETATM   42  C   UNL     1      -5.912   7.934  70.578  1.00  0.00    -0.029 C  
ENDBRANCH  20  32
ENDBRANCH   4  12
TORSDOF 9
ENDMDL
MODEL       18
REMARK 921   NORMALIZED FREE ENERGY PREDICTED BY IDOCK:   -4.59 KCAL/MOL
REMARK 922        TOTAL FREE ENERGY PREDICTED BY IDOCK:   -8.31 KCAL/MOL
REMARK 923 INTER-LIGAND FREE ENERGY PREDICTED BY IDOCK:   -7.01 KCAL/MOL
REMARK 924 INTRA-LIGAND FREE ENERGY PREDICTED BY IDOCK:   -1.30 KCAL/MOL
REMARK 927      BINDING AFFINITY PREDICTED BY RF-SCORE:    0.00 PKD
ROOT
HETATM    1  C   UNL     1     -10.669  14.809  68.743  1.00  0.00    -0.253 C  
HETATM    2  N   UNL     1     -10.196  13.486  68.340  1.00  0.00    -0.242 N  
HETATM    3  O   UNL     1     -12.383  12.855  67.919  1.00  0.00    -0.141 OA 
HETATM    4  C   UNL     1     -11.197  12.549  67.983  1.00  0.00    -0.270 C  
ENDROOT
BRANCH   2   5
HETATM    5  C   UNL     1      -8.747  13.368  68.091  1.00  0.00    -0.179 C  
BRANCH   5   6
HETATM    6  C   UNL     1      -7.832  14.537  68.457  1.00  0.00    -0.136 C  
HETATM    7  H   UNL     1      -6.087  14.793  69.348  1.00  0.00     0.000 HD 
HETATM    8  O   UNL     1      -6.655  14.067  69.120  1.00  0.00    -0.102 OA 
BRANCH   6   9
HETATM    9  C   UNL     1      -7.430  15.252  67.146  1.00  0.00    -0.167 C  
HETATM   10  H   UNL     1      -8.287  15.927  65.479  1.00  0.00     0.000 HD 
HETATM   11  O   UNL     1      -8.534  15.488  66.284  1.00  0.00    -0.262 OA 
ENDBRANCH   6   9
ENDBRANCH   5   6
ENDBRANCH   2   5
BRANCH   4  12
HETATM   12  C   UNL     1     -10.850  11.131  67.630  1.00  0.00    -0.295 A  
HETATM   13  C   UNL     1     -10.536  10.829  66.301  1.00  0.00    -0.226 A  
HETATM   14  C   UNL     1     -10.892  10.049  68.567  1.00  0.00    -0.231 A  
HETATM   15  C   UNL     1     -10.384   8.756  68.227  1.00  0.00    -0.252 A  
HETATM   16  I   UNL     1     -11.793  10.411  70.498  1.00  0.00    -0.463 I  
HETATM   17  I   UNL     1     -11.331  12.078  64.729  1.00  0.00    -0.296 I  
HETATM   18  C   UNL     1      -9.721   8.641  66.982  1.00  0.00    -0.201 A  
HETATM   19  I   UNL     1      -8.082   7.249  66.795  1.00  0.00    -0.129 I  
HETATM   20  C   UNL     1      -9.879   9.630  65.971  1.00  0.00    -0.274 A  
BRANCH  15  21
HETATM   21  C   UNL     1     -10.463   7.612  69.228  1.00  0.00    -0.218 C  
HETATM   22  O   UNL     1     -11.410   6.827  69.129  1.00  0.00    -0.211 OA 
HETATM   23  N   UNL     1      -9.457   7.369  70.187  1.00  0.00    -0.165 N  
HETATM   24  C   UNL     1      -8.550   8.366  70.745  1.00  0.00    -0.145 C  
BRANCH  23  25
HETATM   25  C   UNL     1      -9.461   6.057  70.882  1.00  0.00    -0.168 C  
BRANCH  25  26
HETATM   26  C   UNL     1      -9.813   6.093  72.385  1.00  0.00    -0.164 C  
HETATM   27  H   UNL     1     -11.192   6.909  73.588  1.00  0.00     0.000 HD 
HETATM   28  O   UNL     1     -10.975   6.887  72.663  1.00  0.00    -0.244 OA 
BRANCH  26  29
HETATM   29  C   UNL     1     -10.119   4.686  72.929  1.00  0.00    -0.159 C  
HETATM   30  H   UNL     1     -11.570   3.821  73.941  1.00  0.00     0.000 HD 
HETATM   31  O   UNL     1     -11.381   4.690  73.605  1.00  0.00    -0.302 OA 
ENDBRANCH  26  29
ENDBRANCH  25  26
ENDBRANCH  23  25
ENDBRANCH  15  21
BRANCH  20  32
HETATM   32  N   UNL     1      -9.320   9.517  64.664  1.00  0.00    -0.422 N  
HETATM   33  C   UNL     1      -8.053   9.995  64.357  1.00  0.00    -0.156 C  
HETATM   34  H   UNL     1      -9.871   9.071  63.930  1.00  0.00     0.000 HD 
HETATM   35  H   UNL     1      -8.160   6.442  62.987  1.00  0.00     0.000 HD 
HETATM   36  H   UNL     1      -4.522  10.776  63.033  1.00  0.00     0.000 HD 
HETATM   37  C   UNL     1      -7.589   9.619  62.945  1.00  0.00    -0.116 C  
HETATM   38  O   UNL     1      -7.332  10.598  65.150  1.00  0.00    -0.073 OA 
HETATM   39  O   UNL     1      -5.255  10.233  63.301  1.00  0.00    -0.098 OA 
HETATM   40  O   UNL     1      -8.396   7.361  63.028  1.00  0.00    -0.025 OA 
HETATM   41  C   UNL     1      -7.211   8.142  62.879  1.00  0.00    -0.097 C  
HETATM   42  C   UNL     1      -6.414  10.491  62.516  1.00  0.00    -0.133 C  
ENDBRANCH  20  32
ENDBRANCH   4  12
TORSDOF 9
ENDMDL
MODEL       19
REMARK 921   NORMALIZED FREE ENERGY PREDICTED BY IDOCK:   -4.54 KCAL/MOL
REMARK 922        TOTAL FREE ENERGY PREDICTED BY IDOCK:   -8.23 KCAL/MOL
REMARK 923 INTER-LIGAND FREE ENERGY PREDICTED BY IDOCK:   -7.35 KCAL/MOL
REMARK 924 INTRA-LIGAND FREE ENERGY PREDICTED BY IDOCK:   -0.88 KCAL/MOL
REMARK 927      BINDING AFFINITY PREDICTED BY RF-SCORE:    0.00 PKD
ROOT
HETATM    1  C   UNL     1      -5.138   9.903  68.331  1.00  0.00    -0.036 C  
HETATM    2  N   UNL     1      -6.475  10.245  68.813  1.00  0.00    -0.051 N  
HETATM    3  O   UNL     1      -7.289  10.010  66.660  1.00  0.00    -0.099 OA 
HETATM    4  C   UNL     1      -7.492  10.314  67.830  1.00  0.00    -0.088 C  
ENDROOT
BRANCH   2   5
HETATM    5  C   UNL     1      -6.661  10.206  70.276  1.00  0.00    -0.137 C  
BRANCH   5   6
HETATM    6  C   UNL     1      -5.450  10.416  71.185  1.00  0.00    -0.071 C  
HETATM    7  H   UNL     1      -4.763  11.826  72.387  1.00  0.00     0.000 HD 
HETATM    8  O   UNL     1      -5.515  11.696  71.822  1.00  0.00    -0.352 OA 
BRANCH   6   9
HETATM    9  C   UNL     1      -5.469   9.306  72.262  1.00  0.00    -0.071 C  
HETATM   10  H   UNL     1      -5.725   9.126  74.229  1.00  0.00     0.000 HD 
HETATM   11  O   UNL     1      -5.714   9.808  73.568  1.00  0.00    -0.318 OA 
ENDBRANCH   6   9
ENDBRANCH   5   6
ENDBRANCH   2   5
BRANCH   4  12
HETATM   12  C   UNL     1      -8.891  10.735  68.181  1.00  0.00    -0.133 A  
HETATM   13  C   UNL     1      -9.826   9.748  68.509  1.00  0.00    -0.156 A  
HETATM   14  C   UNL     1      -9.345  12.092  68.130  1.00  0.00    -0.204 A  
HETATM   15  C   UNL     1     -10.628  12.462  68.642  1.00  0.00    -0.243 A  
HETATM   16  I   UNL     1      -8.055  13.562  67.209  1.00  0.00     0.063 I  
HETATM   17  I   UNL     1      -9.555   7.752  67.728  1.00  0.00    -0.215 I  
HETATM   18  C   UNL     1     -11.357  11.454  69.317  1.00  0.00    -0.289 A  
HETATM   19  I   UNL     1     -12.642  12.016  70.959  1.00  0.00     0.043 I  
HETATM   20  C   UNL     1     -11.022  10.080  69.170  1.00  0.00    -0.220 A  
BRANCH  15  21
HETATM   21  C   UNL     1     -11.104  13.905  68.554  1.00  0.00    -0.265 C  
HETATM   22  O   UNL     1     -10.961  14.619  69.550  1.00  0.00    -0.250 OA 
HETATM   23  N   UNL     1     -11.607  14.469  67.362  1.00  0.00    -0.370 N  
HETATM   24  C   UNL     1     -12.250  13.737  66.275  1.00  0.00    -0.447 C  
BRANCH  23  25
HETATM   25  C   UNL     1     -11.729  15.946  67.288  1.00  0.00     0.362 C  
BRANCH  25  26
HETATM   26  C   UNL     1     -10.467  16.704  66.821  1.00  0.00    -0.261 C  
HETATM   27  H   UNL     1      -9.586  17.239  65.103  1.00  0.00     0.000 HD 
HETATM   28  O   UNL     1     -10.362  16.772  65.391  1.00  0.00    -0.597 OA 
BRANCH  26  29
HETATM   29  C   UNL     1     -10.464  18.160  67.318  1.00  0.00    -0.393 C  
HETATM   30  H   UNL     1     -10.106  19.099  69.011  1.00  0.00     0.000 HD 
HETATM   31  O   UNL     1     -10.108  18.200  68.704  1.00  0.00    -0.370 OA 
ENDBRANCH  26  29
ENDBRANCH  25  26
ENDBRANCH  23  25
ENDBRANCH  15  21
BRANCH  20  32
HETATM   32  N   UNL     1     -11.781   9.017  69.741  1.00  0.00    -0.320 N  
HETATM   33  C   UNL     1     -11.320   8.276  70.821  1.00  0.00    -0.266 C  
HETATM   34  H   UNL     1     -12.694   8.794  69.343  1.00  0.00     0.000 HD 
HETATM   35  H   UNL     1     -14.874   9.300  71.735  1.00  0.00     0.000 HD 
HETATM   36  H   UNL     1     -10.738   6.162  73.988  1.00  0.00     0.000 HD 
HETATM   37  C   UNL     1     -12.364   7.301  71.377  1.00  0.00    -0.403 C  
HETATM   38  O   UNL     1     -10.214   8.424  71.338  1.00  0.00    -0.196 OA 
HETATM   39  O   UNL     1     -11.152   6.819  73.439  1.00  0.00    -0.219 OA 
HETATM   40  O   UNL     1     -14.206   8.833  71.247  1.00  0.00    -0.319 OA 
HETATM   41  C   UNL     1     -13.437   8.052  72.161  1.00  0.00    -0.165 C  
HETATM   42  C   UNL     1     -11.700   6.247  72.257  1.00  0.00    -0.298 C  
ENDBRANCH  20  32
ENDBRANCH   4  12
TORSDOF 9
ENDMDL
MODEL       20
REMARK 921   NORMALIZED FREE ENERGY PREDICTED BY IDOCK:   -4.47 KCAL/MOL
REMARK 922        TOTAL FREE ENERGY PREDICTED BY IDOCK:   -8.13 KCAL/MOL
REMARK 923 INTER-LIGAND FREE ENERGY PREDICTED BY IDOCK:   -7.39 KCAL/MOL
REMARK 924 INTRA-LIGAND FREE ENERGY PREDICTED BY IDOCK:   -0.74 KCAL/MOL
REMARK 927      BINDING AFFINITY PREDICTED BY RF-SCORE:    0.00 PKD
ROOT
HETATM    1  C   UNL     1      -8.384   5.460  65.357  1.00  0.00    -0.139 C  
HETATM    2  N   UNL     1      -8.475   6.367  66.500  1.00  0.00    -0.115 N  
HETATM    3  O   UNL     1     -10.754   6.553  66.144  1.00  0.00     0.234 OA 
HETATM    4  C   UNL     1      -9.759   6.904  66.767  1.00  0.00    -0.177 C  
ENDROOT
BRANCH   2   5
HETATM    5  C   UNL     1      -7.300   6.401  67.390  1.00  0.00    -0.087 C  
BRANCH   5   6
HETATM    6  C   UNL     1      -6.923   5.144  68.174  1.00  0.00    -0.061 C  
HETATM    7  H   UNL     1      -5.643   3.649  67.995  1.00  0.00     0.000 HD 
HETATM    8  O   UNL     1      -5.876   4.431  67.508  1.00  0.00    -0.021 OA 
BRANCH   6   9
HETATM    9  C   UNL     1      -6.433   5.586  69.572  1.00  0.00    -0.042 C  
HETATM   10  H   UNL     1      -6.509   7.189  70.753  1.00  0.00     0.000 HD 
HETATM   11  O   UNL     1      -6.810   6.917  69.894  1.00  0.00    -0.048 OA 
ENDBRANCH   6   9
ENDBRANCH   5   6
ENDBRANCH   2   5
BRANCH   4  12
HETATM   12  C   UNL     1      -9.972   7.911  67.861  1.00  0.00    -0.220 A  
HETATM   13  C   UNL     1      -9.732   9.261  67.584  1.00  0.00    -0.157 A  
HETATM   14  C   UNL     1     -10.339   7.560  69.200  1.00  0.00    -0.212 A  
HETATM   15  C   UNL     1     -10.702   8.562  70.154  1.00  0.00    -0.240 A  
HETATM   16  I   UNL     1     -10.283   5.473  69.754  1.00  0.00    -0.359 I  
HETATM   17  I   UNL     1      -8.338   9.776  66.018  1.00  0.00    -0.145 I  
HETATM   18  C   UNL     1     -10.810   9.889  69.672  1.00  0.00    -0.253 A  
HETATM   19  I   UNL     1     -12.272  11.207  70.559  1.00  0.00    -0.405 I  
HETATM   20  C   UNL     1     -10.232  10.269  68.429  1.00  0.00    -0.167 A  
BRANCH  15  21
HETATM   21  C   UNL     1     -11.063   8.171  71.580  1.00  0.00    -0.252 C  
HETATM   22  O   UNL     1     -12.258   8.015  71.847  1.00  0.00    -0.292 OA 
HETATM   23  N   UNL     1     -10.089   7.894  72.562  1.00  0.00    -0.236 N  
HETATM   24  C   UNL     1      -8.731   8.426  72.594  1.00  0.00    -0.197 C  
BRANCH  23  25
HETATM   25  C   UNL     1     -10.529   7.208  73.803  1.00  0.00    -0.329 C  
BRANCH  25  26
HETATM   26  C   UNL     1     -10.438   5.667  73.790  1.00  0.00    -0.270 C  
HETATM   27  H   UNL     1     -11.395   4.112  72.966  1.00  0.00     0.000 HD 
HETATM   28  O   UNL     1     -11.451   5.060  72.975  1.00  0.00    -0.309 OA 
BRANCH  26  29
HETATM   29  C   UNL     1      -9.091   5.184  73.225  1.00  0.00    -0.122 C  
HETATM   30  H   UNL     1      -7.214   5.144  73.820  1.00  0.00     0.000 HD 
HETATM   31  O   UNL     1      -8.047   5.442  74.169  1.00  0.00    -0.109 OA 
ENDBRANCH  26  29
ENDBRANCH  25  26
ENDBRANCH  23  25
ENDBRANCH  15  21
BRANCH  20  32
HETATM   32  N   UNL     1     -10.220  11.609  67.942  1.00  0.00    -0.185 N  
HETATM   33  C   UNL     1     -11.138  12.064  67.005  1.00  0.00    -0.298 C  
HETATM   34  H   UNL     1      -9.513  12.254  68.294  1.00  0.00     0.000 HD 
HETATM   35  H   UNL     1     -11.151  14.666  69.788  1.00  0.00     0.000 HD 
HETATM   36  H   UNL     1     -13.606  13.962  64.738  1.00  0.00     0.000 HD 
HETATM   37  C   UNL     1     -11.047  13.573  66.751  1.00  0.00    -0.311 C  
HETATM   38  O   UNL     1     -11.992  11.356  66.475  1.00  0.00    -0.268 OA 
HETATM   39  O   UNL     1     -13.163  13.730  65.546  1.00  0.00    -0.662 OA 
HETATM   40  O   UNL     1     -10.784  14.182  69.057  1.00  0.00    -0.245 OA 
HETATM   41  C   UNL     1     -11.636  14.352  67.925  1.00  0.00    -0.345 C  
HETATM   42  C   UNL     1     -11.759  13.944  65.455  1.00  0.00    -0.340 C  
ENDBRANCH  20  32
ENDBRANCH   4  12
TORSDOF 9
ENDMDL
MODEL       21
REMARK 921   NORMALIZED FREE ENERGY PREDICTED BY IDOCK:   -4.39 KCAL/MOL
REMARK 922        TOTAL FREE ENERGY PREDICTED BY IDOCK:   -8.00 KCAL/MOL
REMARK 923 INTER-LIGAND FREE ENERGY PREDICTED BY IDOCK:   -6.84 KCAL/MOL
REMARK 924 INTRA-LIGAND FREE ENERGY PREDICTED BY IDOCK:   -1.16 KCAL/MOL
REMARK 927      BINDING AFFINITY PREDICTED BY RF-SCORE:    0.00 PKD
ROOT
HETATM    1  C   UNL     1      -9.021  11.313  62.600  1.00  0.00    -0.265 C  
HETATM    2  N   UNL     1      -9.310  10.493  63.775  1.00  0.00    -0.256 N  
HETATM    3  O   UNL     1      -7.088   9.852  63.851  1.00  0.00    -0.120 OA 
HETATM    4  C   UNL     1      -8.226   9.744  64.295  1.00  0.00    -0.160 C  
ENDROOT
BRANCH   2   5
HETATM    5  C   UNL     1     -10.604  10.749  64.436  1.00  0.00    -0.176 C  
BRANCH   5   6
HETATM    6  C   UNL     1     -11.377  12.021  64.089  1.00  0.00    -0.382 C  
HETATM    7  H   UNL     1     -12.940  12.517  62.985  1.00  0.00     0.000 HD 
HETATM    8  O   UNL     1     -12.460  11.726  63.201  1.00  0.00    -0.490 OA 
BRANCH   6   9
HETATM    9  C   UNL     1     -11.940  12.607  65.405  1.00  0.00    -0.446 C  
HETATM   10  H   UNL     1     -13.425  13.788  66.010  1.00  0.00     0.000 HD 
HETATM   11  O   UNL     1     -13.080  13.429  65.201  1.00  0.00    -0.724 OA 
ENDBRANCH   6   9
ENDBRANCH   5   6
ENDBRANCH   2   5
BRANCH   4  12
HETATM   12  C   UNL     1      -8.409   8.800  65.448  1.00  0.00    -0.159 A  
HETATM   13  C   UNL     1      -8.527   9.330  66.737  1.00  0.00    -0.127 A  
HETATM   14  C   UNL     1      -8.399   7.374  65.313  1.00  0.00    -0.104 A  
HETATM   15  C   UNL     1      -8.755   6.524  66.407  1.00  0.00    -0.142 A  
HETATM   16  I   UNL     1      -7.783   6.538  63.417  1.00  0.00    -0.044 I  
HETATM   17  I   UNL     1      -7.641  11.253  67.161  1.00  0.00    -0.153 I  
HETATM   18  C   UNL     1      -9.242   7.161  67.573  1.00  0.00    -0.125 A  
HETATM   19  I   UNL     1     -10.727   6.151  68.772  1.00  0.00    -0.372 I  
HETATM   20  C   UNL     1      -9.038   8.552  67.792  1.00  0.00    -0.135 A  
BRANCH  15  21
HETATM   21  C   UNL     1      -8.711   5.011  66.251  1.00  0.00    -0.117 C  
HETATM   22  O   UNL     1      -9.741   4.443  65.877  1.00  0.00    -0.174 OA 
HETATM   23  N   UNL     1      -7.528   4.262  66.424  1.00  0.00    -0.084 N  
HETATM   24  C   UNL     1      -6.391   4.641  67.256  1.00  0.00    -0.041 C  
BRANCH  23  25
HETATM   25  C   UNL     1      -7.513   2.862  65.931  1.00  0.00    -0.072 C  
BRANCH  25  26
HETATM   26  C   UNL     1      -7.203   2.679  64.430  1.00  0.00    -0.054 C  
HETATM   27  H   UNL     1      -5.782   1.865  63.277  1.00  0.00     0.000 HD 
HETATM   28  O   UNL     1      -5.973   1.977  64.201  1.00  0.00    -0.012 OA 
BRANCH  26  29
HETATM   29  C   UNL     1      -8.297   1.863  63.720  1.00  0.00    -0.080 C  
HETATM   30  H   UNL     1      -8.545   1.017  61.959  1.00  0.00     0.000 HD 
HETATM   31  O   UNL     1      -7.869   1.521  62.398  1.00  0.00    -0.044 OA 
ENDBRANCH  26  29
ENDBRANCH  25  26
ENDBRANCH  23  25
ENDBRANCH  15  21
BRANCH  20  32
HETATM   32  N   UNL     1      -9.415   9.225  68.990  1.00  0.00    -0.153 N  
HETATM   33  C   UNL     1     -10.663   9.813  69.148  1.00  0.00    -0.221 C  
HETATM   34  H   UNL     1      -8.745   9.277  69.758  1.00  0.00     0.000 HD 
HETATM   35  H   UNL     1     -10.130   7.707  72.277  1.00  0.00     0.000 HD 
HETATM   36  H   UNL     1     -14.042  11.274  70.280  1.00  0.00     0.000 HD 
HETATM   37  C   UNL     1     -10.914  10.332  70.568  1.00  0.00    -0.343 C  
HETATM   38  O   UNL     1     -11.521   9.858  68.267  1.00  0.00    -0.072 OA 
HETATM   39  O   UNL     1     -13.313  10.665  70.270  1.00  0.00    -0.057 OA 
HETATM   40  O   UNL     1      -9.966   8.429  71.682  1.00  0.00    -0.193 OA 
HETATM   41  C   UNL     1     -11.175   9.172  71.525  1.00  0.00    -0.360 C  
HETATM   42  C   UNL     1     -12.084  11.310  70.584  1.00  0.00    -0.383 C  
ENDBRANCH  20  32
ENDBRANCH   4  12
TORSDOF 9
ENDMDL
MODEL       22
REMARK 921   NORMALIZED FREE ENERGY PREDICTED BY IDOCK:   -4.37 KCAL/MOL
REMARK 922        TOTAL FREE ENERGY PREDICTED BY IDOCK:   -7.97 KCAL/MOL
REMARK 923 INTER-LIGAND FREE ENERGY PREDICTED BY IDOCK:   -7.28 KCAL/MOL
REMARK 924 INTRA-LIGAND FREE ENERGY PREDICTED BY IDOCK:   -0.69 KCAL/MOL
REMARK 927      BINDING AFFINITY PREDICTED BY RF-SCORE:    0.00 PKD
ROOT
HETATM    1  C   UNL     1      -7.222   6.982  65.370  1.00  0.00    -0.073 C  
HETATM    2  N   UNL     1      -8.157   7.486  66.375  1.00  0.00    -0.110 N  
HETATM    3  O   UNL     1      -6.557   9.005  67.073  1.00  0.00    -0.060 OA 
HETATM    4  C   UNL     1      -7.665   8.504  67.228  1.00  0.00    -0.097 C  
ENDROOT
BRANCH   2   5
HETATM    5  C   UNL     1      -9.565   7.078  66.206  1.00  0.00    -0.031 C  
BRANCH   5   6
HETATM    6  C   UNL     1     -10.115   5.935  67.058  1.00  0.00    -0.183 C  
HETATM    7  H   UNL     1     -11.490   5.697  68.458  1.00  0.00     0.000 HD 
HETATM    8  O   UNL     1     -11.148   6.407  67.928  1.00  0.00    -0.322 OA 
BRANCH   6   9
HETATM    9  C   UNL     1     -10.699   4.869  66.102  1.00  0.00    -0.184 C  
HETATM   10  H   UNL     1     -10.106   3.229  65.139  1.00  0.00     0.000 HD 
HETATM   11  O   UNL     1      -9.747   3.883  65.726  1.00  0.00    -0.180 OA 
ENDBRANCH   6   9
ENDBRANCH   5   6
ENDBRANCH   2   5
BRANCH   4  12
HETATM   12  C   UNL     1      -8.497   9.049  68.354  1.00  0.00    -0.129 A  
HETATM   13  C   UNL     1      -9.264  10.196  68.127  1.00  0.00    -0.135 A  
HETATM   14  C   UNL     1      -8.494   8.501  69.677  1.00  0.00    -0.130 A  
HETATM   15  C   UNL     1      -9.433   8.942  70.663  1.00  0.00    -0.259 A  
HETATM   16  I   UNL     1      -6.997   7.019  70.160  1.00  0.00    -0.069 I  
HETATM   17  I   UNL     1      -8.645  11.580  66.590  1.00  0.00    -0.105 I  
HETATM   18  C   UNL     1     -10.438   9.837  70.226  1.00  0.00    -0.288 A  
HETATM   19  I   UNL     1     -12.389   9.747  71.147  1.00  0.00    -0.471 I  
HETATM   20  C   UNL     1     -10.308  10.549  69.001  1.00  0.00    -0.213 A  
BRANCH  15  21
HETATM   21  C   UNL     1      -9.395   8.366  72.071  1.00  0.00    -0.262 C  
HETATM   22  O   UNL     1      -8.705   8.949  72.911  1.00  0.00    -0.313 OA 
HETATM   23  N   UNL     1     -10.183   7.263  72.463  1.00  0.00    -0.190 N  
HETATM   24  C   UNL     1     -10.681   6.212  71.583  1.00  0.00    -0.245 C  
BRANCH  23  25
HETATM   25  C   UNL     1     -10.326   6.992  73.916  1.00  0.00    -0.348 C  
BRANCH  25  26
HETATM   26  C   UNL     1      -9.539   5.778  74.455  1.00  0.00    -0.179 C  
HETATM   27  H   UNL     1      -9.709   3.783  74.514  1.00  0.00     0.000 HD 
HETATM   28  O   UNL     1     -10.193   4.530  74.183  1.00  0.00    -0.172 OA 
BRANCH  26  29
HETATM   29  C   UNL     1      -8.144   5.676  73.813  1.00  0.00    -0.107 C  
HETATM   30  H   UNL     1      -7.112   4.320  72.825  1.00  0.00     0.000 HD 
HETATM   31  O   UNL     1      -7.974   4.384  73.221  1.00  0.00    -0.092 OA 
ENDBRANCH  26  29
ENDBRANCH  25  26
ENDBRANCH  23  25
ENDBRANCH  15  21
BRANCH  20  32
HETATM   32  N   UNL     1     -11.236  11.538  68.562  1.00  0.00    -0.233 N  
HETATM   33  C   UNL     1     -10.970  12.898  68.659  1.00  0.00    -0.261 C  
HETATM   34  H   UNL     1     -12.125  11.236  68.162  1.00  0.00     0.000 HD 
HETATM   35  H   UNL     1     -12.156  12.348  65.081  1.00  0.00     0.000 HD 
HETATM   36  H   UNL     1     -10.639  16.721  68.337  1.00  0.00     0.000 HD 
HETATM   37  C   UNL     1     -12.027  13.772  67.976  1.00  0.00    -0.390 C  
HETATM   38  O   UNL     1      -9.958  13.367  69.176  1.00  0.00     0.084 OA 
HETATM   39  O   UNL     1     -10.704  15.821  68.038  1.00  0.00    -0.276 OA 
HETATM   40  O   UNL     1     -12.247  12.391  66.026  1.00  0.00    -0.636 OA 
HETATM   41  C   UNL     1     -11.883  13.702  66.458  1.00  0.00    -0.404 C  
HETATM   42  C   UNL     1     -11.922  15.216  68.456  1.00  0.00    -0.214 C  
ENDBRANCH  20  32
ENDBRANCH   4  12
TORSDOF 9
ENDMDL
MODEL       23
REMARK 921   NORMALIZED FREE ENERGY PREDICTED BY IDOCK:   -4.34 KCAL/MOL
REMARK 922        TOTAL FREE ENERGY PREDICTED BY IDOCK:   -7.92 KCAL/MOL
REMARK 923 INTER-LIGAND FREE ENERGY PREDICTED BY IDOCK:   -6.96 KCAL/MOL
REMARK 924 INTRA-LIGAND FREE ENERGY PREDICTED BY IDOCK:   -0.96 KCAL/MOL
REMARK 927      BINDING AFFINITY PREDICTED BY RF-SCORE:    0.00 PKD
ROOT
HETATM    1  C   UNL     1     -13.049  13.983  65.678  1.00  0.00    -0.147 C  
HETATM    2  N   UNL     1     -11.614  13.894  65.946  1.00  0.00    -0.330 N  
HETATM    3  O   UNL     1     -12.054  13.966  68.216  1.00  0.00    -0.366 OA 
HETATM    4  C   UNL     1     -11.231  13.948  67.308  1.00  0.00    -0.312 C  
ENDROOT
BRANCH   2   5
HETATM    5  C   UNL     1     -10.770  13.490  64.805  1.00  0.00    -0.401 C  
BRANCH   5   6
HETATM    6  C   UNL     1     -11.123  12.218  64.033  1.00  0.00    -0.386 C  
HETATM    7  H   UNL     1     -12.329  11.702  62.556  1.00  0.00     0.000 HD 
HETATM    8  O   UNL     1     -12.110  12.492  63.035  1.00  0.00    -0.343 OA 
BRANCH   6   9
HETATM    9  C   UNL     1      -9.833  11.706  63.351  1.00  0.00    -0.404 C  
HETATM   10  H   UNL     1      -8.809  10.009  63.155  1.00  0.00     0.000 HD 
HETATM   11  O   UNL     1      -9.601  10.323  63.575  1.00  0.00    -0.293 OA 
ENDBRANCH   6   9
ENDBRANCH   5   6
ENDBRANCH   2   5
BRANCH   4  12
HETATM   12  C   UNL     1      -9.785  13.950  67.713  1.00  0.00    -0.225 A  
HETATM   13  C   UNL     1      -9.108  15.173  67.777  1.00  0.00    -0.179 A  
HETATM   14  C   UNL     1      -9.033  12.759  67.970  1.00  0.00    -0.196 A  
HETATM   15  C   UNL     1      -7.715  12.821  68.524  1.00  0.00    -0.113 A  
HETATM   16  I   UNL     1      -9.928  10.861  67.454  1.00  0.00    -0.246 I  
HETATM   17  I   UNL     1      -9.801  16.815  66.557  1.00  0.00    -0.347 I  
HETATM   18  C   UNL     1      -7.254  14.098  68.925  1.00  0.00    -0.118 A  
HETATM   19  I   UNL     1      -5.924  14.243  70.620  1.00  0.00    -0.053 I  
HETATM   20  C   UNL     1      -7.888  15.286  68.467  1.00  0.00    -0.134 A  
BRANCH  15  21
HETATM   21  C   UNL     1      -6.922  11.544  68.764  1.00  0.00    -0.096 C  
HETATM   22  O   UNL     1      -7.071  10.971  69.847  1.00  0.00    -0.115 OA 
HETATM   23  N   UNL     1      -6.109  10.955  67.772  1.00  0.00    -0.046 N  
HETATM   24  C   UNL     1      -5.469  11.656  66.664  1.00  0.00    -0.107 C  
BRANCH  23  25
HETATM   25  C   UNL     1      -5.651   9.560  67.987  1.00  0.00    -0.040 C  
BRANCH  25  26
HETATM   26  C   UNL     1      -6.603   8.453  67.486  1.00  0.00    -0.058 C  
HETATM   27  H   UNL     1      -6.774   7.212  65.922  1.00  0.00     0.000 HD 
HETATM   28  O   UNL     1      -6.188   7.894  66.231  1.00  0.00    -0.044 OA 
BRANCH  26  29
HETATM   29  C   UNL     1      -6.674   7.276  68.474  1.00  0.00    -0.057 C  
HETATM   30  H   UNL     1      -7.927   6.627  69.848  1.00  0.00     0.000 HD 
HETATM   31  O   UNL     1      -7.883   7.354  69.237  1.00  0.00    -0.111 OA 
ENDBRANCH  26  29
ENDBRANCH  25  26
ENDBRANCH  23  25
ENDBRANCH  15  21
BRANCH  20  32
HETATM   32  N   UNL     1      -7.407  16.597  68.754  1.00  0.00    -0.207 N  
HETATM   33  C   UNL     1      -6.591  17.295  67.872  1.00  0.00    -0.153 C  
HETATM   34  H   UNL     1      -7.670  17.036  69.636  1.00  0.00     0.000 HD 
HETATM   35  H   UNL     1      -9.361  19.726  68.838  1.00  0.00     0.000 HD 
HETATM   36  H   UNL     1      -4.653  19.816  65.700  1.00  0.00     0.000 HD 
HETATM   37  C   UNL     1      -6.333  18.743  68.304  1.00  0.00    -0.224 C  
HETATM   38  O   UNL     1      -6.170  16.837  66.812  1.00  0.00    -0.179 OA 
HETATM   39  O   UNL     1      -5.400  19.456  66.165  1.00  0.00    -0.152 OA 
HETATM   40  O   UNL     1      -8.590  19.191  68.984  1.00  0.00    -0.313 OA 
HETATM   41  C   UNL     1      -7.572  19.603  68.072  1.00  0.00    -0.299 C  
HETATM   42  C   UNL     1      -5.135  19.320  67.557  1.00  0.00    -0.165 C  
ENDBRANCH  20  32
ENDBRANCH   4  12
TORSDOF 9
ENDMDL
MODEL       24
REMARK 921   NORMALIZED FREE ENERGY PREDICTED BY IDOCK:   -4.33 KCAL/MOL
REMARK 922        TOTAL FREE ENERGY PREDICTED BY IDOCK:   -7.91 KCAL/MOL
REMARK 923 INTER-LIGAND FREE ENERGY PREDICTED BY IDOCK:   -6.73 KCAL/MOL
REMARK 924 INTRA-LIGAND FREE ENERGY PREDICTED BY IDOCK:   -1.18 KCAL/MOL
REMARK 927      BINDING AFFINITY PREDICTED BY RF-SCORE:    0.00 PKD
ROOT
HETATM    1  C   UNL     1     -10.494   6.495  74.174  1.00  0.00    -0.239 C  
HETATM    2  N   UNL     1      -9.902   7.255  73.074  1.00  0.00    -0.189 N  
HETATM    3  O   UNL     1     -11.751   6.767  71.771  1.00  0.00    -0.280 OA 
HETATM    4  C   UNL     1     -10.638   7.273  71.864  1.00  0.00    -0.212 C  
ENDROOT
BRANCH   2   5
HETATM    5  C   UNL     1      -8.767   8.126  73.431  1.00  0.00    -0.251 C  
BRANCH   5   6
HETATM    6  C   UNL     1      -7.356   7.537  73.454  1.00  0.00    -0.092 C  
HETATM    7  H   UNL     1      -6.497   5.807  73.038  1.00  0.00     0.000 HD 
HETATM    8  O   UNL     1      -7.373   6.172  73.024  1.00  0.00    -0.091 OA 
BRANCH   6   9
HETATM    9  C   UNL     1      -6.481   8.368  72.487  1.00  0.00    -0.087 C  
HETATM   10  H   UNL     1      -6.654   9.945  71.283  1.00  0.00     0.000 HD 
HETATM   11  O   UNL     1      -7.192   9.435  71.876  1.00  0.00    -0.300 OA 
ENDBRANCH   6   9
ENDBRANCH   5   6
ENDBRANCH   2   5
BRANCH   4  12
HETATM   12  C   UNL     1     -10.102   7.947  70.634  1.00  0.00    -0.197 A  
HETATM   13  C   UNL     1     -10.520   9.252  70.349  1.00  0.00    -0.245 A  
HETATM   14  C   UNL     1      -9.239   7.303  69.690  1.00  0.00    -0.143 A  
HETATM   15  C   UNL     1      -8.616   8.041  68.634  1.00  0.00    -0.128 A  
HETATM   16  I   UNL     1      -8.941   5.171  69.877  1.00  0.00    -0.172 I  
HETATM   17  I   UNL     1     -12.430   9.925  71.099  1.00  0.00    -0.492 I  
HETATM   18  C   UNL     1      -8.787   9.445  68.654  1.00  0.00    -0.132 A  
HETATM   19  I   UNL     1      -7.194  10.702  67.916  1.00  0.00    -0.092 I  
HETATM   20  C   UNL     1      -9.811  10.051  69.433  1.00  0.00    -0.224 A  
BRANCH  15  21
HETATM   21  C   UNL     1      -7.723   7.332  67.625  1.00  0.00    -0.112 C  
HETATM   22  O   UNL     1      -6.642   6.891  68.026  1.00  0.00    -0.054 OA 
HETATM   23  N   UNL     1      -8.124   7.085  66.295  1.00  0.00    -0.110 N  
HETATM   24  C   UNL     1      -9.094   7.868  65.536  1.00  0.00     0.114 C  
BRANCH  23  25
HETATM   25  C   UNL     1      -7.335   6.112  65.500  1.00  0.00    -0.080 C  
BRANCH  25  26
HETATM   26  C   UNL     1      -7.766   4.634  65.625  1.00  0.00    -0.094 C  
HETATM   27  H   UNL     1      -7.381   3.050  66.790  1.00  0.00     0.000 HD 
HETATM   28  O   UNL     1      -7.116   3.959  66.712  1.00  0.00    -0.061 OA 
BRANCH  26  29
HETATM   29  C   UNL     1      -9.276   4.504  65.885  1.00  0.00    -0.143 C  
HETATM   30  H   UNL     1     -10.847   3.817  64.916  1.00  0.00     0.000 HD 
HETATM   31  O   UNL     1      -9.914   3.897  64.756  1.00  0.00    -0.185 OA 
ENDBRANCH  26  29
ENDBRANCH  25  26
ENDBRANCH  23  25
ENDBRANCH  15  21
BRANCH  20  32
HETATM   32  N   UNL     1     -10.096  11.447  69.413  1.00  0.00    -0.424 N  
HETATM   33  C   UNL     1     -10.669  12.070  68.311  1.00  0.00    -0.224 C  
HETATM   34  H   UNL     1      -9.872  12.008  70.235  1.00  0.00     0.000 HD 
HETATM   35  H   UNL     1     -12.720  13.221  71.308  1.00  0.00     0.000 HD 
HETATM   36  H   UNL     1     -12.553  14.235  65.743  1.00  0.00     0.000 HD 
HETATM   37  C   UNL     1     -11.041  13.534  68.568  1.00  0.00    -0.300 C  
HETATM   38  O   UNL     1     -10.924  11.499  67.252  1.00  0.00    -0.240 OA 
HETATM   39  O   UNL     1     -12.411  13.776  66.564  1.00  0.00    -0.404 OA 
HETATM   40  O   UNL     1     -11.947  13.164  70.759  1.00  0.00    -0.277 OA 
HETATM   41  C   UNL     1     -12.283  13.626  69.451  1.00  0.00    -0.259 C  
HETATM   42  C   UNL     1     -11.267  14.270  67.251  1.00  0.00    -0.318 C  
ENDBRANCH  20  32
ENDBRANCH   4  12
TORSDOF 9
ENDMDL
MODEL       25
REMARK 921   NORMALIZED FREE ENERGY PREDICTED BY IDOCK:   -4.32 KCAL/MOL
REMARK 922        TOTAL FREE ENERGY PREDICTED BY IDOCK:   -7.90 KCAL/MOL
REMARK 923 INTER-LIGAND FREE ENERGY PREDICTED BY IDOCK:   -6.99 KCAL/MOL
REMARK 924 INTRA-LIGAND FREE ENERGY PREDICTED BY IDOCK:   -0.91 KCAL/MOL
REMARK 927      BINDING AFFINITY PREDICTED BY RF-SCORE:    0.00 PKD
ROOT
HETATM    1  C   UNL     1      -8.804   5.382  65.354  1.00  0.00    -0.143 C  
HETATM    2  N   UNL     1      -8.872   6.246  66.531  1.00  0.00    -0.133 N  
HETATM    3  O   UNL     1     -11.176   6.027  66.532  1.00  0.00    -0.144 OA 
HETATM    4  C   UNL     1     -10.171   6.543  67.011  1.00  0.00    -0.215 C  
ENDROOT
BRANCH   2   5
HETATM    5  C   UNL     1      -7.596   6.479  67.233  1.00  0.00    -0.096 C  
BRANCH   5   6
HETATM    6  C   UNL     1      -6.474   7.225  66.511  1.00  0.00    -0.052 C  
HETATM    7  H   UNL     1      -5.410   8.868  66.784  1.00  0.00     0.000 HD 
HETATM    8  O   UNL     1      -6.107   8.404  67.233  1.00  0.00    -0.052 OA 
BRANCH   6   9
HETATM    9  C   UNL     1      -5.256   6.277  66.423  1.00  0.00    -0.013 C  
HETATM   10  H   UNL     1      -4.813   4.364  66.757  1.00  0.00     0.000 HD 
HETATM   11  O   UNL     1      -5.562   4.946  66.811  1.00  0.00    -0.013 OA 
ENDBRANCH   6   9
ENDBRANCH   5   6
ENDBRANCH   2   5
BRANCH   4  12
HETATM   12  C   UNL     1     -10.383   7.484  68.161  1.00  0.00    -0.244 A  
HETATM   13  C   UNL     1     -10.526   8.850  67.893  1.00  0.00    -0.223 A  
HETATM   14  C   UNL     1     -10.375   7.073  69.533  1.00  0.00    -0.213 A  
HETATM   15  C   UNL     1     -10.756   7.972  70.578  1.00  0.00    -0.231 A  
HETATM   16  I   UNL     1      -9.721   5.063  69.986  1.00  0.00    -0.333 I  
HETATM   17  I   UNL     1      -9.644   9.660  66.096  1.00  0.00    -0.348 I  
HETATM   18  C   UNL     1     -11.267   9.230  70.177  1.00  0.00    -0.208 A  
HETATM   19  I   UNL     1     -12.780  10.177  71.392  1.00  0.00    -0.596 I  
HETATM   20  C   UNL     1     -11.063   9.721  68.858  1.00  0.00    -0.099 A  
BRANCH  15  21
HETATM   21  C   UNL     1     -10.715   7.523  72.031  1.00  0.00    -0.225 C  
HETATM   22  O   UNL     1     -11.731   7.006  72.502  1.00  0.00    -0.247 OA 
HETATM   23  N   UNL     1      -9.543   7.592  72.816  1.00  0.00    -0.178 N  
HETATM   24  C   UNL     1      -8.439   8.526  72.622  1.00  0.00    -0.099 C  
BRANCH  23  25
HETATM   25  C   UNL     1      -9.516   6.835  74.092  1.00  0.00    -0.239 C  
BRANCH  25  26
HETATM   26  C   UNL     1      -8.845   5.445  74.036  1.00  0.00    -0.120 C  
HETATM   27  H   UNL     1      -9.290   3.585  73.440  1.00  0.00     0.000 HD 
HETATM   28  O   UNL     1      -9.702   4.440  73.474  1.00  0.00    -0.119 OA 
BRANCH  26  29
HETATM   29  C   UNL     1      -7.579   5.461  73.163  1.00  0.00    -0.096 C  
HETATM   30  H   UNL     1      -6.381   4.130  72.344  1.00  0.00     0.000 HD 
HETATM   31  O   UNL     1      -7.163   4.121  72.883  1.00  0.00    -0.063 OA 
ENDBRANCH  26  29
ENDBRANCH  25  26
ENDBRANCH  23  25
ENDBRANCH  15  21
BRANCH  20  32
HETATM   32  N   UNL     1     -11.463  11.020  68.429  1.00  0.00    -0.294 N  
HETATM   33  C   UNL     1     -10.585  12.097  68.412  1.00  0.00    -0.226 C  
HETATM   34  H   UNL     1     -12.426  11.164  68.125  1.00  0.00     0.000 HD 
HETATM   35  H   UNL     1     -12.258  12.093  64.989  1.00  0.00     0.000 HD 
HETATM   36  H   UNL     1      -8.544  15.305  67.802  1.00  0.00     0.000 HD 
HETATM   37  C   UNL     1     -11.177  13.351  67.759  1.00  0.00    -0.306 C  
HETATM   38  O   UNL     1      -9.423  12.046  68.810  1.00  0.00    -0.102 OA 
HETATM   39  O   UNL     1      -9.053  14.536  67.572  1.00  0.00    -0.181 OA 
HETATM   40  O   UNL     1     -12.218  12.194  65.933  1.00  0.00    -0.604 OA 
HETATM   41  C   UNL     1     -11.242  13.188  66.243  1.00  0.00    -0.301 C  
HETATM   42  C   UNL     1     -10.362  14.585  68.129  1.00  0.00    -0.232 C  
ENDBRANCH  20  32
ENDBRANCH   4  12
TORSDOF 9
ENDMDL
MODEL       26
REMARK 921   NORMALIZED FREE ENERGY PREDICTED BY IDOCK:   -4.29 KCAL/MOL
REMARK 922        TOTAL FREE ENERGY PREDICTED BY IDOCK:   -7.85 KCAL/MOL
REMARK 923 INTER-LIGAND FREE ENERGY PREDICTED BY IDOCK:   -7.11 KCAL/MOL
REMARK 924 INTRA-LIGAND FREE ENERGY PREDICTED BY IDOCK:   -0.74 KCAL/MOL
REMARK 927      BINDING AFFINITY PREDICTED BY RF-SCORE:    0.00 PKD
ROOT
HETATM    1  C   UNL     1      -7.383   8.323  72.752  1.00  0.00    -0.104 C  
HETATM    2  N   UNL     1      -7.696   8.575  71.346  1.00  0.00    -0.099 N  
HETATM    3  O   UNL     1      -9.896   7.980  71.751  1.00  0.00    -0.166 OA 
HETATM    4  C   UNL     1      -9.029   8.307  70.948  1.00  0.00    -0.151 C  
ENDROOT
BRANCH   2   5
HETATM    5  C   UNL     1      -6.680   9.325  70.584  1.00  0.00    -0.085 C  
BRANCH   5   6
HETATM    6  C   UNL     1      -7.034  10.707  70.034  1.00  0.00    -0.126 C  
HETATM    7  H   UNL     1      -6.412  12.568  70.269  1.00  0.00     0.000 HD 
HETATM    8  O   UNL     1      -6.192  11.710  70.611  1.00  0.00    -0.308 OA 
BRANCH   6   9
HETATM    9  C   UNL     1      -6.817  10.676  68.503  1.00  0.00    -0.065 C  
HETATM   10  H   UNL     1      -6.101   9.443  67.112  1.00  0.00     0.000 HD 
HETATM   11  O   UNL     1      -6.234   9.462  68.052  1.00  0.00    -0.055 OA 
ENDBRANCH   6   9
ENDBRANCH   5   6
ENDBRANCH   2   5
BRANCH   4  12
HETATM   12  C   UNL     1      -9.459   8.445  69.516  1.00  0.00    -0.166 A  
HETATM   13  C   UNL     1     -10.414   9.416  69.193  1.00  0.00    -0.217 A  
HETATM   14  C   UNL     1      -9.000   7.588  68.465  1.00  0.00    -0.128 A  
HETATM   15  C   UNL     1      -9.299   7.870  67.095  1.00  0.00    -0.190 A  
HETATM   16  I   UNL     1      -7.880   5.822  69.011  1.00  0.00    -0.095 I  
HETATM   17  I   UNL     1     -11.804  10.061  70.714  1.00  0.00    -0.466 I  
HETATM   18  C   UNL     1      -9.948   9.100  66.827  1.00  0.00    -0.254 A  
HETATM   19  I   UNL     1      -9.520  10.125  64.976  1.00  0.00    -0.370 I  
HETATM   20  C   UNL     1     -10.600   9.828  67.861  1.00  0.00    -0.259 A  
BRANCH  15  21
HETATM   21  C   UNL     1      -8.825   6.931  65.995  1.00  0.00    -0.136 C  
HETATM   22  O   UNL     1      -7.843   7.275  65.331  1.00  0.00    -0.103 OA 
HETATM   23  N   UNL     1      -9.402   5.662  65.777  1.00  0.00    -0.111 N  
HETATM   24  C   UNL     1     -10.768   5.275  66.112  1.00  0.00    -0.149 C  
BRANCH  23  25
HETATM   25  C   UNL     1      -8.665   4.702  64.917  1.00  0.00    -0.145 C  
BRANCH  25  26
HETATM   26  C   UNL     1      -9.496   4.006  63.818  1.00  0.00    -0.155 C  
HETATM   27  H   UNL     1      -9.475   3.790  61.827  1.00  0.00     0.000 HD 
HETATM   28  O   UNL     1      -8.963   4.219  62.503  1.00  0.00    -0.101 OA 
BRANCH  26  29
HETATM   29  C   UNL     1      -9.538   2.482  64.019  1.00  0.00    -0.140 C  
HETATM   30  H   UNL     1      -9.197   1.216  65.489  1.00  0.00     0.000 HD 
HETATM   31  O   UNL     1      -9.171   2.158  65.364  1.00  0.00    -0.122 OA 
ENDBRANCH  26  29
ENDBRANCH  25  26
ENDBRANCH  23  25
ENDBRANCH  15  21
BRANCH  20  32
HETATM   32  N   UNL     1     -11.355  11.015  67.633  1.00  0.00    -0.302 N  
HETATM   33  C   UNL     1     -10.794  12.281  67.742  1.00  0.00    -0.221 C  
HETATM   34  H   UNL     1     -12.340  10.932  67.382  1.00  0.00     0.000 HD 
HETATM   35  H   UNL     1     -12.633  12.267  64.405  1.00  0.00     0.000 HD 
HETATM   36  H   UNL     1      -9.712  15.971  67.531  1.00  0.00     0.000 HD 
HETATM   37  C   UNL     1     -11.737  13.402  67.292  1.00  0.00    -0.424 C  
HETATM   38  O   UNL     1      -9.635  12.494  68.093  1.00  0.00    -0.206 OA 
HETATM   39  O   UNL     1     -10.015  15.130  67.210  1.00  0.00    -0.228 OA 
HETATM   40  O   UNL     1     -12.558  12.253  65.352  1.00  0.00    -0.572 OA 
HETATM   41  C   UNL     1     -11.858  13.425  65.770  1.00  0.00    -0.377 C  
HETATM   42  C   UNL     1     -11.250  14.752  67.808  1.00  0.00    -0.313 C  
ENDBRANCH  20  32
ENDBRANCH   4  12
TORSDOF 9
ENDMDL
MODEL       27
REMARK 921   NORMALIZED FREE ENERGY PREDICTED BY IDOCK:   -4.23 KCAL/MOL
REMARK 922        TOTAL FREE ENERGY PREDICTED BY IDOCK:   -7.76 KCAL/MOL
REMARK 923 INTER-LIGAND FREE ENERGY PREDICTED BY IDOCK:   -6.99 KCAL/MOL
REMARK 924 INTRA-LIGAND FREE ENERGY PREDICTED BY IDOCK:   -0.77 KCAL/MOL
REMARK 927      BINDING AFFINITY PREDICTED BY RF-SCORE:    0.00 PKD
ROOT
HETATM    1  C   UNL     1     -12.101  14.686  67.075  1.00  0.00    -0.186 C  
HETATM    2  N   UNL     1     -11.520  13.347  67.154  1.00  0.00    -0.322 N  
HETATM    3  O   UNL     1     -10.948  13.747  69.360  1.00  0.00    -0.200 OA 
HETATM    4  C   UNL     1     -10.908  13.005  68.385  1.00  0.00    -0.258 C  
ENDROOT
BRANCH   2   5
HETATM    5  C   UNL     1     -11.877  12.425  66.058  1.00  0.00    -0.395 C  
BRANCH   5   6
HETATM    6  C   UNL     1     -10.925  12.278  64.871  1.00  0.00    -0.302 C  
HETATM    7  H   UNL     1      -9.831  10.850  64.054  1.00  0.00     0.000 HD 
HETATM    8  O   UNL     1     -10.422  10.941  64.792  1.00  0.00    -0.328 OA 
BRANCH   6   9
HETATM    9  C   UNL     1     -11.720  12.603  63.585  1.00  0.00    -0.522 C  
HETATM   10  H   UNL     1     -13.239  13.756  63.008  1.00  0.00     0.000 HD 
HETATM   11  O   UNL     1     -12.751  13.557  63.798  1.00  0.00    -0.682 OA 
ENDBRANCH   6   9
ENDBRANCH   5   6
ENDBRANCH   2   5
BRANCH   4  12
HETATM   12  C   UNL     1     -10.203  11.692  68.569  1.00  0.00    -0.216 A  
HETATM   13  C   UNL     1     -10.842  10.685  69.299  1.00  0.00    -0.239 A  
HETATM   14  C   UNL     1      -8.876  11.433  68.098  1.00  0.00    -0.162 A  
HETATM   15  C   UNL     1      -8.319  10.116  68.141  1.00  0.00    -0.117 A  
HETATM   16  I   UNL     1      -7.715  13.101  67.364  1.00  0.00     0.012 I  
HETATM   17  I   UNL     1     -12.310  11.240  70.783  1.00  0.00    -0.316 I  
HETATM   18  C   UNL     1      -9.188   9.072  68.541  1.00  0.00    -0.136 A  
HETATM   19  I   UNL     1      -8.923   7.108  67.685  1.00  0.00    -0.132 I  
HETATM   20  C   UNL     1     -10.408   9.349  69.217  1.00  0.00    -0.208 A  
BRANCH  15  21
HETATM   21  C   UNL     1      -6.897   9.867  67.661  1.00  0.00    -0.084 C  
HETATM   22  O   UNL     1      -5.992   9.912  68.499  1.00  0.00    -0.042 OA 
HETATM   23  N   UNL     1      -6.595   9.500  66.332  1.00  0.00    -0.070 N  
HETATM   24  C   UNL     1      -7.396   9.817  65.155  1.00  0.00    -0.122 C  
BRANCH  23  25
HETATM   25  C   UNL     1      -5.240   8.963  66.050  1.00  0.00    -0.033 C  
BRANCH  25  26
HETATM   26  C   UNL     1      -5.125   7.424  65.987  1.00  0.00    -0.024 C  
HETATM   27  H   UNL     1      -5.385   5.847  67.195  1.00  0.00     0.000 HD 
HETATM   28  O   UNL     1      -5.456   6.794  67.233  1.00  0.00    -0.012 OA 
BRANCH  26  29
HETATM   29  C   UNL     1      -6.082   6.826  64.941  1.00  0.00    -0.036 C  
HETATM   30  H   UNL     1      -5.933   5.686  63.343  1.00  0.00     0.000 HD 
HETATM   31  O   UNL     1      -5.342   6.055  63.989  1.00  0.00    -0.016 OA 
ENDBRANCH  26  29
ENDBRANCH  25  26
ENDBRANCH  23  25
ENDBRANCH  15  21
BRANCH  20  32
HETATM   32  N   UNL     1     -11.271   8.338  69.733  1.00  0.00    -0.450 N  
HETATM   33  C   UNL     1     -10.946   7.592  70.858  1.00  0.00    -0.253 C  
HETATM   34  H   UNL     1     -12.156   8.157  69.260  1.00  0.00     0.000 HD 
HETATM   35  H   UNL     1     -14.504   8.819  71.445  1.00  0.00     0.000 HD 
HETATM   36  H   UNL     1     -10.756   5.505  74.090  1.00  0.00     0.000 HD 
HETATM   37  C   UNL     1     -12.085   6.684  71.333  1.00  0.00    -0.400 C  
HETATM   38  O   UNL     1      -9.882   7.690  71.468  1.00  0.00    -0.166 OA 
HETATM   39  O   UNL     1     -11.085   6.174  73.499  1.00  0.00    -0.173 OA 
HETATM   40  O   UNL     1     -13.823   8.309  71.023  1.00  0.00    -0.076 OA 
HETATM   41  C   UNL     1     -13.180   7.504  72.011  1.00  0.00    -0.145 C  
HETATM   42  C   UNL     1     -11.558   5.611  72.281  1.00  0.00    -0.181 C  
ENDBRANCH  20  32
ENDBRANCH   4  12
TORSDOF 9
ENDMDL
MODEL       28
REMARK 921   NORMALIZED FREE ENERGY PREDICTED BY IDOCK:   -4.16 KCAL/MOL
REMARK 922        TOTAL FREE ENERGY PREDICTED BY IDOCK:   -7.66 KCAL/MOL
REMARK 923 INTER-LIGAND FREE ENERGY PREDICTED BY IDOCK:   -6.54 KCAL/MOL
REMARK 924 INTRA-LIGAND FREE ENERGY PREDICTED BY IDOCK:   -1.11 KCAL/MOL
REMARK 927      BINDING AFFINITY PREDICTED BY RF-SCORE:    0.00 PKD
ROOT
HETATM    1  C   UNL     1      -5.280   6.799  67.000  1.00  0.00    -0.009 C  
HETATM    2  N   UNL     1      -6.402   7.537  67.578  1.00  0.00    -0.054 N  
HETATM    3  O   UNL     1      -7.689   6.981  65.737  1.00  0.00    -0.093 OA 
HETATM    4  C   UNL     1      -7.580   7.595  66.792  1.00  0.00    -0.098 C  
ENDROOT
BRANCH   2   5
HETATM    5  C   UNL     1      -6.273   7.893  69.004  1.00  0.00    -0.039 C  
BRANCH   5   6
HETATM    6  C   UNL     1      -5.610   9.217  69.382  1.00  0.00    -0.035 C  
HETATM    7  H   UNL     1      -5.215  10.946  68.510  1.00  0.00     0.000 HD 
HETATM    8  O   UNL     1      -5.627  10.123  68.275  1.00  0.00    -0.042 OA 
BRANCH   6   9
HETATM    9  C   UNL     1      -6.410   9.828  70.556  1.00  0.00    -0.100 C  
HETATM   10  H   UNL     1      -8.222  10.576  70.911  1.00  0.00     0.000 HD 
HETATM   11  O   UNL     1      -7.731  10.200  70.190  1.00  0.00    -0.165 OA 
ENDBRANCH   6   9
ENDBRANCH   5   6
ENDBRANCH   2   5
BRANCH   4  12
HETATM   12  C   UNL     1      -8.775   8.390  67.234  1.00  0.00    -0.130 A  
HETATM   13  C   UNL     1      -9.780   7.742  67.960  1.00  0.00    -0.154 A  
HETATM   14  C   UNL     1      -8.982   9.765  66.890  1.00  0.00    -0.138 A  
HETATM   15  C   UNL     1     -10.041  10.523  67.481  1.00  0.00    -0.225 A  
HETATM   16  I   UNL     1      -7.675  10.651  65.415  1.00  0.00     0.191 I  
HETATM   17  I   UNL     1     -10.039   5.613  67.716  1.00  0.00    -0.260 I  
HETATM   18  C   UNL     1     -10.779   9.890  68.510  1.00  0.00    -0.226 A  
HETATM   19  I   UNL     1     -11.567  11.093  70.120  1.00  0.00    -0.240 I  
HETATM   20  C   UNL     1     -10.732   8.480  68.688  1.00  0.00    -0.041 A  
BRANCH  15  21
HETATM   21  C   UNL     1     -10.261  11.976  67.081  1.00  0.00    -0.202 C  
HETATM   22  O   UNL     1      -9.900  12.850  67.875  1.00  0.00    -0.213 OA 
HETATM   23  N   UNL     1     -10.767  12.350  65.819  1.00  0.00    -0.260 N  
HETATM   24  C   UNL     1     -11.629  11.535  64.968  1.00  0.00     0.038 C  
BRANCH  23  25
HETATM   25  C   UNL     1     -10.633  13.770  65.408  1.00  0.00    -0.322 C  
BRANCH  25  26
HETATM   26  C   UNL     1     -11.839  14.371  64.655  1.00  0.00    -0.451 C  
HETATM   27  H   UNL     1     -13.789  14.707  64.965  1.00  0.00     0.000 HD 
HETATM   28  O   UNL     1     -13.047  14.337  65.428  1.00  0.00    -0.685 OA 
BRANCH  26  29
HETATM   29  C   UNL     1     -11.604  15.848  64.297  1.00  0.00    -0.178 C  
HETATM   30  H   UNL     1     -10.271  17.235  64.718  1.00  0.00     0.000 HD 
HETATM   31  O   UNL     1     -10.416  16.322  64.939  1.00  0.00    -0.624 OA 
ENDBRANCH  26  29
ENDBRANCH  25  26
ENDBRANCH  23  25
ENDBRANCH  15  21
BRANCH  20  32
HETATM   32  N   UNL     1     -11.529   7.778  69.638  1.00  0.00    -0.421 N  
HETATM   33  C   UNL     1     -11.073   7.487  70.916  1.00  0.00    -0.263 C  
HETATM   34  H   UNL     1     -12.467   7.480  69.369  1.00  0.00     0.000 HD 
HETATM   35  H   UNL     1     -14.525   9.025  71.397  1.00  0.00     0.000 HD 
HETATM   36  H   UNL     1     -10.498   6.740  74.651  1.00  0.00     0.000 HD 
HETATM   37  C   UNL     1     -12.150   6.879  71.821  1.00  0.00    -0.385 C  
HETATM   38  O   UNL     1      -9.941   7.749  71.321  1.00  0.00    -0.175 OA 
HETATM   39  O   UNL     1     -10.893   7.158  73.894  1.00  0.00    -0.258 OA 
HETATM   40  O   UNL     1     -13.904   8.360  71.123  1.00  0.00    -0.181 OA 
HETATM   41  C   UNL     1     -13.148   7.947  72.261  1.00  0.00    -0.073 C  
HETATM   42  C   UNL     1     -11.517   6.209  73.036  1.00  0.00    -0.031 C  
ENDBRANCH  20  32
ENDBRANCH   4  12
TORSDOF 9
ENDMDL
MODEL       29
REMARK 921   NORMALIZED FREE ENERGY PREDICTED BY IDOCK:   -4.16 KCAL/MOL
REMARK 922        TOTAL FREE ENERGY PREDICTED BY IDOCK:   -7.65 KCAL/MOL
REMARK 923 INTER-LIGAND FREE ENERGY PREDICTED BY IDOCK:   -7.36 KCAL/MOL
REMARK 924 INTRA-LIGAND FREE ENERGY PREDICTED BY IDOCK:   -0.29 KCAL/MOL
REMARK 927      BINDING AFFINITY PREDICTED BY RF-SCORE:    0.00 PKD
ROOT
HETATM    1  C   UNL     1      -9.949  13.800  66.063  1.00  0.00    -0.306 C  
HETATM    2  N   UNL     1     -10.257  12.396  66.333  1.00  0.00    -0.230 N  
HETATM    3  O   UNL     1      -8.480  12.311  67.812  1.00  0.00    -0.144 OA 
HETATM    4  C   UNL     1      -9.383  11.726  67.223  1.00  0.00    -0.171 C  
ENDROOT
BRANCH   2   5
HETATM    5  C   UNL     1     -11.578  11.927  65.870  1.00  0.00    -0.224 C  
BRANCH   5   6
HETATM    6  C   UNL     1     -12.196  12.559  64.623  1.00  0.00    -0.453 C  
HETATM    7  H   UNL     1     -13.629  12.125  63.333  1.00  0.00     0.000 HD 
HETATM    8  O   UNL     1     -13.244  11.733  64.108  1.00  0.00    -0.527 OA 
BRANCH   6   9
HETATM    9  C   UNL     1     -12.779  13.933  65.028  1.00  0.00    -0.336 C  
HETATM   10  H   UNL     1     -12.945  15.773  64.283  1.00  0.00     0.000 HD 
HETATM   11  O   UNL     1     -12.587  14.929  64.034  1.00  0.00    -0.832 OA 
ENDBRANCH   6   9
ENDBRANCH   5   6
ENDBRANCH   2   5
BRANCH   4  12
HETATM   12  C   UNL     1      -9.540  10.263  67.519  1.00  0.00    -0.180 A  
HETATM   13  C   UNL     1      -8.951   9.336  66.653  1.00  0.00    -0.140 A  
HETATM   14  C   UNL     1     -10.325   9.754  68.604  1.00  0.00    -0.201 A  
HETATM   15  C   UNL     1     -10.299   8.366  68.949  1.00  0.00    -0.231 A  
HETATM   16  I   UNL     1     -11.590  11.138  69.678  1.00  0.00    -0.470 I  
HETATM   17  I   UNL     1      -8.602   9.902  64.598  1.00  0.00    -0.266 I  
HETATM   18  C   UNL     1      -9.365   7.558  68.259  1.00  0.00    -0.141 A  
HETATM   19  I   UNL     1      -8.466   5.887  69.290  1.00  0.00    -0.112 I  
HETATM   20  C   UNL     1      -8.764   7.999  67.047  1.00  0.00    -0.128 A  
BRANCH  15  21
HETATM   21  C   UNL     1     -11.161   7.842  70.089  1.00  0.00    -0.209 C  
HETATM   22  O   UNL     1     -12.245   7.328  69.799  1.00  0.00     0.360 OA 
HETATM   23  N   UNL     1     -10.727   7.838  71.432  1.00  0.00    -0.221 N  
HETATM   24  C   UNL     1      -9.750   8.750  72.017  1.00  0.00    -0.300 C  
BRANCH  23  25
HETATM   25  C   UNL     1     -11.487   7.015  72.405  1.00  0.00    -0.261 C  
BRANCH  25  26
HETATM   26  C   UNL     1     -10.661   5.989  73.210  1.00  0.00    -0.256 C  
HETATM   27  H   UNL     1      -9.889   5.791  75.049  1.00  0.00     0.000 HD 
HETATM   28  O   UNL     1     -10.397   6.422  74.553  1.00  0.00    -0.329 OA 
BRANCH  26  29
HETATM   29  C   UNL     1     -11.395   4.643  73.334  1.00  0.00    -0.305 C  
HETATM   30  H   UNL     1     -10.898   2.752  73.571  1.00  0.00     0.000 HD 
HETATM   31  O   UNL     1     -10.445   3.584  73.494  1.00  0.00    -0.147 OA 
ENDBRANCH  26  29
ENDBRANCH  25  26
ENDBRANCH  23  25
ENDBRANCH  15  21
BRANCH  20  32
HETATM   32  N   UNL     1      -7.898   7.189  66.256  1.00  0.00    -0.103 N  
HETATM   33  C   UNL     1      -8.366   6.115  65.509  1.00  0.00    -0.147 C  
HETATM   34  H   UNL     1      -6.901   7.405  66.238  1.00  0.00     0.000 HD 
HETATM   35  H   UNL     1      -6.190   8.139  63.126  1.00  0.00     0.000 HD 
HETATM   36  H   UNL     1      -9.125   3.302  62.991  1.00  0.00     0.000 HD 
HETATM   37  C   UNL     1      -7.295   5.492  64.608  1.00  0.00    -0.064 C  
HETATM   38  O   UNL     1      -9.535   5.735  65.506  1.00  0.00    -0.003 OA 
HETATM   39  O   UNL     1      -8.856   4.167  63.281  1.00  0.00    -0.105 OA 
HETATM   40  O   UNL     1      -6.366   7.578  63.872  1.00  0.00    -0.051 OA 
HETATM   41  C   UNL     1      -7.011   6.393  63.408  1.00  0.00    -0.047 C  
HETATM   42  C   UNL     1      -7.725   4.105  64.142  1.00  0.00    -0.083 C  
ENDBRANCH  20  32
ENDBRANCH   4  12
TORSDOF 9
ENDMDL
MODEL       30
REMARK 921   NORMALIZED FREE ENERGY PREDICTED BY IDOCK:   -4.15 KCAL/MOL
REMARK 922        TOTAL FREE ENERGY PREDICTED BY IDOCK:   -7.64 KCAL/MOL
REMARK 923 INTER-LIGAND FREE ENERGY PREDICTED BY IDOCK:   -6.89 KCAL/MOL
REMARK 924 INTRA-LIGAND FREE ENERGY PREDICTED BY IDOCK:   -0.75 KCAL/MOL
REMARK 927      BINDING AFFINITY PREDICTED BY RF-SCORE:    0.00 PKD
ROOT
HETATM    1  C   UNL     1      -5.175  10.975  67.740  1.00  0.00    -0.039 C  
HETATM    2  N   UNL     1      -6.497  11.036  68.361  1.00  0.00    -0.056 N  
HETATM    3  O   UNL     1      -7.458  10.536  66.316  1.00  0.00    -0.120 OA 
HETATM    4  C   UNL     1      -7.601  10.839  67.495  1.00  0.00    -0.094 C  
ENDROOT
BRANCH   2   5
HETATM    5  C   UNL     1      -6.517  11.020  69.836  1.00  0.00    -0.144 C  
BRANCH   5   6
HETATM    6  C   UNL     1      -5.713   9.953  70.579  1.00  0.00    -0.062 C  
HETATM    7  H   UNL     1      -4.927   9.714  72.377  1.00  0.00     0.000 HD 
HETATM    8  O   UNL     1      -5.426  10.377  71.915  1.00  0.00    -0.290 OA 
BRANCH   6   9
HETATM    9  C   UNL     1      -6.566   8.664  70.624  1.00  0.00    -0.042 C  
HETATM   10  H   UNL     1      -6.618   6.930  71.603  1.00  0.00     0.000 HD 
HETATM   11  O   UNL     1      -6.094   7.721  71.576  1.00  0.00    -0.035 OA 
ENDBRANCH   6   9
ENDBRANCH   5   6
ENDBRANCH   2   5
BRANCH   4  12
HETATM   12  C   UNL     1      -9.014  10.958  67.991  1.00  0.00    -0.145 A  
HETATM   13  C   UNL     1      -9.720   9.788  68.291  1.00  0.00    -0.145 A  
HETATM   14  C   UNL     1      -9.709  12.204  68.108  1.00  0.00    -0.208 A  
HETATM   15  C   UNL     1     -10.985  12.282  68.751  1.00  0.00    -0.277 A  
HETATM   16  I   UNL     1      -8.797  13.961  67.241  1.00  0.00    -0.216 I  
HETATM   17  I   UNL     1      -9.167   7.951  67.300  1.00  0.00    -0.209 I  
HETATM   18  C   UNL     1     -11.453  11.103  69.377  1.00  0.00    -0.298 A  
HETATM   19  I   UNL     1     -12.660  11.276  71.159  1.00  0.00    -0.264 I  
HETATM   20  C   UNL     1     -10.890   9.833  69.070  1.00  0.00    -0.199 A  
BRANCH  15  21
HETATM   21  C   UNL     1     -11.720  13.612  68.840  1.00  0.00    -0.338 C  
HETATM   22  O   UNL     1     -12.642  13.813  68.045  1.00  0.00     0.101 OA 
HETATM   23  N   UNL     1     -11.449  14.566  69.844  1.00  0.00    -0.267 N  
HETATM   24  C   UNL     1     -10.182  14.727  70.550  1.00  0.00     0.564 C  
BRANCH  23  25
HETATM   25  C   UNL     1     -12.429  15.662  70.045  1.00  0.00    -0.217 C  
BRANCH  25  26
HETATM   26  C   UNL     1     -13.238  15.610  71.359  1.00  0.00    -0.465 C  
HETATM   27  H   UNL     1     -14.256  14.270  72.446  1.00  0.00     0.000 HD 
HETATM   28  O   UNL     1     -13.758  14.302  71.637  1.00  0.00    -0.362 OA 
BRANCH  26  29
HETATM   29  C   UNL     1     -12.373  15.991  72.573  1.00  0.00    -0.496 C  
HETATM   30  H   UNL     1     -12.339  15.581  74.498  1.00  0.00     0.000 HD 
HETATM   31  O   UNL     1     -12.873  15.346  73.748  1.00  0.00    -0.517 OA 
ENDBRANCH  26  29
ENDBRANCH  25  26
ENDBRANCH  23  25
ENDBRANCH  15  21
BRANCH  20  32
HETATM   32  N   UNL     1     -11.388   8.603  69.591  1.00  0.00    -0.434 N  
HETATM   33  C   UNL     1     -10.918   8.058  70.778  1.00  0.00    -0.248 C  
HETATM   34  H   UNL     1     -12.114   8.107  69.073  1.00  0.00     0.000 HD 
HETATM   35  H   UNL     1     -14.717   7.981  71.058  1.00  0.00     0.000 HD 
HETATM   36  H   UNL     1     -10.283   6.284  74.137  1.00  0.00     0.000 HD 
HETATM   37  C   UNL     1     -11.707   6.826  71.233  1.00  0.00    -0.384 C  
HETATM   38  O   UNL     1     -10.008   8.544  71.448  1.00  0.00    -0.195 OA 
HETATM   39  O   UNL     1     -10.773   6.774  73.487  1.00  0.00    -0.309 OA 
HETATM   40  O   UNL     1     -13.869   7.727  70.713  1.00  0.00     0.098 OA 
HETATM   41  C   UNL     1     -13.070   7.234  71.787  1.00  0.00    -0.317 C  
HETATM   42  C   UNL     1     -10.921   6.039  72.277  1.00  0.00    -0.265 C  
ENDBRANCH  20  32
ENDBRANCH   4  12
TORSDOF 9
ENDMDL
MODEL       31
REMARK 921   NORMALIZED FREE ENERGY PREDICTED BY IDOCK:   -4.07 KCAL/MOL
REMARK 922        TOTAL FREE ENERGY PREDICTED BY IDOCK:   -7.52 KCAL/MOL
REMARK 923 INTER-LIGAND FREE ENERGY PREDICTED BY IDOCK:   -6.53 KCAL/MOL
REMARK 924 INTRA-LIGAND FREE ENERGY PREDICTED BY IDOCK:   -0.99 KCAL/MOL
REMARK 927      BINDING AFFINITY PREDICTED BY RF-SCORE:    0.00 PKD
ROOT
HETATM    1  C   UNL     1     -10.362  13.565  65.321  1.00  0.00    -0.331 C  
HETATM    2  N   UNL     1      -9.763  12.473  66.086  1.00  0.00    -0.257 N  
HETATM    3  O   UNL     1     -10.972  10.955  64.825  1.00  0.00    -0.178 OA 
HETATM    4  C   UNL     1     -10.207  11.168  65.759  1.00  0.00    -0.257 C  
ENDROOT
BRANCH   2   5
HETATM    5  C   UNL     1      -8.586  12.827  66.901  1.00  0.00    -0.137 C  
BRANCH   5   6
HETATM    6  C   UNL     1      -8.438  14.262  67.408  1.00  0.00    -0.203 C  
HETATM    7  H   UNL     1      -9.152  15.363  68.885  1.00  0.00     0.000 HD 
HETATM    8  O   UNL     1      -9.244  14.471  68.571  1.00  0.00    -0.187 OA 
BRANCH   6   9
HETATM    9  C   UNL     1      -6.950  14.484  67.769  1.00  0.00    -0.179 C  
HETATM   10  H   UNL     1      -5.472  15.748  67.338  1.00  0.00     0.000 HD 
HETATM   11  O   UNL     1      -6.386  15.612  67.116  1.00  0.00    -0.308 OA 
ENDBRANCH   6   9
ENDBRANCH   5   6
ENDBRANCH   2   5
BRANCH   4  12
HETATM   12  C   UNL     1      -9.732   9.966  66.525  1.00  0.00    -0.260 A  
HETATM   13  C   UNL     1     -10.360   9.651  67.734  1.00  0.00    -0.236 A  
HETATM   14  C   UNL     1      -8.618   9.161  66.123  1.00  0.00    -0.136 A  
HETATM   15  C   UNL     1      -8.318   7.930  66.786  1.00  0.00    -0.120 A  
HETATM   16  I   UNL     1      -7.371   9.884  64.513  1.00  0.00    -0.108 I  
HETATM   17  I   UNL     1     -11.322  11.226  68.855  1.00  0.00    -0.453 I  
HETATM   18  C   UNL     1      -9.247   7.489  67.757  1.00  0.00    -0.135 A  
HETATM   19  I   UNL     1      -9.550   5.368  68.026  1.00  0.00    -0.195 I  
HETATM   20  C   UNL     1     -10.208   8.378  68.314  1.00  0.00    -0.205 A  
BRANCH  15  21
HETATM   21  C   UNL     1      -7.113   7.102  66.361  1.00  0.00    -0.077 C  
HETATM   22  O   UNL     1      -6.049   7.290  66.957  1.00  0.00    -0.041 OA 
HETATM   23  N   UNL     1      -7.195   6.081  65.391  1.00  0.00    -0.072 N  
HETATM   24  C   UNL     1      -8.170   6.008  64.308  1.00  0.00    -0.069 C  
BRANCH  23  25
HETATM   25  C   UNL     1      -6.064   5.125  65.290  1.00  0.00    -0.030 C  
BRANCH  25  26
HETATM   26  C   UNL     1      -6.217   3.813  66.089  1.00  0.00    -0.032 C  
HETATM   27  H   UNL     1      -6.050   1.840  65.785  1.00  0.00     0.000 HD 
HETATM   28  O   UNL     1      -5.956   2.648  65.294  1.00  0.00    -0.018 OA 
BRANCH  26  29
HETATM   29  C   UNL     1      -5.235   3.751  67.271  1.00  0.00    -0.012 C  
HETATM   30  H   UNL     1      -5.263   4.200  69.188  1.00  0.00     0.000 HD 
HETATM   31  O   UNL     1      -5.870   4.238  68.458  1.00  0.00    -0.023 OA 
ENDBRANCH  26  29
ENDBRANCH  25  26
ENDBRANCH  23  25
ENDBRANCH  15  21
BRANCH  20  32
HETATM   32  N   UNL     1     -11.100   8.018  69.366  1.00  0.00    -0.439 N  
HETATM   33  C   UNL     1     -10.653   7.738  70.651  1.00  0.00    -0.222 C  
HETATM   34  H   UNL     1     -12.099   7.964  69.168  1.00  0.00     0.000 HD 
HETATM   35  H   UNL     1     -13.525  10.203  71.088  1.00  0.00     0.000 HD 
HETATM   36  H   UNL     1     -10.051   7.229  74.421  1.00  0.00     0.000 HD 
HETATM   37  C   UNL     1     -11.791   7.540  71.658  1.00  0.00    -0.322 C  
HETATM   38  O   UNL     1      -9.469   7.718  70.980  1.00  0.00    -0.155 OA 
HETATM   39  O   UNL     1     -10.369   7.663  73.637  1.00  0.00    -0.324 OA 
HETATM   40  O   UNL     1     -13.125   9.370  70.866  1.00  0.00    -0.199 OA 
HETATM   41  C   UNL     1     -12.433   8.878  72.014  1.00  0.00    -0.392 C  
HETATM   42  C   UNL     1     -11.281   6.843  72.915  1.00  0.00    -0.217 C  
ENDBRANCH  20  32
ENDBRANCH   4  12
TORSDOF 9
ENDMDL
MODEL       32
REMARK 921   NORMALIZED FREE ENERGY PREDICTED BY IDOCK:   -4.01 KCAL/MOL
REMARK 922        TOTAL FREE ENERGY PREDICTED BY IDOCK:   -7.43 KCAL/MOL
REMARK 923 INTER-LIGAND FREE ENERGY PREDICTED BY IDOCK:   -6.76 KCAL/MOL
REMARK 924 INTRA-LIGAND FREE ENERGY PREDICTED BY IDOCK:   -0.67 KCAL/MOL
REMARK 927      BINDING AFFINITY PREDICTED BY RF-SCORE:    0.00 PKD
ROOT
HETATM    1  C   UNL     1     -10.134   6.412  74.560  1.00  0.00    -0.339 C  
HETATM    2  N   UNL     1      -9.715   6.980  73.279  1.00  0.00    -0.179 N  
HETATM    3  O   UNL     1     -11.493   5.917  72.249  1.00  0.00    -0.293 OA 
HETATM    4  C   UNL     1     -10.480   6.599  72.150  1.00  0.00    -0.204 C  
ENDROOT
BRANCH   2   5
HETATM    5  C   UNL     1      -8.733   8.078  73.353  1.00  0.00    -0.259 C  
BRANCH   5   6
HETATM    6  C   UNL     1      -7.418   7.953  72.584  1.00  0.00    -0.105 C  
HETATM    7  H   UNL     1      -5.681   8.893  72.512  1.00  0.00     0.000 HD 
HETATM    8  O   UNL     1      -6.498   8.971  72.989  1.00  0.00    -0.311 OA 
BRANCH   6   9
HETATM    9  C   UNL     1      -6.815   6.564  72.901  1.00  0.00    -0.073 C  
HETATM   10  H   UNL     1      -5.121   5.559  72.607  1.00  0.00     0.000 HD 
HETATM   11  O   UNL     1      -5.490   6.412  72.413  1.00  0.00    -0.034 OA 
ENDBRANCH   6   9
ENDBRANCH   5   6
ENDBRANCH   2   5
BRANCH   4  12
HETATM   12  C   UNL     1     -10.104   7.046  70.766  1.00  0.00    -0.205 A  
HETATM   13  C   UNL     1     -10.457   8.338  70.360  1.00  0.00    -0.215 A  
HETATM   14  C   UNL     1      -9.467   6.197  69.805  1.00  0.00    -0.150 A  
HETATM   15  C   UNL     1      -8.971   6.719  68.569  1.00  0.00    -0.121 A  
HETATM   16  I   UNL     1      -9.315   4.089  70.256  1.00  0.00    -0.265 I  
HETATM   17  I   UNL     1     -12.153   9.299  71.288  1.00  0.00    -0.426 I  
HETATM   18  C   UNL     1      -9.022   8.124  68.408  1.00  0.00    -0.136 A  
HETATM   19  I   UNL     1      -7.478   9.100  67.256  1.00  0.00    -0.086 I  
HETATM   20  C   UNL     1      -9.848   8.931  69.238  1.00  0.00    -0.176 A  
BRANCH  15  21
HETATM   21  C   UNL     1      -8.320   5.795  67.550  1.00  0.00    -0.104 C  
HETATM   22  O   UNL     1      -7.090   5.705  67.560  1.00  0.00    -0.070 OA 
HETATM   23  N   UNL     1      -9.069   4.981  66.674  1.00  0.00    -0.117 N  
HETATM   24  C   UNL     1     -10.425   5.250  66.206  1.00  0.00    -0.255 C  
BRANCH  23  25
HETATM   25  C   UNL     1      -8.360   3.888  65.963  1.00  0.00    -0.109 C  
BRANCH  25  26
HETATM   26  C   UNL     1      -8.195   4.071  64.439  1.00  0.00    -0.094 C  
HETATM   27  H   UNL     1      -6.729   4.061  63.074  1.00  0.00     0.000 HD 
HETATM   28  O   UNL     1      -6.831   3.949  64.012  1.00  0.00    -0.043 OA 
BRANCH  26  29
HETATM   29  C   UNL     1      -8.984   3.010  63.652  1.00  0.00    -0.092 C  
HETATM   30  H   UNL     1      -9.888   1.306  64.047  1.00  0.00     0.000 HD 
HETATM   31  O   UNL     1      -9.401   1.962  64.533  1.00  0.00    -0.130 OA 
ENDBRANCH  26  29
ENDBRANCH  25  26
ENDBRANCH  23  25
ENDBRANCH  15  21
BRANCH  20  32
HETATM   32  N   UNL     1     -10.018  10.334  69.057  1.00  0.00    -0.202 N  
HETATM   33  C   UNL     1     -10.624  10.866  67.925  1.00  0.00    -0.207 C  
HETATM   34  H   UNL     1      -9.684  10.969  69.782  1.00  0.00     0.000 HD 
HETATM   35  H   UNL     1     -12.328  12.561  70.881  1.00  0.00     0.000 HD 
HETATM   36  H   UNL     1     -12.521  12.862  65.233  1.00  0.00     0.000 HD 
HETATM   37  C   UNL     1     -10.852  12.379  68.015  1.00  0.00    -0.251 C  
HETATM   38  O   UNL     1     -11.008  10.196  66.969  1.00  0.00    -0.209 OA 
HETATM   39  O   UNL     1     -12.354  12.497  66.095  1.00  0.00    -0.596 OA 
HETATM   40  O   UNL     1     -11.608  12.366  70.292  1.00  0.00    -0.180 OA 
HETATM   41  C   UNL     1     -12.008  12.693  68.962  1.00  0.00    -0.236 C  
HETATM   42  C   UNL     1     -11.122  12.965  66.633  1.00  0.00    -0.284 C  
ENDBRANCH  20  32
ENDBRANCH   4  12
TORSDOF 9
ENDMDL
MODEL       33
REMARK 921   NORMALIZED FREE ENERGY PREDICTED BY IDOCK:   -3.97 KCAL/MOL
REMARK 922        TOTAL FREE ENERGY PREDICTED BY IDOCK:   -7.37 KCAL/MOL
REMARK 923 INTER-LIGAND FREE ENERGY PREDICTED BY IDOCK:   -6.66 KCAL/MOL
REMARK 924 INTRA-LIGAND FREE ENERGY PREDICTED BY IDOCK:   -0.71 KCAL/MOL
REMARK 927      BINDING AFFINITY PREDICTED BY RF-SCORE:    0.00 PKD
ROOT
HETATM    1  C   UNL     1     -12.879  13.617  65.904  1.00  0.00    -0.269 C  
HETATM    2  N   UNL     1     -11.690  13.808  66.732  1.00  0.00    -0.369 N  
HETATM    3  O   UNL     1     -10.370  13.651  64.837  1.00  0.00    -0.377 OA 
HETATM    4  C   UNL     1     -10.445  13.752  66.057  1.00  0.00    -0.297 C  
ENDROOT
BRANCH   2   5
HETATM    5  C   UNL     1     -11.931  14.301  68.101  1.00  0.00    -0.308 C  
BRANCH   5   6
HETATM    6  C   UNL     1     -12.139  13.290  69.230  1.00  0.00    -0.242 C  
HETATM    7  H   UNL     1     -11.191  11.722  69.969  1.00  0.00     0.000 HD 
HETATM    8  O   UNL     1     -11.062  12.350  69.268  1.00  0.00    -0.221 OA 
BRANCH   6   9
HETATM    9  C   UNL     1     -12.184  14.073  70.563  1.00  0.00    -0.365 C  
HETATM   10  H   UNL     1     -13.507  14.584  71.961  1.00  0.00     0.000 HD 
HETATM   11  O   UNL     1     -13.480  14.104  71.142  1.00  0.00    -0.318 OA 
ENDBRANCH   6   9
ENDBRANCH   5   6
ENDBRANCH   2   5
BRANCH   4  12
HETATM   12  C   UNL     1      -9.146  13.849  66.804  1.00  0.00    -0.238 A  
HETATM   13  C   UNL     1      -8.690  15.113  67.193  1.00  0.00    -0.216 A  
HETATM   14  C   UNL     1      -8.306  12.724  67.081  1.00  0.00    -0.164 A  
HETATM   15  C   UNL     1      -7.173  12.841  67.946  1.00  0.00    -0.120 A  
HETATM   16  I   UNL     1      -8.770  10.848  66.113  1.00  0.00    -0.186 I  
HETATM   17  I   UNL     1      -9.320  16.844  66.066  1.00  0.00     0.089 I  
HETATM   18  C   UNL     1      -7.009  14.078  68.613  1.00  0.00    -0.106 A  
HETATM   19  I   UNL     1      -6.137  14.093  70.588  1.00  0.00     0.060 I  
HETATM   20  C   UNL     1      -7.689  15.248  68.173  1.00  0.00    -0.117 A  
BRANCH  15  21
HETATM   21  C   UNL     1      -6.276  11.639  68.205  1.00  0.00    -0.049 C  
HETATM   22  O   UNL     1      -5.215  11.568  67.579  1.00  0.00    -0.045 OA 
HETATM   23  N   UNL     1      -6.568  10.670  69.189  1.00  0.00    -0.055 N  
HETATM   24  C   UNL     1      -7.897  10.330  69.686  1.00  0.00    -0.160 C  
BRANCH  23  25
HETATM   25  C   UNL     1      -5.485   9.737  69.589  1.00  0.00    -0.033 C  
BRANCH  25  26
HETATM   26  C   UNL     1      -5.292   9.539  71.108  1.00  0.00    -0.055 C  
HETATM   27  H   UNL     1      -5.451  10.609  72.794  1.00  0.00     0.000 HD 
HETATM   28  O   UNL     1      -5.570  10.730  71.859  1.00  0.00    -0.320 OA 
BRANCH  26  29
HETATM   29  C   UNL     1      -6.234   8.457  71.663  1.00  0.00    -0.052 C  
HETATM   30  H   UNL     1      -7.357   8.211  73.262  1.00  0.00     0.000 HD 
HETATM   31  O   UNL     1      -6.775   8.879  72.919  1.00  0.00    -0.309 OA 
ENDBRANCH  26  29
ENDBRANCH  25  26
ENDBRANCH  23  25
ENDBRANCH  15  21
BRANCH  20  32
HETATM   32  N   UNL     1      -7.485  16.539  68.739  1.00  0.00    -0.203 N  
HETATM   33  C   UNL     1      -6.531  17.421  68.247  1.00  0.00    -0.172 C  
HETATM   34  H   UNL     1      -8.058  16.826  69.533  1.00  0.00     0.000 HD 
HETATM   35  H   UNL     1      -9.740  19.453  68.533  1.00  0.00     0.000 HD 
HETATM   36  H   UNL     1      -4.345  20.376  67.098  1.00  0.00     0.000 HD 
HETATM   37  C   UNL     1      -6.597  18.808  68.894  1.00  0.00    -0.286 C  
HETATM   38  O   UNL     1      -5.751  17.154  67.335  1.00  0.00    -0.122 OA 
HETATM   39  O   UNL     1      -5.148  19.893  67.258  1.00  0.00    -0.161 OA 
HETATM   40  O   UNL     1      -8.991  18.968  68.859  1.00  0.00    -0.334 OA 
HETATM   41  C   UNL     1      -7.801  19.588  68.371  1.00  0.00    -0.339 C  
HETATM   42  C   UNL     1      -5.309  19.583  68.638  1.00  0.00    -0.196 C  
ENDBRANCH  20  32
ENDBRANCH   4  12
TORSDOF 9
ENDMDL
MODEL       34
REMARK 921   NORMALIZED FREE ENERGY PREDICTED BY IDOCK:   -3.97 KCAL/MOL
REMARK 922        TOTAL FREE ENERGY PREDICTED BY IDOCK:   -7.36 KCAL/MOL
REMARK 923 INTER-LIGAND FREE ENERGY PREDICTED BY IDOCK:   -5.75 KCAL/MOL
REMARK 924 INTRA-LIGAND FREE ENERGY PREDICTED BY IDOCK:   -1.61 KCAL/MOL
REMARK 927      BINDING AFFINITY PREDICTED BY RF-SCORE:    0.00 PKD
ROOT
HETATM    1  C   UNL     1      -6.162   9.483  63.343  1.00  0.00    -0.100 C  
HETATM    2  N   UNL     1      -6.782   9.359  64.661  1.00  0.00    -0.085 N  
HETATM    3  O   UNL     1      -8.776   8.771  63.645  1.00  0.00    -0.110 OA 
HETATM    4  C   UNL     1      -8.161   9.033  64.672  1.00  0.00    -0.144 C  
ENDROOT
BRANCH   2   5
HETATM    5  C   UNL     1      -5.855   9.317  65.808  1.00  0.00    -0.054 C  
BRANCH   5   6
HETATM    6  C   UNL     1      -5.548  10.610  66.564  1.00  0.00    -0.073 C  
HETATM    7  H   UNL     1      -6.322  12.421  66.719  1.00  0.00     0.000 HD 
HETATM    8  O   UNL     1      -6.512  11.618  66.249  1.00  0.00     0.010 OA 
BRANCH   6   9
HETATM    9  C   UNL     1      -5.608  10.298  68.078  1.00  0.00    -0.037 C  
HETATM   10  H   UNL     1      -6.902  10.421  69.587  1.00  0.00     0.000 HD 
HETATM   11  O   UNL     1      -6.865  10.613  68.657  1.00  0.00    -0.056 OA 
ENDBRANCH   6   9
ENDBRANCH   5   6
ENDBRANCH   2   5
BRANCH   4  12
HETATM   12  C   UNL     1      -8.935   8.957  65.957  1.00  0.00    -0.235 A  
HETATM   13  C   UNL     1      -8.903   7.766  66.690  1.00  0.00    -0.148 A  
HETATM   14  C   UNL     1      -9.769  10.015  66.442  1.00  0.00    -0.210 A  
HETATM   15  C   UNL     1     -10.342   9.964  67.752  1.00  0.00    -0.268 A  
HETATM   16  I   UNL     1     -10.179  11.674  65.119  1.00  0.00    -0.359 I  
HETATM   17  I   UNL     1      -8.513   5.911  65.654  1.00  0.00    -0.120 I  
HETATM   18  C   UNL     1      -9.935   8.892  68.582  1.00  0.00    -0.177 A  
HETATM   19  I   UNL     1      -9.802   9.213  70.713  1.00  0.00    -0.332 I  
HETATM   20  C   UNL     1      -9.306   7.738  68.037  1.00  0.00    -0.141 A  
BRANCH  15  21
HETATM   21  C   UNL     1     -11.248  11.086  68.239  1.00  0.00    -0.277 C  
HETATM   22  O   UNL     1     -12.465  10.881  68.242  1.00  0.00    -0.165 OA 
HETATM   23  N   UNL     1     -10.746  12.295  68.765  1.00  0.00    -0.229 N  
HETATM   24  C   UNL     1      -9.452  12.893  68.449  1.00  0.00    -0.162 C  
BRANCH  23  25
HETATM   25  C   UNL     1     -11.684  13.173  69.508  1.00  0.00    -0.319 C  
BRANCH  25  26
HETATM   26  C   UNL     1     -11.354  14.681  69.489  1.00  0.00    -0.280 C  
HETATM   27  H   UNL     1     -11.702  16.281  68.334  1.00  0.00     0.000 HD 
HETATM   28  O   UNL     1     -11.904  15.353  68.346  1.00  0.00    -0.347 OA 
BRANCH  26  29
HETATM   29  C   UNL     1     -11.926  15.402  70.722  1.00  0.00    -0.359 C  
HETATM   30  H   UNL     1     -12.503  14.905  72.538  1.00  0.00     0.000 HD 
HETATM   31  O   UNL     1     -12.150  14.460  71.776  1.00  0.00    -0.321 OA 
ENDBRANCH  26  29
ENDBRANCH  25  26
ENDBRANCH  23  25
ENDBRANCH  15  21
BRANCH  20  32
HETATM   32  N   UNL     1      -8.968   6.587  68.807  1.00  0.00    -0.125 N  
HETATM   33  C   UNL     1      -7.707   6.410  69.360  1.00  0.00    -0.101 C  
HETATM   34  H   UNL     1      -9.677   5.869  68.957  1.00  0.00     0.000 HD 
HETATM   35  H   UNL     1     -10.162   5.734  72.194  1.00  0.00     0.000 HD 
HETATM   36  H   UNL     1      -4.559   5.567  71.413  1.00  0.00     0.000 HD 
HETATM   37  C   UNL     1      -7.615   5.191  70.284  1.00  0.00    -0.071 C  
HETATM   38  O   UNL     1      -6.766   7.184  69.193  1.00  0.00    -0.046 OA 
HETATM   39  O   UNL     1      -5.467   5.807  71.264  1.00  0.00    -0.015 OA 
HETATM   40  O   UNL     1      -9.724   5.562  71.369  1.00  0.00    -0.151 OA 
HETATM   41  C   UNL     1      -8.320   5.468  71.610  1.00  0.00    -0.123 C  
HETATM   42  C   UNL     1      -6.159   4.807  70.524  1.00  0.00    -0.018 C  
ENDBRANCH  20  32
ENDBRANCH   4  12
TORSDOF 9
ENDMDL
MODEL       35
REMARK 921   NORMALIZED FREE ENERGY PREDICTED BY IDOCK:   -3.90 KCAL/MOL
REMARK 922        TOTAL FREE ENERGY PREDICTED BY IDOCK:   -7.25 KCAL/MOL
REMARK 923 INTER-LIGAND FREE ENERGY PREDICTED BY IDOCK:   -6.09 KCAL/MOL
REMARK 924 INTRA-LIGAND FREE ENERGY PREDICTED BY IDOCK:   -1.16 KCAL/MOL
REMARK 927      BINDING AFFINITY PREDICTED BY RF-SCORE:    0.00 PKD
ROOT
HETATM    1  C   UNL     1      -6.017  11.980  70.314  1.00  0.00    -0.143 C  
HETATM    2  N   UNL     1      -6.612  11.725  69.003  1.00  0.00    -0.086 N  
HETATM    3  O   UNL     1      -7.769   9.933  69.900  1.00  0.00    -0.137 OA 
HETATM    4  C   UNL     1      -7.466  10.598  68.916  1.00  0.00    -0.108 C  
ENDROOT
BRANCH   2   5
HETATM    5  C   UNL     1      -6.475  12.809  68.012  1.00  0.00    -0.099 C  
BRANCH   5   6
HETATM    6  C   UNL     1      -6.691  14.255  68.458  1.00  0.00    -0.099 C  
HETATM    7  H   UNL     1      -6.436  16.063  67.701  1.00  0.00     0.000 HD 
HETATM    8  O   UNL     1      -6.302  15.164  67.424  1.00  0.00    -0.297 OA 
BRANCH   6   9
HETATM    9  C   UNL     1      -8.197  14.437  68.760  1.00  0.00    -0.126 C  
HETATM   10  H   UNL     1      -9.450  15.872  69.345  1.00  0.00     0.000 HD 
HETATM   11  O   UNL     1      -8.525  15.760  69.160  1.00  0.00    -0.220 OA 
ENDBRANCH   6   9
ENDBRANCH   5   6
ENDBRANCH   2   5
BRANCH   4  12
HETATM   12  C   UNL     1      -8.074  10.178  67.608  1.00  0.00    -0.109 A  
HETATM   13  C   UNL     1      -9.326  10.693  67.256  1.00  0.00    -0.150 A  
HETATM   14  C   UNL     1      -7.477   9.220  66.729  1.00  0.00    -0.087 A  
HETATM   15  C   UNL     1      -8.004   8.988  65.419  1.00  0.00    -0.111 A  
HETATM   16  I   UNL     1      -5.781   8.094  67.454  1.00  0.00    -0.040 I  
HETATM   17  I   UNL     1     -10.673  11.329  68.820  1.00  0.00    -0.285 I  
HETATM   18  C   UNL     1      -9.049   9.843  64.995  1.00  0.00    -0.218 A  
HETATM   19  I   UNL     1      -9.195  10.355  62.902  1.00  0.00    -0.366 I  
HETATM   20  C   UNL     1      -9.786  10.623  65.928  1.00  0.00    -0.223 A  
BRANCH  15  21
HETATM   21  C   UNL     1      -7.370   7.945  64.509  1.00  0.00    -0.086 C  
HETATM   22  O   UNL     1      -6.544   8.333  63.679  1.00  0.00    -0.075 OA 
HETATM   23  N   UNL     1      -7.622   6.563  64.646  1.00  0.00    -0.093 N  
HETATM   24  C   UNL     1      -8.826   5.965  65.211  1.00  0.00    -0.019 C  
BRANCH  23  25
HETATM   25  C   UNL     1      -6.716   5.619  63.944  1.00  0.00    -0.037 C  
BRANCH  25  26
HETATM   26  C   UNL     1      -6.829   4.138  64.365  1.00  0.00    -0.045 C  
HETATM   27  H   UNL     1      -6.777   2.325  63.515  1.00  0.00     0.000 HD 
HETATM   28  O   UNL     1      -6.708   3.237  63.256  1.00  0.00    -0.029 OA 
BRANCH  26  29
HETATM   29  C   UNL     1      -5.719   3.745  65.355  1.00  0.00    -0.021 C  
HETATM   30  H   UNL     1      -5.369   3.960  67.282  1.00  0.00     0.000 HD 
HETATM   31  O   UNL     1      -6.054   4.203  66.670  1.00  0.00    -0.029 OA 
ENDBRANCH  26  29
ENDBRANCH  25  26
ENDBRANCH  23  25
ENDBRANCH  15  21
BRANCH  20  32
HETATM   32  N   UNL     1     -10.912  11.421  65.573  1.00  0.00    -0.229 N  
HETATM   33  C   UNL     1     -10.835  12.804  65.463  1.00  0.00    -0.274 C  
HETATM   34  H   UNL     1     -11.805  10.961  65.394  1.00  0.00     0.000 HD 
HETATM   35  H   UNL     1     -12.556  11.626  62.275  1.00  0.00     0.000 HD 
HETATM   36  H   UNL     1     -11.128  16.558  64.655  1.00  0.00     0.000 HD 
HETATM   37  C   UNL     1     -12.114  13.440  64.910  1.00  0.00    -0.430 C  
HETATM   38  O   UNL     1      -9.825  13.460  65.713  1.00  0.00    -0.266 OA 
HETATM   39  O   UNL     1     -11.115  15.624  64.478  1.00  0.00    -0.399 OA 
HETATM   40  O   UNL     1     -12.479  11.788  63.208  1.00  0.00    -0.543 OA 
HETATM   41  C   UNL     1     -12.238  13.180  63.411  1.00  0.00    -0.444 C  
HETATM   42  C   UNL     1     -12.136  14.938  65.194  1.00  0.00    -0.163 C  
ENDBRANCH  20  32
ENDBRANCH   4  12
TORSDOF 9
ENDMDL
MODEL       36
REMARK 921   NORMALIZED FREE ENERGY PREDICTED BY IDOCK:   -3.90 KCAL/MOL
REMARK 922        TOTAL FREE ENERGY PREDICTED BY IDOCK:   -7.25 KCAL/MOL
REMARK 923 INTER-LIGAND FREE ENERGY PREDICTED BY IDOCK:   -5.81 KCAL/MOL
REMARK 924 INTRA-LIGAND FREE ENERGY PREDICTED BY IDOCK:   -1.43 KCAL/MOL
REMARK 927      BINDING AFFINITY PREDICTED BY RF-SCORE:    0.00 PKD
ROOT
HETATM    1  C   UNL     1      -9.083   4.173  72.890  1.00  0.00    -0.111 C  
HETATM    2  N   UNL     1      -9.088   4.910  71.627  1.00  0.00    -0.137 N  
HETATM    3  O   UNL     1      -6.774   4.862  71.614  1.00  0.00    -0.039 OA 
HETATM    4  C   UNL     1      -7.818   5.248  71.099  1.00  0.00    -0.103 C  
ENDROOT
BRANCH   2   5
HETATM    5  C   UNL     1     -10.383   4.972  70.923  1.00  0.00    -0.190 C  
BRANCH   5   6
HETATM    6  C   UNL     1     -11.040   6.333  70.694  1.00  0.00    -0.327 C  
HETATM    7  H   UNL     1     -12.027   7.244  69.244  1.00  0.00     0.000 HD 
HETATM    8  O   UNL     1     -11.619   6.398  69.387  1.00  0.00    -0.382 OA 
BRANCH   6   9
HETATM    9  C   UNL     1     -12.151   6.507  71.755  1.00  0.00    -0.342 C  
HETATM   10  H   UNL     1     -13.719   7.683  72.109  1.00  0.00     0.000 HD 
HETATM   11  O   UNL     1     -13.037   7.576  71.457  1.00  0.00    -0.349 OA 
ENDBRANCH   6   9
ENDBRANCH   5   6
ENDBRANCH   2   5
BRANCH   4  12
HETATM   12  C   UNL     1      -7.685   6.075  69.852  1.00  0.00    -0.092 A  
HETATM   13  C   UNL     1      -7.477   5.421  68.633  1.00  0.00    -0.075 A  
HETATM   14  C   UNL     1      -7.688   7.507  69.848  1.00  0.00    -0.098 A  
HETATM   15  C   UNL     1      -7.738   8.243  68.622  1.00  0.00    -0.114 A  
HETATM   16  I   UNL     1      -7.566   8.529  71.748  1.00  0.00    -0.049 I  
HETATM   17  I   UNL     1      -6.542   3.474  68.638  1.00  0.00    -0.042 I  
HETATM   18  C   UNL     1      -7.921   7.491  67.437  1.00  0.00    -0.116 A  
HETATM   19  I   UNL     1      -9.033   8.365  65.806  1.00  0.00    -0.070 I  
HETATM   20  C   UNL     1      -7.688   6.088  67.413  1.00  0.00    -0.097 A  
BRANCH  15  21
HETATM   21  C   UNL     1      -7.713   9.765  68.638  1.00  0.00    -0.080 C  
HETATM   22  O   UNL     1      -6.625  10.322  68.467  1.00  0.00    -0.052 OA 
HETATM   23  N   UNL     1      -8.884  10.544  68.745  1.00  0.00    -0.150 N  
HETATM   24  C   UNL     1     -10.133  10.128  69.376  1.00  0.00    -0.231 C  
BRANCH  23  25
HETATM   25  C   UNL     1      -8.790  11.989  68.420  1.00  0.00    -0.149 C  
BRANCH  25  26
HETATM   26  C   UNL     1     -10.133  12.734  68.264  1.00  0.00    -0.237 C  
HETATM   27  H   UNL     1     -10.875  14.572  68.554  1.00  0.00     0.000 HD 
HETATM   28  O   UNL     1     -10.048  14.114  68.650  1.00  0.00    -0.232 OA 
BRANCH  26  29
HETATM   29  C   UNL     1     -10.617  12.729  66.804  1.00  0.00    -0.252 C  
HETATM   30  H   UNL     1     -12.136  11.983  65.796  1.00  0.00     0.000 HD 
HETATM   31  O   UNL     1     -11.836  11.986  66.698  1.00  0.00    -0.583 OA 
ENDBRANCH  26  29
ENDBRANCH  25  26
ENDBRANCH  23  25
ENDBRANCH  15  21
BRANCH  20  32
HETATM   32  N   UNL     1      -7.756   5.298  66.228  1.00  0.00    -0.088 N  
HETATM   33  C   UNL     1      -8.936   4.703  65.802  1.00  0.00    -0.134 C  
HETATM   34  H   UNL     1      -6.909   5.165  65.676  1.00  0.00     0.000 HD 
HETATM   35  H   UNL     1      -7.527   6.477  62.739  1.00  0.00     0.000 HD 
HETATM   36  H   UNL     1     -11.940   3.150  63.958  1.00  0.00     0.000 HD 
HETATM   37  C   UNL     1      -8.819   4.044  64.423  1.00  0.00    -0.129 C  
HETATM   38  O   UNL     1      -9.997   4.752  66.422  1.00  0.00    -0.192 OA 
HETATM   39  O   UNL     1     -11.220   3.754  64.103  1.00  0.00    -0.317 OA 
HETATM   40  O   UNL     1      -7.550   5.818  63.423  1.00  0.00    -0.066 OA 
HETATM   41  C   UNL     1      -8.781   5.101  63.323  1.00  0.00    -0.039 C  
HETATM   42  C   UNL     1      -9.973   3.074  64.191  1.00  0.00    -0.149 C  
ENDBRANCH  20  32
ENDBRANCH   4  12
TORSDOF 9
ENDMDL
MODEL       37
REMARK 921   NORMALIZED FREE ENERGY PREDICTED BY IDOCK:   -3.85 KCAL/MOL
REMARK 922        TOTAL FREE ENERGY PREDICTED BY IDOCK:   -7.18 KCAL/MOL
REMARK 923 INTER-LIGAND FREE ENERGY PREDICTED BY IDOCK:   -7.49 KCAL/MOL
REMARK 924 INTRA-LIGAND FREE ENERGY PREDICTED BY IDOCK:    0.31 KCAL/MOL
REMARK 927      BINDING AFFINITY PREDICTED BY RF-SCORE:    0.00 PKD
ROOT
HETATM    1  C   UNL     1      -9.754  10.666  63.294  1.00  0.00    -0.340 C  
HETATM    2  N   UNL     1     -10.221  10.734  64.677  1.00  0.00    -0.340 N  
HETATM    3  O   UNL     1      -8.278   9.682  65.364  1.00  0.00    -0.120 OA 
HETATM    4  C   UNL     1      -9.379  10.139  65.649  1.00  0.00    -0.199 C  
ENDROOT
BRANCH   2   5
HETATM    5  C   UNL     1     -11.359  11.639  64.929  1.00  0.00    -0.184 C  
BRANCH   5   6
HETATM    6  C   UNL     1     -11.936  12.448  63.767  1.00  0.00    -0.514 C  
HETATM    7  H   UNL     1     -13.602  12.478  62.704  1.00  0.00     0.000 HD 
HETATM    8  O   UNL     1     -13.243  11.975  63.426  1.00  0.00    -0.687 OA 
BRANCH   6   9
HETATM    9  C   UNL     1     -12.028  13.924  64.219  1.00  0.00    -0.444 C  
HETATM   10  H   UNL     1     -13.071  15.044  65.493  1.00  0.00     0.000 HD 
HETATM   11  O   UNL     1     -13.016  14.137  65.216  1.00  0.00    -0.725 OA 
ENDBRANCH   6   9
ENDBRANCH   5   6
ENDBRANCH   2   5
BRANCH   4  12
HETATM   12  C   UNL     1      -9.783  10.067  67.094  1.00  0.00    -0.217 A  
HETATM   13  C   UNL     1      -9.701  11.227  67.871  1.00  0.00    -0.177 A  
HETATM   14  C   UNL     1     -10.180   8.856  67.746  1.00  0.00    -0.228 A  
HETATM   15  C   UNL     1     -10.723   8.872  69.069  1.00  0.00    -0.148 A  
HETATM   16  I   UNL     1      -9.891   6.992  66.690  1.00  0.00    -0.067 I  
HETATM   17  I   UNL     1      -8.294  12.766  67.307  1.00  0.00    -0.098 I  
HETATM   18  C   UNL     1     -10.971  10.143  69.639  1.00  0.00    -0.264 A  
HETATM   19  I   UNL     1     -12.638  10.376  70.991  1.00  0.00    -0.543 I  
HETATM   20  C   UNL     1     -10.374  11.318  69.103  1.00  0.00    -0.129 A  
BRANCH  15  21
HETATM   21  C   UNL     1     -11.114   7.570  69.755  1.00  0.00    -0.129 C  
HETATM   22  O   UNL     1     -12.116   6.981  69.339  1.00  0.00     0.350 OA 
HETATM   23  N   UNL     1     -10.331   6.978  70.768  1.00  0.00    -0.205 N  
HETATM   24  C   UNL     1      -9.425   7.683  71.669  1.00  0.00    -0.146 C  
BRANCH  23  25
HETATM   25  C   UNL     1     -10.615   5.568  71.132  1.00  0.00    -0.233 C  
BRANCH  25  26
HETATM   26  C   UNL     1     -10.270   5.164  72.582  1.00  0.00    -0.186 C  
HETATM   27  H   UNL     1     -11.204   4.923  74.337  1.00  0.00     0.000 HD 
HETATM   28  O   UNL     1     -11.416   5.172  73.445  1.00  0.00    -0.299 OA 
BRANCH  26  29
HETATM   29  C   UNL     1      -9.695   3.738  72.651  1.00  0.00    -0.144 C  
HETATM   30  H   UNL     1      -8.490   2.620  71.567  1.00  0.00     0.000 HD 
HETATM   31  O   UNL     1      -8.845   3.501  71.524  1.00  0.00    -0.086 OA 
ENDBRANCH  26  29
ENDBRANCH  25  26
ENDBRANCH  23  25
ENDBRANCH  15  21
BRANCH  20  32
HETATM   32  N   UNL     1     -10.504  12.608  69.694  1.00  0.00    -0.020 N  
HETATM   33  C   UNL     1     -10.966  13.707  68.981  1.00  0.00    -0.234 C  
HETATM   34  H   UNL     1     -10.249  12.729  70.674  1.00  0.00     0.000 HD 
HETATM   35  H   UNL     1     -12.981  13.674  72.214  1.00  0.00     0.000 HD 
HETATM   36  H   UNL     1     -12.512  16.968  67.637  1.00  0.00     0.000 HD 
HETATM   37  C   UNL     1     -11.185  14.948  69.853  1.00  0.00    -0.307 C  
HETATM   38  O   UNL     1     -11.246  13.683  67.783  1.00  0.00    -0.266 OA 
HETATM   39  O   UNL     1     -12.450  16.187  68.175  1.00  0.00     0.741 OA 
HETATM   40  O   UNL     1     -12.201  13.772  71.681  1.00  0.00    -0.213 OA 
HETATM   41  C   UNL     1     -12.439  14.789  70.709  1.00  0.00    -0.337 C  
HETATM   42  C   UNL     1     -11.284  16.201  68.989  1.00  0.00    -0.347 C  
ENDBRANCH  20  32
ENDBRANCH   4  12
TORSDOF 9
ENDMDL
MODEL       38
REMARK 921   NORMALIZED FREE ENERGY PREDICTED BY IDOCK:   -3.82 KCAL/MOL
REMARK 922        TOTAL FREE ENERGY PREDICTED BY IDOCK:   -7.13 KCAL/MOL
REMARK 923 INTER-LIGAND FREE ENERGY PREDICTED BY IDOCK:   -5.58 KCAL/MOL
REMARK 924 INTRA-LIGAND FREE ENERGY PREDICTED BY IDOCK:   -1.55 KCAL/MOL
REMARK 927      BINDING AFFINITY PREDICTED BY RF-SCORE:    0.00 PKD
ROOT
HETATM    1  C   UNL     1      -8.794   4.056  74.300  1.00  0.00    -0.094 C  
HETATM    2  N   UNL     1      -9.057   4.629  72.981  1.00  0.00    -0.120 N  
HETATM    3  O   UNL     1      -6.799   4.490  72.494  1.00  0.00    -0.051 OA 
HETATM    4  C   UNL     1      -7.922   4.850  72.161  1.00  0.00    -0.110 C  
ENDROOT
BRANCH   2   5
HETATM    5  C   UNL     1     -10.470   4.653  72.559  1.00  0.00    -0.195 C  
BRANCH   5   6
HETATM    6  C   UNL     1     -11.253   5.963  72.656  1.00  0.00    -0.291 C  
HETATM    7  H   UNL     1     -10.985   7.763  73.426  1.00  0.00     0.000 HD 
HETATM    8  O   UNL     1     -10.498   6.949  73.366  1.00  0.00    -0.268 OA 
BRANCH   6   9
HETATM    9  C   UNL     1     -11.520   6.461  71.216  1.00  0.00    -0.314 C  
HETATM   10  H   UNL     1     -13.036   7.150  70.122  1.00  0.00     0.000 HD 
HETATM   11  O   UNL     1     -12.872   6.844  71.006  1.00  0.00    -0.333 OA 
ENDBRANCH   6   9
ENDBRANCH   5   6
ENDBRANCH   2   5
BRANCH   4  12
HETATM   12  C   UNL     1      -8.046   5.508  70.817  1.00  0.00    -0.113 A  
HETATM   13  C   UNL     1      -8.279   4.705  69.696  1.00  0.00    -0.071 A  
HETATM   14  C   UNL     1      -7.866   6.913  70.605  1.00  0.00    -0.101 A  
HETATM   15  C   UNL     1      -8.168   7.515  69.343  1.00  0.00    -0.130 A  
HETATM   16  I   UNL     1      -7.076   8.094  72.233  1.00  0.00    -0.106 I  
HETATM   17  I   UNL     1      -7.641   2.643  69.736  1.00  0.00    -0.051 I  
HETATM   18  C   UNL     1      -8.776   6.684  68.372  1.00  0.00    -0.122 A  
HETATM   19  I   UNL     1     -10.185   7.554  66.986  1.00  0.00    -0.331 I  
HETATM   20  C   UNL     1      -8.743   5.267  68.492  1.00  0.00    -0.097 A  
BRANCH  15  21
HETATM   21  C   UNL     1      -7.944   9.005  69.129  1.00  0.00    -0.101 C  
HETATM   22  O   UNL     1      -6.862   9.360  68.654  1.00  0.00    -0.060 OA 
HETATM   23  N   UNL     1      -8.949   9.967  69.364  1.00  0.00    -0.182 N  
HETATM   24  C   UNL     1     -10.063   9.830  70.296  1.00  0.00    -0.266 C  
BRANCH  23  25
HETATM   25  C   UNL     1      -8.746  11.332  68.817  1.00  0.00    -0.103 C  
BRANCH  25  26
HETATM   26  C   UNL     1     -10.029  12.150  68.552  1.00  0.00    -0.175 C  
HETATM   27  H   UNL     1     -10.552  14.048  68.183  1.00  0.00     0.000 HD 
HETATM   28  O   UNL     1      -9.763  13.545  68.346  1.00  0.00    -0.221 OA 
BRANCH  26  29
HETATM   29  C   UNL     1     -10.758  11.665  67.287  1.00  0.00    -0.238 C  
HETATM   30  H   UNL     1     -12.473  10.795  66.862  1.00  0.00     0.000 HD 
HETATM   31  O   UNL     1     -12.023  11.095  67.643  1.00  0.00    -0.613 OA 
ENDBRANCH  26  29
ENDBRANCH  25  26
ENDBRANCH  23  25
ENDBRANCH  15  21
BRANCH  20  32
HETATM   32  N   UNL     1      -9.246   4.379  67.497  1.00  0.00    -0.133 N  
HETATM   33  C   UNL     1      -8.584   4.162  66.295  1.00  0.00    -0.113 C  
HETATM   34  H   UNL     1     -10.122   3.886  67.673  1.00  0.00     0.000 HD 
HETATM   35  H   UNL     1      -9.387   0.694  67.653  1.00  0.00     0.000 HD 
HETATM   36  H   UNL     1      -7.031   2.900  63.004  1.00  0.00     0.000 HD 
HETATM   37  C   UNL     1      -9.212   3.048  65.450  1.00  0.00    -0.141 C  
HETATM   38  O   UNL     1      -7.555   4.746  65.959  1.00  0.00    -0.088 OA 
HETATM   39  O   UNL     1      -7.334   2.849  63.904  1.00  0.00    -0.061 OA 
HETATM   40  O   UNL     1      -9.586   1.547  67.284  1.00  0.00     0.017 OA 
HETATM   41  C   UNL     1      -8.892   1.679  66.044  1.00  0.00    -0.118 C  
HETATM   42  C   UNL     1      -8.726   3.130  64.007  1.00  0.00    -0.089 C  
ENDBRANCH  20  32
ENDBRANCH   4  12
TORSDOF 9
ENDMDL
MODEL       39
REMARK 921   NORMALIZED FREE ENERGY PREDICTED BY IDOCK:   -3.77 KCAL/MOL
REMARK 922        TOTAL FREE ENERGY PREDICTED BY IDOCK:   -7.05 KCAL/MOL
REMARK 923 INTER-LIGAND FREE ENERGY PREDICTED BY IDOCK:   -6.57 KCAL/MOL
REMARK 924 INTRA-LIGAND FREE ENERGY PREDICTED BY IDOCK:   -0.48 KCAL/MOL
REMARK 927      BINDING AFFINITY PREDICTED BY RF-SCORE:    0.00 PKD
ROOT
HETATM    1  C   UNL     1     -12.135  14.191  64.059  1.00  0.00    -0.348 C  
HETATM    2  N   UNL     1     -11.178  13.295  64.706  1.00  0.00    -0.318 N  
HETATM    3  O   UNL     1     -12.235  11.487  63.721  1.00  0.00    -0.258 OA 
HETATM    4  C   UNL     1     -11.376  11.909  64.487  1.00  0.00    -0.316 C  
ENDROOT
BRANCH   2   5
HETATM    5  C   UNL     1      -9.978  13.937  65.275  1.00  0.00    -0.238 C  
BRANCH   5   6
HETATM    6  C   UNL     1     -10.084  15.361  65.819  1.00  0.00    -0.363 C  
HETATM    7  H   UNL     1     -11.003  16.285  67.305  1.00  0.00     0.000 HD 
HETATM    8  O   UNL     1     -10.937  15.400  66.966  1.00  0.00    -0.321 OA 
BRANCH   6   9
HETATM    9  C   UNL     1      -8.663  15.821  66.222  1.00  0.00    -0.323 C  
HETATM   10  H   UNL     1      -7.746  17.459  66.887  1.00  0.00     0.000 HD 
HETATM   11  O   UNL     1      -8.618  17.177  66.639  1.00  0.00    -0.221 OA 
ENDBRANCH   6   9
ENDBRANCH   5   6
ENDBRANCH   2   5
BRANCH   4  12
HETATM   12  C   UNL     1     -10.513  10.881  65.160  1.00  0.00    -0.316 A  
HETATM   13  C   UNL     1     -10.779  10.551  66.494  1.00  0.00    -0.121 A  
HETATM   14  C   UNL     1      -9.381  10.265  64.536  1.00  0.00    -0.276 A  
HETATM   15  C   UNL     1      -8.702   9.167  65.152  1.00  0.00    -0.228 A  
HETATM   16  I   UNL     1      -8.695  11.075  62.654  1.00  0.00    -0.105 I  
HETATM   17  I   UNL     1     -11.758  12.006  67.754  1.00  0.00    -0.077 I  
HETATM   18  C   UNL     1      -9.285   8.640  66.329  1.00  0.00    -0.202 A  
HETATM   19  I   UNL     1      -9.094   6.528  66.734  1.00  0.00    -0.184 I  
HETATM   20  C   UNL     1     -10.253   9.378  67.065  1.00  0.00    -0.255 A  
BRANCH  15  21
HETATM   21  C   UNL     1      -7.484   8.545  64.484  1.00  0.00    -0.105 C  
HETATM   22  O   UNL     1      -6.370   8.904  64.874  1.00  0.00    -0.064 OA 
HETATM   23  N   UNL     1      -7.586   7.521  63.519  1.00  0.00    -0.112 N  
HETATM   24  C   UNL     1      -8.725   7.286  62.638  1.00  0.00     0.432 C  
BRANCH  23  25
HETATM   25  C   UNL     1      -6.357   6.761  63.180  1.00  0.00    -0.043 C  
BRANCH  25  26
HETATM   26  C   UNL     1      -6.386   5.252  63.506  1.00  0.00    -0.022 C  
HETATM   27  H   UNL     1      -6.242   3.502  62.541  1.00  0.00     0.000 HD 
HETATM   28  O   UNL     1      -6.224   4.431  62.341  1.00  0.00    -0.017 OA 
BRANCH  26  29
HETATM   29  C   UNL     1      -5.249   4.858  64.465  1.00  0.00    -0.012 C  
HETATM   30  H   UNL     1      -5.090   4.238  66.328  1.00  0.00     0.000 HD 
HETATM   31  O   UNL     1      -5.792   4.482  65.735  1.00  0.00    -0.021 OA 
ENDBRANCH  26  29
ENDBRANCH  25  26
ENDBRANCH  23  25
ENDBRANCH  15  21
BRANCH  20  32
HETATM   32  N   UNL     1     -10.797   8.945  68.309  1.00  0.00    -0.458 N  
HETATM   33  C   UNL     1     -10.024   8.839  69.458  1.00  0.00    -0.195 C  
HETATM   34  H   UNL     1     -11.787   8.704  68.357  1.00  0.00     0.000 HD 
HETATM   35  H   UNL     1     -13.125  10.793  70.497  1.00  0.00     0.000 HD 
HETATM   36  H   UNL     1      -8.490   8.711  72.988  1.00  0.00     0.000 HD 
HETATM   37  C   UNL     1     -10.844   8.518  70.712  1.00  0.00    -0.268 C  
HETATM   38  O   UNL     1      -8.813   9.048  69.496  1.00  0.00    -0.137 OA 
HETATM   39  O   UNL     1      -9.054   9.027  72.291  1.00  0.00    -0.351 OA 
HETATM   40  O   UNL     1     -12.639  10.028  70.210  1.00  0.00    -0.144 OA 
HETATM   41  C   UNL     1     -11.624   9.747  71.173  1.00  0.00    -0.392 C  
HETATM   42  C   UNL     1      -9.939   8.011  71.830  1.00  0.00    -0.195 C  
ENDBRANCH  20  32
ENDBRANCH   4  12
TORSDOF 9
ENDMDL
MODEL       40
REMARK 921   NORMALIZED FREE ENERGY PREDICTED BY IDOCK:   -3.77 KCAL/MOL
REMARK 922        TOTAL FREE ENERGY PREDICTED BY IDOCK:   -7.05 KCAL/MOL
REMARK 923 INTER-LIGAND FREE ENERGY PREDICTED BY IDOCK:   -5.94 KCAL/MOL
REMARK 924 INTRA-LIGAND FREE ENERGY PREDICTED BY IDOCK:   -1.11 KCAL/MOL
REMARK 927      BINDING AFFINITY PREDICTED BY RF-SCORE:    0.00 PKD
ROOT
HETATM    1  C   UNL     1      -6.034  10.955  65.950  1.00  0.00    -0.116 C  
HETATM    2  N   UNL     1      -6.995   9.958  66.418  1.00  0.00    -0.092 N  
HETATM    3  O   UNL     1      -5.239   8.628  67.126  1.00  0.00    -0.032 OA 
HETATM    4  C   UNL     1      -6.445   8.771  66.963  1.00  0.00    -0.061 C  
ENDROOT
BRANCH   2   5
HETATM    5  C   UNL     1      -8.395  10.411  66.520  1.00  0.00    -0.130 C  
BRANCH   5   6
HETATM    6  C   UNL     1      -9.091  10.961  65.275  1.00  0.00    -0.197 C  
HETATM    7  H   UNL     1     -10.465  10.354  63.991  1.00  0.00     0.000 HD 
HETATM    8  O   UNL     1     -10.033  10.012  64.765  1.00  0.00    -0.321 OA 
BRANCH   6   9
HETATM    9  C   UNL     1      -9.836  12.254  65.682  1.00  0.00    -0.231 C  
HETATM   10  H   UNL     1      -9.657  13.740  66.995  1.00  0.00     0.000 HD 
HETATM   11  O   UNL     1      -9.200  12.946  66.746  1.00  0.00    -0.227 OA 
ENDBRANCH   6   9
ENDBRANCH   5   6
ENDBRANCH   2   5
BRANCH   4  12
HETATM   12  C   UNL     1      -7.322   7.634  67.404  1.00  0.00    -0.092 A  
HETATM   13  C   UNL     1      -7.651   6.642  66.474  1.00  0.00    -0.090 A  
HETATM   14  C   UNL     1      -7.905   7.544  68.708  1.00  0.00    -0.121 A  
HETATM   15  C   UNL     1      -8.584   6.359  69.135  1.00  0.00    -0.125 A  
HETATM   16  I   UNL     1      -7.772   9.270  70.002  1.00  0.00    -0.166 I  
HETATM   17  I   UNL     1      -7.647   7.137  64.372  1.00  0.00    -0.108 I  
HETATM   18  C   UNL     1      -8.530   5.247  68.261  1.00  0.00    -0.096 A  
HETATM   19  I   UNL     1      -8.506   3.258  69.101  1.00  0.00    -0.136 I  
HETATM   20  C   UNL     1      -8.163   5.402  66.895  1.00  0.00    -0.104 A  
BRANCH  15  21
HETATM   21  C   UNL     1      -9.220   6.293  70.516  1.00  0.00    -0.158 C  
HETATM   22  O   UNL     1      -8.485   6.042  71.475  1.00  0.00    -0.126 OA 
HETATM   23  N   UNL     1     -10.579   6.597  70.744  1.00  0.00    -0.220 N  
HETATM   24  C   UNL     1     -11.657   6.475  69.768  1.00  0.00    -0.327 C  
BRANCH  23  25
HETATM   25  C   UNL     1     -11.015   6.826  72.144  1.00  0.00    -0.238 C  
BRANCH  25  26
HETATM   26  C   UNL     1     -11.413   8.275  72.497  1.00  0.00    -0.384 C  
HETATM   27  H   UNL     1     -11.088  10.131  71.818  1.00  0.00     0.000 HD 
HETATM   28  O   UNL     1     -10.843   9.239  71.601  1.00  0.00    -0.357 OA 
BRANCH  26  29
HETATM   29  C   UNL     1     -12.936   8.478  72.428  1.00  0.00    -0.307 C  
HETATM   30  H   UNL     1     -14.175   9.829  71.709  1.00  0.00     0.000 HD 
HETATM   31  O   UNL     1     -13.234   9.703  71.751  1.00  0.00    -0.374 OA 
ENDBRANCH  26  29
ENDBRANCH  25  26
ENDBRANCH  23  25
ENDBRANCH  15  21
BRANCH  20  32
HETATM   32  N   UNL     1      -8.191   4.339  65.946  1.00  0.00    -0.108 N  
HETATM   33  C   UNL     1      -9.354   3.969  65.283  1.00  0.00    -0.163 C  
HETATM   34  H   UNL     1      -7.328   3.832  65.748  1.00  0.00     0.000 HD 
HETATM   35  H   UNL     1      -6.702   4.317  62.570  1.00  0.00     0.000 HD 
HETATM   36  H   UNL     1     -12.134   2.767  62.904  1.00  0.00     0.000 HD 
HETATM   37  C   UNL     1      -9.121   2.921  64.190  1.00  0.00    -0.109 C  
HETATM   38  O   UNL     1     -10.456   4.474  65.489  1.00  0.00    -0.272 OA 
HETATM   39  O   UNL     1     -11.315   3.179  63.153  1.00  0.00    -0.157 OA 
HETATM   40  O   UNL     1      -7.119   3.924  63.327  1.00  0.00    -0.043 OA 
HETATM   41  C   UNL     1      -8.451   3.553  62.972  1.00  0.00    -0.089 C  
HETATM   42  C   UNL     1     -10.436   2.259  63.791  1.00  0.00    -0.070 C  
ENDBRANCH  20  32
ENDBRANCH   4  12
TORSDOF 9
ENDMDL
MODEL       41
REMARK 921   NORMALIZED FREE ENERGY PREDICTED BY IDOCK:   -3.74 KCAL/MOL
REMARK 922        TOTAL FREE ENERGY PREDICTED BY IDOCK:   -7.01 KCAL/MOL
REMARK 923 INTER-LIGAND FREE ENERGY PREDICTED BY IDOCK:   -6.84 KCAL/MOL
REMARK 924 INTRA-LIGAND FREE ENERGY PREDICTED BY IDOCK:   -0.18 KCAL/MOL
REMARK 927      BINDING AFFINITY PREDICTED BY RF-SCORE:    0.00 PKD
ROOT
HETATM    1  C   UNL     1     -11.052   6.321  73.289  1.00  0.00    -0.116 C  
HETATM    2  N   UNL     1     -10.442   7.276  72.365  1.00  0.00    -0.219 N  
HETATM    3  O   UNL     1     -12.106   6.816  70.824  1.00  0.00    -0.387 OA 
HETATM    4  C   UNL     1     -11.062   7.398  71.097  1.00  0.00    -0.252 C  
ENDROOT
BRANCH   2   5
HETATM    5  C   UNL     1      -9.436   8.184  72.949  1.00  0.00    -0.275 C  
BRANCH   5   6
HETATM    6  C   UNL     1      -8.016   8.184  72.382  1.00  0.00    -0.138 C  
HETATM    7  H   UNL     1      -6.269   8.985  72.840  1.00  0.00     0.000 HD 
HETATM    8  O   UNL     1      -7.151   8.985  73.192  1.00  0.00    -0.330 OA 
BRANCH   6   9
HETATM    9  C   UNL     1      -7.508   6.723  72.379  1.00  0.00    -0.088 C  
HETATM   10  H   UNL     1      -7.163   5.250  73.675  1.00  0.00     0.000 HD 
HETATM   11  O   UNL     1      -7.475   6.147  73.677  1.00  0.00    -0.091 OA 
ENDBRANCH   6   9
ENDBRANCH   5   6
ENDBRANCH   2   5
BRANCH   4  12
HETATM   12  C   UNL     1     -10.486   8.282  70.028  1.00  0.00    -0.231 A  
HETATM   13  C   UNL     1     -10.820   9.640  70.029  1.00  0.00    -0.264 A  
HETATM   14  C   UNL     1      -9.666   7.798  68.958  1.00  0.00    -0.157 A  
HETATM   15  C   UNL     1      -8.999   8.701  68.071  1.00  0.00    -0.141 A  
HETATM   16  I   UNL     1      -9.504   5.660  68.689  1.00  0.00    -0.193 I  
HETATM   17  I   UNL     1     -12.682  10.258  70.931  1.00  0.00    -0.388 I  
HETATM   18  C   UNL     1      -9.081  10.078  68.387  1.00  0.00    -0.121 A  
HETATM   19  I   UNL     1      -7.412  11.361  67.905  1.00  0.00    -0.119 I  
HETATM   20  C   UNL     1     -10.063  10.569  69.291  1.00  0.00    -0.224 A  
BRANCH  15  21
HETATM   21  C   UNL     1      -8.155   8.166  66.923  1.00  0.00    -0.104 C  
HETATM   22  O   UNL     1      -7.135   7.532  67.208  1.00  0.00    -0.080 OA 
HETATM   23  N   UNL     1      -8.542   8.289  65.572  1.00  0.00    -0.164 N  
HETATM   24  C   UNL     1      -9.408   9.326  65.022  1.00  0.00    -0.127 C  
BRANCH  23  25
HETATM   25  C   UNL     1      -7.833   7.457  64.567  1.00  0.00    -0.129 C  
BRANCH  25  26
HETATM   26  C   UNL     1      -7.064   8.231  63.475  1.00  0.00    -0.086 C  
HETATM   27  H   UNL     1      -7.460   9.297  61.826  1.00  0.00     0.000 HD 
HETATM   28  O   UNL     1      -7.933   8.821  62.498  1.00  0.00    -0.132 OA 
BRANCH  26  29
HETATM   29  C   UNL     1      -6.245   9.389  64.071  1.00  0.00    -0.092 C  
HETATM   30  H   UNL     1      -4.712   9.588  65.290  1.00  0.00     0.000 HD 
HETATM   31  O   UNL     1      -5.217   8.872  64.922  1.00  0.00    -0.038 OA 
ENDBRANCH  26  29
ENDBRANCH  25  26
ENDBRANCH  23  25
ENDBRANCH  15  21
BRANCH  20  32
HETATM   32  N   UNL     1     -10.259  11.953  69.568  1.00  0.00    -0.198 N  
HETATM   33  C   UNL     1     -10.634  12.859  68.584  1.00  0.00    -0.234 C  
HETATM   34  H   UNL     1     -10.119  12.290  70.521  1.00  0.00     0.000 HD 
HETATM   35  H   UNL     1     -13.011  13.480  71.496  1.00  0.00     0.000 HD 
HETATM   36  H   UNL     1     -12.010  15.712  66.393  1.00  0.00     0.000 HD 
HETATM   37  C   UNL     1     -10.951  14.254  69.133  1.00  0.00    -0.286 C  
HETATM   38  O   UNL     1     -10.773  12.569  67.397  1.00  0.00    -0.223 OA 
HETATM   39  O   UNL     1     -12.012  15.068  67.092  1.00  0.00    -0.234 OA 
HETATM   40  O   UNL     1     -12.174  13.479  71.047  1.00  0.00    -0.353 OA 
HETATM   41  C   UNL     1     -12.296  14.255  69.855  1.00  0.00    -0.324 C  
HETATM   42  C   UNL     1     -10.947  15.287  68.011  1.00  0.00    -0.299 C  
ENDBRANCH  20  32
ENDBRANCH   4  12
TORSDOF 9
ENDMDL
MODEL       42
REMARK 921   NORMALIZED FREE ENERGY PREDICTED BY IDOCK:   -3.70 KCAL/MOL
REMARK 922        TOTAL FREE ENERGY PREDICTED BY IDOCK:   -6.95 KCAL/MOL
REMARK 923 INTER-LIGAND FREE ENERGY PREDICTED BY IDOCK:   -6.53 KCAL/MOL
REMARK 924 INTRA-LIGAND FREE ENERGY PREDICTED BY IDOCK:   -0.42 KCAL/MOL
REMARK 927      BINDING AFFINITY PREDICTED BY RF-SCORE:    0.00 PKD
ROOT
HETATM    1  C   UNL     1     -11.063  15.747  66.517  1.00  0.00    -0.079 C  
HETATM    2  N   UNL     1     -10.512  14.398  66.631  1.00  0.00    -0.271 N  
HETATM    3  O   UNL     1     -12.658  13.536  66.538  1.00  0.00    -0.302 OA 
HETATM    4  C   UNL     1     -11.456  13.342  66.683  1.00  0.00    -0.344 C  
ENDROOT
BRANCH   2   5
HETATM    5  C   UNL     1      -9.059  14.274  66.406  1.00  0.00    -0.141 C  
BRANCH   5   6
HETATM    6  C   UNL     1      -8.106  14.459  67.587  1.00  0.00    -0.177 C  
HETATM    7  H   UNL     1      -6.617  13.464  68.423  1.00  0.00     0.000 HD 
HETATM    8  O   UNL     1      -7.210  13.349  67.690  1.00  0.00    -0.135 OA 
BRANCH   6   9
HETATM    9  C   UNL     1      -7.293  15.752  67.340  1.00  0.00    -0.197 C  
HETATM   10  H   UNL     1      -6.637  17.332  68.360  1.00  0.00     0.000 HD 
HETATM   11  O   UNL     1      -7.136  16.538  68.512  1.00  0.00    -0.150 OA 
ENDBRANCH   6   9
ENDBRANCH   5   6
ENDBRANCH   2   5
BRANCH   4  12
HETATM   12  C   UNL     1     -11.024  11.918  66.883  1.00  0.00    -0.335 A  
HETATM   13  C   UNL     1     -10.622  11.176  65.767  1.00  0.00    -0.227 A  
HETATM   14  C   UNL     1     -11.070  11.247  68.147  1.00  0.00    -0.259 A  
HETATM   15  C   UNL     1     -10.483   9.954  68.320  1.00  0.00    -0.246 A  
HETATM   16  I   UNL     1     -12.093  12.225  69.780  1.00  0.00    -0.052 I  
HETATM   17  I   UNL     1     -11.385  11.718  63.821  1.00  0.00    -0.325 I  
HETATM   18  C   UNL     1      -9.747   9.439  67.226  1.00  0.00    -0.165 A  
HETATM   19  I   UNL     1      -8.038   8.180  67.618  1.00  0.00    -0.129 I  
HETATM   20  C   UNL     1      -9.893   9.983  65.920  1.00  0.00    -0.264 A  
BRANCH  15  21
HETATM   21  C   UNL     1     -10.566   9.246  69.665  1.00  0.00    -0.229 C  
HETATM   22  O   UNL     1     -10.171   9.859  70.661  1.00  0.00    -0.266 OA 
HETATM   23  N   UNL     1     -11.156   7.974  69.821  1.00  0.00    -0.135 N  
HETATM   24  C   UNL     1     -11.260   6.948  68.789  1.00  0.00    -0.026 C  
BRANCH  23  25
HETATM   25  C   UNL     1     -11.483   7.523  71.197  1.00  0.00    -0.273 C  
BRANCH  25  26
HETATM   26  C   UNL     1     -10.417   6.650  71.892  1.00  0.00    -0.201 C  
HETATM   27  H   UNL     1      -8.548   6.009  71.558  1.00  0.00     0.000 HD 
HETATM   28  O   UNL     1      -9.205   6.546  71.130  1.00  0.00    -0.155 OA 
BRANCH  26  29
HETATM   29  C   UNL     1     -10.012   7.229  73.258  1.00  0.00    -0.273 C  
HETATM   30  H   UNL     1      -9.670   6.535  75.069  1.00  0.00     0.000 HD 
HETATM   31  O   UNL     1      -9.920   6.177  74.225  1.00  0.00    -0.219 OA 
ENDBRANCH  26  29
ENDBRANCH  25  26
ENDBRANCH  23  25
ENDBRANCH  15  21
BRANCH  20  32
HETATM   32  N   UNL     1      -9.258   9.441  64.765  1.00  0.00    -0.398 N  
HETATM   33  C   UNL     1      -7.985   9.830  64.369  1.00  0.00    -0.145 C  
HETATM   34  H   UNL     1      -9.755   8.744  64.210  1.00  0.00     0.000 HD 
HETATM   35  H   UNL     1      -7.938   6.021  64.337  1.00  0.00     0.000 HD 
HETATM   36  H   UNL     1      -4.400  10.237  63.022  1.00  0.00     0.000 HD 
HETATM   37  C   UNL     1      -7.432   9.002  63.204  1.00  0.00    -0.098 C  
HETATM   38  O   UNL     1      -7.324  10.702  64.932  1.00  0.00    -0.034 OA 
HETATM   39  O   UNL     1      -5.135   9.793  63.429  1.00  0.00    -0.067 OA 
HETATM   40  O   UNL     1      -8.195   6.886  64.040  1.00  0.00    -0.055 OA 
HETATM   41  C   UNL     1      -7.020   7.612  63.681  1.00  0.00    -0.060 C  
HETATM   42  C   UNL     1      -6.252   9.713  62.551  1.00  0.00    -0.098 C  
ENDBRANCH  20  32
ENDBRANCH   4  12
TORSDOF 9
ENDMDL
MODEL       43
REMARK 921   NORMALIZED FREE ENERGY PREDICTED BY IDOCK:   -3.70 KCAL/MOL
REMARK 922        TOTAL FREE ENERGY PREDICTED BY IDOCK:   -6.94 KCAL/MOL
REMARK 923 INTER-LIGAND FREE ENERGY PREDICTED BY IDOCK:   -6.22 KCAL/MOL
REMARK 924 INTRA-LIGAND FREE ENERGY PREDICTED BY IDOCK:   -0.72 KCAL/MOL
REMARK 927      BINDING AFFINITY PREDICTED BY RF-SCORE:    0.00 PKD
ROOT
HETATM    1  C   UNL     1     -13.247  12.584  70.860  1.00  0.00     0.320 C  
HETATM    2  N   UNL     1     -11.946  12.998  70.335  1.00  0.00    -0.307 N  
HETATM    3  O   UNL     1     -12.232  11.556  68.547  1.00  0.00    -0.524 OA 
HETATM    4  C   UNL     1     -11.516  12.347  69.152  1.00  0.00    -0.302 C  
ENDROOT
BRANCH   2   5
HETATM    5  C   UNL     1     -11.370  14.218  70.931  1.00  0.00     0.180 C  
BRANCH   5   6
HETATM    6  C   UNL     1     -12.126  15.540  70.797  1.00  0.00    -0.390 C  
HETATM    7  H   UNL     1     -13.967  16.126  70.384  1.00  0.00     0.000 HD 
HETATM    8  O   UNL     1     -13.498  15.304  70.467  1.00  0.00    -0.255 OA 
BRANCH   6   9
HETATM    9  C   UNL     1     -12.044  16.272  72.157  1.00  0.00    -0.454 C  
HETATM   10  H   UNL     1     -11.846  15.832  74.090  1.00  0.00     0.000 HD 
HETATM   11  O   UNL     1     -11.896  15.382  73.255  1.00  0.00    -0.444 OA 
ENDBRANCH   6   9
ENDBRANCH   5   6
ENDBRANCH   2   5
BRANCH   4  12
HETATM   12  C   UNL     1     -10.165  12.620  68.557  1.00  0.00    -0.207 A  
HETATM   13  C   UNL     1     -10.000  13.761  67.765  1.00  0.00    -0.242 A  
HETATM   14  C   UNL     1      -9.046  11.738  68.695  1.00  0.00    -0.071 A  
HETATM   15  C   UNL     1      -7.739  12.127  68.262  1.00  0.00    -0.135 A  
HETATM   16  I   UNL     1      -9.396   9.776  69.532  1.00  0.00    -0.251 I  
HETATM   17  I   UNL     1     -11.718  14.586  66.749  1.00  0.00    -0.245 I  
HETATM   18  C   UNL     1      -7.587  13.464  67.823  1.00  0.00    -0.157 A  
HETATM   19  I   UNL     1      -5.708  14.469  68.168  1.00  0.00    -0.097 I  
HETATM   20  C   UNL     1      -8.716  14.255  67.472  1.00  0.00    -0.199 A  
BRANCH  15  21
HETATM   21  C   UNL     1      -6.568  11.163  68.393  1.00  0.00    -0.058 C  
HETATM   22  O   UNL     1      -6.078  11.003  69.514  1.00  0.00    -0.055 OA 
HETATM   23  N   UNL     1      -6.094  10.390  67.311  1.00  0.00    -0.053 N  
HETATM   24  C   UNL     1      -6.212  10.735  65.898  1.00  0.00    -0.121 C  
BRANCH  23  25
HETATM   25  C   UNL     1      -5.185   9.256  67.613  1.00  0.00    -0.037 C  
BRANCH  25  26
HETATM   26  C   UNL     1      -5.865   7.888  67.834  1.00  0.00    -0.041 C  
HETATM   27  H   UNL     1      -6.613   6.808  69.346  1.00  0.00     0.000 HD 
HETATM   28  O   UNL     1      -6.194   7.649  69.210  1.00  0.00    -0.033 OA 
BRANCH  26  29
HETATM   29  C   UNL     1      -7.188   7.780  67.056  1.00  0.00    -0.089 C  
HETATM   30  H   UNL     1      -7.799   6.981  65.363  1.00  0.00     0.000 HD 
HETATM   31  O   UNL     1      -6.982   7.048  65.843  1.00  0.00    -0.061 OA 
ENDBRANCH  26  29
ENDBRANCH  25  26
ENDBRANCH  23  25
ENDBRANCH  15  21
BRANCH  20  32
HETATM   32  N   UNL     1      -8.619  15.569  66.927  1.00  0.00    -0.234 N  
HETATM   33  C   UNL     1      -8.829  16.706  67.696  1.00  0.00    -0.201 C  
HETATM   34  H   UNL     1      -8.387  15.677  65.940  1.00  0.00     0.000 HD 
HETATM   35  H   UNL     1      -5.555  17.320  65.848  1.00  0.00     0.000 HD 
HETATM   36  H   UNL     1      -8.933  20.165  69.386  1.00  0.00     0.000 HD 
HETATM   37  C   UNL     1      -8.510  18.007  66.953  1.00  0.00    -0.262 C  
HETATM   38  O   UNL     1      -9.168  16.687  68.878  1.00  0.00    -0.247 OA 
HETATM   39  O   UNL     1      -8.543  19.421  68.941  1.00  0.00    -0.369 OA 
HETATM   40  O   UNL     1      -6.494  17.203  65.929  1.00  0.00    -0.084 OA 
HETATM   41  C   UNL     1      -7.000  18.195  66.822  1.00  0.00    -0.197 C  
HETATM   42  C   UNL     1      -9.135  19.201  67.666  1.00  0.00    -0.297 C  
ENDBRANCH  20  32
ENDBRANCH   4  12
TORSDOF 9
ENDMDL
MODEL       44
REMARK 921   NORMALIZED FREE ENERGY PREDICTED BY IDOCK:   -3.67 KCAL/MOL
REMARK 922        TOTAL FREE ENERGY PREDICTED BY IDOCK:   -6.91 KCAL/MOL
REMARK 923 INTER-LIGAND FREE ENERGY PREDICTED BY IDOCK:   -6.38 KCAL/MOL
REMARK 924 INTRA-LIGAND FREE ENERGY PREDICTED BY IDOCK:   -0.53 KCAL/MOL
REMARK 927      BINDING AFFINITY PREDICTED BY RF-SCORE:    0.00 PKD
ROOT
HETATM    1  C   UNL     1      -6.746   5.004  64.806  1.00  0.00    -0.048 C  
HETATM    2  N   UNL     1      -7.563   5.916  65.605  1.00  0.00    -0.081 N  
HETATM    3  O   UNL     1      -5.875   7.495  65.492  1.00  0.00    -0.036 OA 
HETATM    4  C   UNL     1      -6.968   7.159  65.933  1.00  0.00    -0.065 C  
ENDROOT
BRANCH   2   5
HETATM    5  C   UNL     1      -8.987   5.554  65.740  1.00  0.00    -0.154 C  
BRANCH   5   6
HETATM    6  C   UNL     1      -9.395   4.085  65.632  1.00  0.00    -0.160 C  
HETATM    7  H   UNL     1     -10.006   2.653  66.849  1.00  0.00     0.000 HD 
HETATM    8  O   UNL     1      -9.753   3.566  66.916  1.00  0.00    -0.173 OA 
BRANCH   6   9
HETATM    9  C   UNL     1     -10.616   4.001  64.687  1.00  0.00    -0.168 C  
HETATM   10  H   UNL     1     -11.181   3.025  63.045  1.00  0.00     0.000 HD 
HETATM   11  O   UNL     1     -10.431   3.076  63.625  1.00  0.00    -0.191 OA 
ENDBRANCH   6   9
ENDBRANCH   5   6
ENDBRANCH   2   5
BRANCH   4  12
HETATM   12  C   UNL     1      -7.669   8.150  66.818  1.00  0.00    -0.095 A  
HETATM   13  C   UNL     1      -8.397   9.184  66.220  1.00  0.00    -0.119 A  
HETATM   14  C   UNL     1      -7.574   8.142  68.246  1.00  0.00    -0.102 A  
HETATM   15  C   UNL     1      -8.398   8.993  69.048  1.00  0.00    -0.124 A  
HETATM   16  I   UNL     1      -6.113   6.837  69.160  1.00  0.00    -0.028 I  
HETATM   17  I   UNL     1      -7.852   9.836  64.235  1.00  0.00    -0.153 I  
HETATM   18  C   UNL     1      -9.394   9.735  68.369  1.00  0.00    -0.133 A  
HETATM   19  I   UNL     1     -11.257  10.151  69.379  1.00  0.00    -0.179 I  
HETATM   20  C   UNL     1      -9.340   9.922  66.960  1.00  0.00    -0.147 A  
BRANCH  15  21
HETATM   21  C   UNL     1      -8.263   8.989  70.564  1.00  0.00    -0.168 C  
HETATM   22  O   UNL     1      -7.500   9.813  71.075  1.00  0.00    -0.318 OA 
HETATM   23  N   UNL     1      -9.037   8.151  71.394  1.00  0.00    -0.143 N  
HETATM   24  C   UNL     1      -9.620   6.869  71.011  1.00  0.00    -0.170 C  
BRANCH  23  25
HETATM   25  C   UNL     1      -9.072   8.453  72.847  1.00  0.00    -0.212 C  
BRANCH  25  26
HETATM   26  C   UNL     1      -8.182   7.563  73.742  1.00  0.00    -0.163 C  
HETATM   27  H   UNL     1      -7.665   5.634  73.903  1.00  0.00     0.000 HD 
HETATM   28  O   UNL     1      -8.213   6.182  73.353  1.00  0.00    -0.113 OA 
BRANCH  26  29
HETATM   29  C   UNL     1      -6.706   7.990  73.677  1.00  0.00    -0.115 C  
HETATM   30  H   UNL     1      -5.626   9.525  74.274  1.00  0.00     0.000 HD 
HETATM   31  O   UNL     1      -6.538   9.261  74.315  1.00  0.00    -0.356 OA 
ENDBRANCH  26  29
ENDBRANCH  25  26
ENDBRANCH  23  25
ENDBRANCH  15  21
BRANCH  20  32
HETATM   32  N   UNL     1     -10.255  10.742  66.237  1.00  0.00    -0.238 N  
HETATM   33  C   UNL     1     -10.105  12.120  66.152  1.00  0.00    -0.228 C  
HETATM   34  H   UNL     1     -11.046  10.302  65.767  1.00  0.00     0.000 HD 
HETATM   35  H   UNL     1     -10.671  10.937  62.575  1.00  0.00     0.000 HD 
HETATM   36  H   UNL     1      -9.999  15.868  65.271  1.00  0.00     0.000 HD 
HETATM   37  C   UNL     1     -11.101  12.780  65.192  1.00  0.00    -0.323 C  
HETATM   38  O   UNL     1      -9.223  12.755  66.727  1.00  0.00    -0.219 OA 
HETATM   39  O   UNL     1      -9.952  14.931  65.114  1.00  0.00    -0.345 OA 
HETATM   40  O   UNL     1     -10.912  11.111  63.478  1.00  0.00    -0.336 OA 
HETATM   41  C   UNL     1     -10.714  12.500  63.742  1.00  0.00    -0.445 C  
HETATM   42  C   UNL     1     -11.175  14.282  65.443  1.00  0.00    -0.329 C  
ENDBRANCH  20  32
ENDBRANCH   4  12
TORSDOF 9
ENDMDL
MODEL       45
REMARK 921   NORMALIZED FREE ENERGY PREDICTED BY IDOCK:   -3.66 KCAL/MOL
REMARK 922        TOTAL FREE ENERGY PREDICTED BY IDOCK:   -6.88 KCAL/MOL
REMARK 923 INTER-LIGAND FREE ENERGY PREDICTED BY IDOCK:   -6.42 KCAL/MOL
REMARK 924 INTRA-LIGAND FREE ENERGY PREDICTED BY IDOCK:   -0.46 KCAL/MOL
REMARK 927      BINDING AFFINITY PREDICTED BY RF-SCORE:    0.00 PKD
ROOT
HETATM    1  C   UNL     1      -9.526  10.517  62.408  1.00  0.00    -0.208 C  
HETATM    2  N   UNL     1      -9.064  10.912  63.738  1.00  0.00    -0.194 N  
HETATM    3  O   UNL     1     -11.247  11.406  64.326  1.00  0.00    -0.325 OA 
HETATM    4  C   UNL     1     -10.057  11.404  64.621  1.00  0.00    -0.280 C  
ENDROOT
BRANCH   2   5
HETATM    5  C   UNL     1      -7.692  10.501  64.091  1.00  0.00     0.053 C  
BRANCH   5   6
HETATM    6  C   UNL     1      -6.851   9.752  63.057  1.00  0.00    -0.113 C  
HETATM    7  H   UNL     1      -5.024   9.867  62.311  1.00  0.00     0.000 HD 
HETATM    8  O   UNL     1      -5.547  10.332  62.954  1.00  0.00    -0.110 OA 
BRANCH   6   9
HETATM    9  C   UNL     1      -6.722   8.284  63.526  1.00  0.00    -0.084 C  
HETATM   10  H   UNL     1      -6.768   6.450  62.750  1.00  0.00     0.000 HD 
HETATM   11  O   UNL     1      -6.847   7.351  62.462  1.00  0.00    -0.067 OA 
ENDBRANCH   6   9
ENDBRANCH   5   6
ENDBRANCH   2   5
BRANCH   4  12
HETATM   12  C   UNL     1      -9.701  11.920  65.986  1.00  0.00    -0.257 A  
HETATM   13  C   UNL     1      -9.323  11.002  66.972  1.00  0.00    -0.172 A  
HETATM   14  C   UNL     1      -9.798  13.298  66.361  1.00  0.00    -0.281 A  
HETATM   15  C   UNL     1      -9.281  13.763  67.611  1.00  0.00    -0.207 A  
HETATM   16  I   UNL     1     -10.791  14.653  65.002  1.00  0.00    -0.396 I  
HETATM   17  I   UNL     1     -10.031   8.967  66.832  1.00  0.00    -0.345 I  
HETATM   18  C   UNL     1      -8.558  12.825  68.387  1.00  0.00    -0.123 A  
HETATM   19  I   UNL     1      -6.920  13.523  69.609  1.00  0.00     0.560 I  
HETATM   20  C   UNL     1      -8.658  11.429  68.135  1.00  0.00    -0.153 A  
BRANCH  15  21
HETATM   21  C   UNL     1      -9.417  15.227  68.003  1.00  0.00    -0.198 C  
HETATM   22  O   UNL     1     -10.381  15.546  68.704  1.00  0.00    -0.211 OA 
HETATM   23  N   UNL     1      -8.445  16.196  67.675  1.00  0.00    -0.166 N  
HETATM   24  C   UNL     1      -7.528  16.138  66.542  1.00  0.00    -0.074 C  
BRANCH  23  25
HETATM   25  C   UNL     1      -8.503  17.503  68.376  1.00  0.00    -0.275 C  
BRANCH  25  26
HETATM   26  C   UNL     1      -9.628  18.460  67.927  1.00  0.00    -0.293 C  
HETATM   27  H   UNL     1     -10.445  20.195  68.504  1.00  0.00     0.000 HD 
HETATM   28  O   UNL     1      -9.753  19.606  68.781  1.00  0.00    -0.403 OA 
BRANCH  26  29
HETATM   29  C   UNL     1      -9.374  19.009  66.512  1.00  0.00    -0.340 C  
HETATM   30  H   UNL     1     -10.232  18.878  64.744  1.00  0.00     0.000 HD 
HETATM   31  O   UNL     1     -10.389  18.539  65.618  1.00  0.00    -0.594 OA 
ENDBRANCH  26  29
ENDBRANCH  25  26
ENDBRANCH  23  25
ENDBRANCH  15  21
BRANCH  20  32
HETATM   32  N   UNL     1      -8.036  10.435  68.946  1.00  0.00    -0.113 N  
HETATM   33  C   UNL     1      -8.715   9.780  69.965  1.00  0.00    -0.209 C  
HETATM   34  H   UNL     1      -7.059  10.197  68.772  1.00  0.00     0.000 HD 
HETATM   35  H   UNL     1      -7.033   7.031  67.933  1.00  0.00     0.000 HD 
HETATM   36  H   UNL     1     -10.167   7.408  72.630  1.00  0.00     0.000 HD 
HETATM   37  C   UNL     1      -7.909   8.637  70.593  1.00  0.00    -0.101 C  
HETATM   38  O   UNL     1      -9.873  10.030  70.295  1.00  0.00    -0.227 OA 
HETATM   39  O   UNL     1      -9.796   7.658  71.791  1.00  0.00    -0.162 OA 
HETATM   40  O   UNL     1      -7.064   7.779  68.518  1.00  0.00    -0.069 OA 
HETATM   41  C   UNL     1      -7.858   7.436  69.653  1.00  0.00    -0.117 C  
HETATM   42  C   UNL     1      -8.504   8.237  71.939  1.00  0.00    -0.160 C  
ENDBRANCH  20  32
ENDBRANCH   4  12
TORSDOF 9
ENDMDL
MODEL       46
REMARK 921   NORMALIZED FREE ENERGY PREDICTED BY IDOCK:   -3.65 KCAL/MOL
REMARK 922        TOTAL FREE ENERGY PREDICTED BY IDOCK:   -6.88 KCAL/MOL
REMARK 923 INTER-LIGAND FREE ENERGY PREDICTED BY IDOCK:   -6.22 KCAL/MOL
REMARK 924 INTRA-LIGAND FREE ENERGY PREDICTED BY IDOCK:   -0.66 KCAL/MOL
REMARK 927      BINDING AFFINITY PREDICTED BY RF-SCORE:    0.00 PKD
ROOT
HETATM    1  C   UNL     1     -10.563   7.556  73.435  1.00  0.00    -0.354 C  
HETATM    2  N   UNL     1      -9.943   7.884  72.152  1.00  0.00    -0.192 N  
HETATM    3  O   UNL     1     -12.045   8.020  71.195  1.00  0.00    -0.300 OA 
HETATM    4  C   UNL     1     -10.827   8.049  71.058  1.00  0.00    -0.235 C  
ENDROOT
BRANCH   2   5
HETATM    5  C   UNL     1      -8.520   8.269  72.205  1.00  0.00    -0.179 C  
BRANCH   5   6
HETATM    6  C   UNL     1      -7.481   7.222  72.609  1.00  0.00    -0.076 C  
HETATM    7  H   UNL     1      -6.487   5.751  71.742  1.00  0.00     0.000 HD 
HETATM    8  O   UNL     1      -7.133   6.401  71.491  1.00  0.00    -0.074 OA 
BRANCH   6   9
HETATM    9  C   UNL     1      -6.223   7.972  73.105  1.00  0.00    -0.074 C  
HETATM   10  H   UNL     1      -5.615   8.993  74.704  1.00  0.00     0.000 HD 
HETATM   11  O   UNL     1      -6.388   8.533  74.399  1.00  0.00    -0.125 OA 
ENDBRANCH   6   9
ENDBRANCH   5   6
ENDBRANCH   2   5
BRANCH   4  12
HETATM   12  C   UNL     1     -10.314   8.306  69.670  1.00  0.00    -0.218 A  
HETATM   13  C   UNL     1     -10.416   9.598  69.146  1.00  0.00    -0.214 A  
HETATM   14  C   UNL     1      -9.787   7.282  68.820  1.00  0.00    -0.161 A  
HETATM   15  C   UNL     1      -9.149   7.605  67.580  1.00  0.00    -0.133 A  
HETATM   16  I   UNL     1     -10.026   5.225  69.438  1.00  0.00    -0.293 I  
HETATM   17  I   UNL     1     -11.962  10.909  69.891  1.00  0.00    -0.421 I  
HETATM   18  C   UNL     1      -8.947   8.979  67.310  1.00  0.00    -0.127 A  
HETATM   19  I   UNL     1      -7.204   9.577  66.185  1.00  0.00    -0.099 I  
HETATM   20  C   UNL     1      -9.661   9.982  68.023  1.00  0.00    -0.138 A  
BRANCH  15  21
HETATM   21  C   UNL     1      -8.621   6.499  66.677  1.00  0.00    -0.118 C  
HETATM   22  O   UNL     1      -9.359   6.092  65.776  1.00  0.00    -0.092 OA 
HETATM   23  N   UNL     1      -7.304   6.001  66.776  1.00  0.00    -0.078 N  
HETATM   24  C   UNL     1      -6.475   6.009  67.976  1.00  0.00    -0.050 C  
BRANCH  23  25
HETATM   25  C   UNL     1      -6.787   5.177  65.655  1.00  0.00    -0.061 C  
BRANCH  25  26
HETATM   26  C   UNL     1      -6.708   3.657  65.916  1.00  0.00    -0.041 C  
HETATM   27  H   UNL     1      -5.591   2.369  66.968  1.00  0.00     0.000 HD 
HETATM   28  O   UNL     1      -5.639   3.304  66.806  1.00  0.00    -0.020 OA 
BRANCH  26  29
HETATM   29  C   UNL     1      -7.997   3.126  66.566  1.00  0.00    -0.081 C  
HETATM   30  H   UNL     1      -8.490   2.203  68.235  1.00  0.00     0.000 HD 
HETATM   31  O   UNL     1      -7.694   2.532  67.833  1.00  0.00    -0.059 OA 
ENDBRANCH  26  29
ENDBRANCH  25  26
ENDBRANCH  23  25
ENDBRANCH  15  21
BRANCH  20  32
HETATM   32  N   UNL     1      -9.575  11.373  67.724  1.00  0.00    -0.169 N  
HETATM   33  C   UNL     1     -10.153  11.923  66.587  1.00  0.00    -0.200 C  
HETATM   34  H   UNL     1      -9.073  11.985  68.368  1.00  0.00     0.000 HD 
HETATM   35  H   UNL     1     -11.277  14.143  69.472  1.00  0.00     0.000 HD 
HETATM   36  H   UNL     1     -11.837  14.034  63.842  1.00  0.00     0.000 HD 
HETATM   37  C   UNL     1     -10.084  13.453  66.552  1.00  0.00    -0.280 C  
HETATM   38  O   UNL     1     -10.729  11.267  65.721  1.00  0.00    -0.263 OA 
HETATM   39  O   UNL     1     -11.677  13.712  64.722  1.00  0.00    -0.347 OA 
HETATM   40  O   UNL     1     -10.654  13.766  68.862  1.00  0.00    -0.248 OA 
HETATM   41  C   UNL     1     -11.085  14.059  67.533  1.00  0.00    -0.298 C  
HETATM   42  C   UNL     1     -10.341  13.970  65.141  1.00  0.00    -0.400 C  
ENDBRANCH  20  32
ENDBRANCH   4  12
TORSDOF 9
ENDMDL
MODEL       47
REMARK 921   NORMALIZED FREE ENERGY PREDICTED BY IDOCK:   -3.64 KCAL/MOL
REMARK 922        TOTAL FREE ENERGY PREDICTED BY IDOCK:   -6.86 KCAL/MOL
REMARK 923 INTER-LIGAND FREE ENERGY PREDICTED BY IDOCK:   -6.05 KCAL/MOL
REMARK 924 INTRA-LIGAND FREE ENERGY PREDICTED BY IDOCK:   -0.81 KCAL/MOL
REMARK 927      BINDING AFFINITY PREDICTED BY RF-SCORE:    0.00 PKD
ROOT
HETATM    1  C   UNL     1     -10.614  13.561  66.362  1.00  0.00    -0.283 C  
HETATM    2  N   UNL     1     -10.420  12.113  66.425  1.00  0.00    -0.226 N  
HETATM    3  O   UNL     1      -9.637  12.333  68.592  1.00  0.00    -0.156 OA 
HETATM    4  C   UNL     1      -9.856  11.612  67.624  1.00  0.00    -0.186 C  
ENDROOT
BRANCH   2   5
HETATM    5  C   UNL     1     -11.076  11.329  65.362  1.00  0.00    -0.067 C  
BRANCH   5   6
HETATM    6  C   UNL     1     -10.937  11.784  63.909  1.00  0.00    -0.407 C  
HETATM    7  H   UNL     1     -10.160  11.080  62.234  1.00  0.00     0.000 HD 
HETATM    8  O   UNL     1     -10.247  10.797  63.136  1.00  0.00    -0.299 OA 
BRANCH   6   9
HETATM    9  C   UNL     1     -12.360  11.979  63.336  1.00  0.00    -0.523 C  
HETATM   10  H   UNL     1     -14.198  12.390  63.986  1.00  0.00     0.000 HD 
HETATM   11  O   UNL     1     -13.324  12.270  64.338  1.00  0.00    -0.786 OA 
ENDBRANCH   6   9
ENDBRANCH   5   6
ENDBRANCH   2   5
BRANCH   4  12
HETATM   12  C   UNL     1      -9.529  10.155  67.785  1.00  0.00    -0.160 A  
HETATM   13  C   UNL     1     -10.230   9.412  68.740  1.00  0.00    -0.203 A  
HETATM   14  C   UNL     1      -8.484   9.495  67.063  1.00  0.00    -0.128 A  
HETATM   15  C   UNL     1      -8.329   8.074  67.119  1.00  0.00    -0.121 A  
HETATM   16  I   UNL     1      -7.112  10.712  65.920  1.00  0.00     0.037 I  
HETATM   17  I   UNL     1     -11.077  10.433  70.444  1.00  0.00    -0.072 I  
HETATM   18  C   UNL     1      -9.334   7.353  67.808  1.00  0.00    -0.136 A  
HETATM   19  I   UNL     1      -9.850   5.371  67.125  1.00  0.00    -0.270 I  
HETATM   20  C   UNL     1     -10.225   8.006  68.704  1.00  0.00    -0.206 A  
BRANCH  15  21
HETATM   21  C   UNL     1      -7.195   7.394  66.366  1.00  0.00    -0.079 C  
HETATM   22  O   UNL     1      -6.166   7.129  66.994  1.00  0.00    -0.044 OA 
HETATM   23  N   UNL     1      -7.315   6.979  65.022  1.00  0.00    -0.078 N  
HETATM   24  C   UNL     1      -8.205   7.561  64.024  1.00  0.00     0.041 C  
BRANCH  23  25
HETATM   25  C   UNL     1      -6.293   6.043  64.490  1.00  0.00    -0.033 C  
BRANCH  25  26
HETATM   26  C   UNL     1      -6.692   4.552  64.467  1.00  0.00    -0.044 C  
HETATM   27  H   UNL     1      -6.924   3.078  63.130  1.00  0.00     0.000 HD 
HETATM   28  O   UNL     1      -6.679   3.996  63.144  1.00  0.00    -0.033 OA 
BRANCH  26  29
HETATM   29  C   UNL     1      -5.724   3.693  65.299  1.00  0.00    -0.018 C  
HETATM   30  H   UNL     1      -5.303   3.440  67.206  1.00  0.00     0.000 HD 
HETATM   31  O   UNL     1      -5.902   3.970  66.692  1.00  0.00    -0.021 OA 
ENDBRANCH  26  29
ENDBRANCH  25  26
ENDBRANCH  23  25
ENDBRANCH  15  21
BRANCH  20  32
HETATM   32  N   UNL     1     -11.186   7.318  69.501  1.00  0.00    -0.461 N  
HETATM   33  C   UNL     1     -10.874   6.793  70.748  1.00  0.00    -0.249 C  
HETATM   34  H   UNL     1     -12.135   7.208  69.142  1.00  0.00     0.000 HD 
HETATM   35  H   UNL     1     -14.089   8.774  71.253  1.00  0.00     0.000 HD 
HETATM   36  H   UNL     1     -10.698   5.481  74.365  1.00  0.00     0.000 HD 
HETATM   37  C   UNL     1     -12.094   6.247  71.498  1.00  0.00    -0.185 C  
HETATM   38  O   UNL     1      -9.750   6.820  71.247  1.00  0.00    -0.173 OA 
HETATM   39  O   UNL     1     -10.969   6.051  73.654  1.00  0.00    -0.210 OA 
HETATM   40  O   UNL     1     -13.554   8.062  70.922  1.00  0.00     0.047 OA 
HETATM   41  C   UNL     1     -12.954   7.390  72.030  1.00  0.00    -0.165 C  
HETATM   42  C   UNL     1     -11.659   5.332  72.638  1.00  0.00    -0.154 C  
ENDBRANCH  20  32
ENDBRANCH   4  12
TORSDOF 9
ENDMDL
MODEL       48
REMARK 921   NORMALIZED FREE ENERGY PREDICTED BY IDOCK:   -3.63 KCAL/MOL
REMARK 922        TOTAL FREE ENERGY PREDICTED BY IDOCK:   -6.85 KCAL/MOL
REMARK 923 INTER-LIGAND FREE ENERGY PREDICTED BY IDOCK:   -6.09 KCAL/MOL
REMARK 924 INTRA-LIGAND FREE ENERGY PREDICTED BY IDOCK:   -0.76 KCAL/MOL
REMARK 927      BINDING AFFINITY PREDICTED BY RF-SCORE:    0.00 PKD
ROOT
HETATM    1  C   UNL     1      -6.797   4.815  64.793  1.00  0.00    -0.049 C  
HETATM    2  N   UNL     1      -7.444   5.945  65.457  1.00  0.00    -0.079 N  
HETATM    3  O   UNL     1      -5.390   7.000  65.618  1.00  0.00    -0.025 OA 
HETATM    4  C   UNL     1      -6.588   6.992  65.880  1.00  0.00    -0.052 C  
ENDROOT
BRANCH   2   5
HETATM    5  C   UNL     1      -8.916   5.990  65.363  1.00  0.00     0.030 C  
BRANCH   5   6
HETATM    6  C   UNL     1      -9.742   4.982  66.162  1.00  0.00    -0.183 C  
HETATM    7  H   UNL     1     -10.375   3.123  65.943  1.00  0.00     0.000 HD 
HETATM    8  O   UNL     1      -9.862   3.749  65.447  1.00  0.00    -0.175 OA 
BRANCH   6   9
HETATM    9  C   UNL     1      -9.013   4.729  67.502  1.00  0.00    -0.110 C  
HETATM   10  H   UNL     1      -8.520   3.198  68.678  1.00  0.00     0.000 HD 
HETATM   11  O   UNL     1      -8.968   3.354  67.855  1.00  0.00    -0.115 OA 
ENDBRANCH   6   9
ENDBRANCH   5   6
ENDBRANCH   2   5
BRANCH   4  12
HETATM   12  C   UNL     1      -7.116   8.171  66.646  1.00  0.00    -0.077 A  
HETATM   13  C   UNL     1      -7.340   9.370  65.961  1.00  0.00    -0.092 A  
HETATM   14  C   UNL     1      -7.336   8.161  68.061  1.00  0.00    -0.096 A  
HETATM   15  C   UNL     1      -8.005   9.244  68.713  1.00  0.00    -0.099 A  
HETATM   16  I   UNL     1      -6.586   6.480  69.194  1.00  0.00    -0.048 I  
HETATM   17  I   UNL     1      -6.207   9.777  64.169  1.00  0.00    -0.135 I  
HETATM   18  C   UNL     1      -8.550  10.249  67.878  1.00  0.00    -0.118 A  
HETATM   19  I   UNL     1     -10.360  11.251  68.496  1.00  0.00    -0.256 I  
HETATM   20  C   UNL     1      -8.140  10.381  66.523  1.00  0.00    -0.122 A  
BRANCH  15  21
HETATM   21  C   UNL     1      -8.205   9.227  70.222  1.00  0.00    -0.172 C  
HETATM   22  O   UNL     1      -7.446   9.915  70.910  1.00  0.00    -0.314 OA 
HETATM   23  N   UNL     1      -9.269   8.537  70.840  1.00  0.00    -0.162 N  
HETATM   24  C   UNL     1      -9.958   7.369  70.302  1.00  0.00    -0.188 C  
BRANCH  23  25
HETATM   25  C   UNL     1      -9.569   8.849  72.260  1.00  0.00    -0.047 C  
BRANCH  25  26
HETATM   26  C   UNL     1      -9.168   7.769  73.287  1.00  0.00    -0.258 C  
HETATM   27  H   UNL     1      -8.062   7.613  74.951  1.00  0.00     0.000 HD 
HETATM   28  O   UNL     1      -8.309   8.278  74.318  1.00  0.00    -0.253 OA 
BRANCH  26  29
HETATM   29  C   UNL     1     -10.396   7.186  74.006  1.00  0.00    -0.201 C  
HETATM   30  H   UNL     1     -11.562   5.610  73.811  1.00  0.00     0.000 HD 
HETATM   31  O   UNL     1     -10.803   5.971  73.367  1.00  0.00    -0.258 OA 
ENDBRANCH  26  29
ENDBRANCH  25  26
ENDBRANCH  23  25
ENDBRANCH  15  21
BRANCH  20  32
HETATM   32  N   UNL     1      -8.577  11.434  65.666  1.00  0.00    -0.382 N  
HETATM   33  C   UNL     1      -9.744  11.344  64.919  1.00  0.00    -0.247 C  
HETATM   34  H   UNL     1      -8.012  12.281  65.600  1.00  0.00     0.000 HD 
HETATM   35  H   UNL     1      -9.916  14.723  66.671  1.00  0.00     0.000 HD 
HETATM   36  H   UNL     1     -13.013  11.809  62.937  1.00  0.00     0.000 HD 
HETATM   37  C   UNL     1     -10.106  12.650  64.203  1.00  0.00    -0.293 C  
HETATM   38  O   UNL     1     -10.464  10.348  64.881  1.00  0.00    -0.263 OA 
HETATM   39  O   UNL     1     -12.378  11.970  63.626  1.00  0.00    -0.519 OA 
HETATM   40  O   UNL     1      -9.580  14.085  66.053  1.00  0.00    -0.275 OA 
HETATM   41  C   UNL     1     -10.646  13.676  65.196  1.00  0.00    -0.361 C  
HETATM   42  C   UNL     1     -11.125  12.391  63.098  1.00  0.00    -0.090 C  
ENDBRANCH  20  32
ENDBRANCH   4  12
TORSDOF 9
ENDMDL
MODEL       49
REMARK 921   NORMALIZED FREE ENERGY PREDICTED BY IDOCK:   -3.59 KCAL/MOL
REMARK 922        TOTAL FREE ENERGY PREDICTED BY IDOCK:   -6.78 KCAL/MOL
REMARK 923 INTER-LIGAND FREE ENERGY PREDICTED BY IDOCK:   -5.39 KCAL/MOL
REMARK 924 INTRA-LIGAND FREE ENERGY PREDICTED BY IDOCK:   -1.39 KCAL/MOL
REMARK 927      BINDING AFFINITY PREDICTED BY RF-SCORE:    0.00 PKD
ROOT
HETATM    1  C   UNL     1      -9.787   4.890  65.346  1.00  0.00    -0.048 C  
HETATM    2  N   UNL     1      -9.170   5.826  66.285  1.00  0.00    -0.156 N  
HETATM    3  O   UNL     1     -11.265   6.672  66.785  1.00  0.00    -0.333 OA 
HETATM    4  C   UNL     1     -10.049   6.732  66.928  1.00  0.00    -0.202 C  
ENDROOT
BRANCH   2   5
HETATM    5  C   UNL     1      -7.771   5.539  66.654  1.00  0.00    -0.100 C  
BRANCH   5   6
HETATM    6  C   UNL     1      -6.672   6.505  66.210  1.00  0.00    -0.053 C  
HETATM    7  H   UNL     1      -5.496   7.853  67.049  1.00  0.00     0.000 HD 
HETATM    8  O   UNL     1      -6.178   7.253  67.325  1.00  0.00    -0.048 OA 
BRANCH   6   9
HETATM    9  C   UNL     1      -5.522   5.666  65.606  1.00  0.00    -0.013 C  
HETATM   10  H   UNL     1      -5.151   3.780  65.086  1.00  0.00     0.000 HD 
HETATM   11  O   UNL     1      -5.857   4.294  65.457  1.00  0.00    -0.021 OA 
ENDBRANCH   6   9
ENDBRANCH   5   6
ENDBRANCH   2   5
BRANCH   4  12
HETATM   12  C   UNL     1      -9.533   7.797  67.853  1.00  0.00    -0.158 A  
HETATM   13  C   UNL     1      -9.494   7.532  69.226  1.00  0.00    -0.154 A  
HETATM   14  C   UNL     1      -9.145   9.104  67.416  1.00  0.00    -0.127 A  
HETATM   15  C   UNL     1      -8.495  10.019  68.304  1.00  0.00    -0.111 A  
HETATM   16  I   UNL     1      -9.611   9.676  65.384  1.00  0.00    -0.139 I  
HETATM   17  I   UNL     1     -10.864   6.080  70.050  1.00  0.00    -0.392 I  
HETATM   18  C   UNL     1      -8.140   9.520  69.580  1.00  0.00    -0.117 A  
HETATM   19  I   UNL     1      -6.358  10.277  70.537  1.00  0.00     0.043 I  
HETATM   20  C   UNL     1      -8.719   8.326  70.090  1.00  0.00    -0.133 A  
BRANCH  15  21
HETATM   21  C   UNL     1      -8.115  11.413  67.827  1.00  0.00    -0.121 C  
HETATM   22  O   UNL     1      -6.965  11.584  67.413  1.00  0.00    -0.093 OA 
HETATM   23  N   UNL     1      -9.044  12.473  67.756  1.00  0.00    -0.183 N  
HETATM   24  C   UNL     1     -10.247  12.610  68.569  1.00  0.00    -0.201 C  
BRANCH  23  25
HETATM   25  C   UNL     1      -8.665  13.679  66.977  1.00  0.00    -0.192 C  
BRANCH  25  26
HETATM   26  C   UNL     1      -9.791  14.707  66.737  1.00  0.00    -0.255 C  
HETATM   27  H   UNL     1     -10.057  16.691  66.817  1.00  0.00     0.000 HD 
HETATM   28  O   UNL     1      -9.365  16.058  66.966  1.00  0.00    -0.210 OA 
BRANCH  26  29
HETATM   29  C   UNL     1     -10.300  14.661  65.286  1.00  0.00    -0.399 C  
HETATM   30  H   UNL     1     -11.001  15.946  63.968  1.00  0.00     0.000 HD 
HETATM   31  O   UNL     1     -10.687  15.973  64.864  1.00  0.00    -0.576 OA 
ENDBRANCH  26  29
ENDBRANCH  25  26
ENDBRANCH  23  25
ENDBRANCH  15  21
BRANCH  20  32
HETATM   32  N   UNL     1      -8.477   7.832  71.406  1.00  0.00    -0.113 N  
HETATM   33  C   UNL     1      -7.472   6.914  71.679  1.00  0.00    -0.085 C  
HETATM   34  H   UNL     1      -9.063   8.165  72.172  1.00  0.00     0.000 HD 
HETATM   35  H   UNL     1      -7.047   9.684  74.260  1.00  0.00     0.000 HD 
HETATM   36  H   UNL     1      -4.650   4.696  73.077  1.00  0.00     0.000 HD 
HETATM   37  C   UNL     1      -7.282   6.652  73.177  1.00  0.00    -0.077 C  
HETATM   38  O   UNL     1      -6.749   6.408  70.823  1.00  0.00    -0.054 OA 
HETATM   39  O   UNL     1      -5.146   5.495  72.937  1.00  0.00    -0.016 OA 
HETATM   40  O   UNL     1      -7.480   8.948  73.844  1.00  0.00    -0.402 OA 
HETATM   41  C   UNL     1      -6.587   7.835  73.846  1.00  0.00    -0.089 C  
HETATM   42  C   UNL     1      -6.486   5.370  73.401  1.00  0.00    -0.063 C  
ENDBRANCH  20  32
ENDBRANCH   4  12
TORSDOF 9
ENDMDL
MODEL       50
REMARK 921   NORMALIZED FREE ENERGY PREDICTED BY IDOCK:   -3.59 KCAL/MOL
REMARK 922        TOTAL FREE ENERGY PREDICTED BY IDOCK:   -6.78 KCAL/MOL
REMARK 923 INTER-LIGAND FREE ENERGY PREDICTED BY IDOCK:   -5.31 KCAL/MOL
REMARK 924 INTRA-LIGAND FREE ENERGY PREDICTED BY IDOCK:   -1.47 KCAL/MOL
REMARK 927      BINDING AFFINITY PREDICTED BY RF-SCORE:    0.00 PKD
ROOT
HETATM    1  C   UNL     1      -9.543   6.606  74.403  1.00  0.00    -0.278 C  
HETATM    2  N   UNL     1      -9.444   7.084  73.025  1.00  0.00    -0.144 N  
HETATM    3  O   UNL     1     -11.195   5.689  72.438  1.00  0.00    -0.268 OA 
HETATM    4  C   UNL     1     -10.329   6.486  72.094  1.00  0.00    -0.198 C  
ENDROOT
BRANCH   2   5
HETATM    5  C   UNL     1      -8.641   8.305  72.823  1.00  0.00    -0.203 C  
BRANCH   5   6
HETATM    6  C   UNL     1      -7.169   8.170  72.432  1.00  0.00    -0.100 C  
HETATM    7  H   UNL     1      -5.810   6.737  72.356  1.00  0.00     0.000 HD 
HETATM    8  O   UNL     1      -6.725   6.821  72.599  1.00  0.00    -0.062 OA 
BRANCH   6   9
HETATM    9  C   UNL     1      -7.036   8.573  70.944  1.00  0.00    -0.063 C  
HETATM   10  H   UNL     1      -7.247  10.191  69.801  1.00  0.00     0.000 HD 
HETATM   11  O   UNL     1      -7.329   9.944  70.715  1.00  0.00    -0.312 OA 
ENDBRANCH   6   9
ENDBRANCH   5   6
ENDBRANCH   2   5
BRANCH   4  12
HETATM   12  C   UNL     1     -10.273   6.828  70.633  1.00  0.00    -0.216 A  
HETATM   13  C   UNL     1     -11.099   7.848  70.151  1.00  0.00    -0.201 A  
HETATM   14  C   UNL     1      -9.470   6.117  69.684  1.00  0.00    -0.145 A  
HETATM   15  C   UNL     1      -9.315   6.591  68.343  1.00  0.00    -0.122 A  
HETATM   16  I   UNL     1      -8.535   4.275  70.322  1.00  0.00    -0.118 I  
HETATM   17  I   UNL     1     -12.928   8.299  71.206  1.00  0.00     0.035 I  
HETATM   18  C   UNL     1      -9.878   7.855  68.048  1.00  0.00    -0.165 A  
HETATM   19  I   UNL     1      -8.902   9.119  66.595  1.00  0.00    -0.185 I  
HETATM   20  C   UNL     1     -10.853   8.443  68.900  1.00  0.00     0.034 A  
BRANCH  15  21
HETATM   21  C   UNL     1      -8.479   5.805  67.342  1.00  0.00    -0.103 C  
HETATM   22  O   UNL     1      -7.258   5.983  67.349  1.00  0.00    -0.073 OA 
HETATM   23  N   UNL     1      -9.034   4.829  66.488  1.00  0.00    -0.111 N  
HETATM   24  C   UNL     1     -10.416   4.789  66.019  1.00  0.00    -0.292 C  
BRANCH  23  25
HETATM   25  C   UNL     1      -8.105   3.899  65.798  1.00  0.00    -0.097 C  
BRANCH  25  26
HETATM   26  C   UNL     1      -7.608   4.351  64.408  1.00  0.00    -0.072 C  
HETATM   27  H   UNL     1      -6.062   5.350  63.617  1.00  0.00     0.000 HD 
HETATM   28  O   UNL     1      -6.369   5.072  64.472  1.00  0.00    -0.032 OA 
BRANCH  26  29
HETATM   29  C   UNL     1      -7.354   3.151  63.480  1.00  0.00    -0.057 C  
HETATM   30  H   UNL     1      -6.400   2.818  61.789  1.00  0.00     0.000 HD 
HETATM   31  O   UNL     1      -6.557   3.559  62.363  1.00  0.00    -0.021 OA 
ENDBRANCH  26  29
ENDBRANCH  25  26
ENDBRANCH  23  25
ENDBRANCH  15  21
BRANCH  20  32
HETATM   32  N   UNL     1     -11.529   9.662  68.601  1.00  0.00    -0.423 N  
HETATM   33  C   UNL     1     -11.105  10.886  69.104  1.00  0.00    -0.245 C  
HETATM   34  H   UNL     1     -12.351   9.635  67.998  1.00  0.00     0.000 HD 
HETATM   35  H   UNL     1     -11.605  11.442  65.369  1.00  0.00     0.000 HD 
HETATM   36  H   UNL     1     -10.195  14.545  69.885  1.00  0.00     0.000 HD 
HETATM   37  C   UNL     1     -11.872  12.078  68.523  1.00  0.00    -0.369 C  
HETATM   38  O   UNL     1     -10.164  11.022  69.884  1.00  0.00     0.084 OA 
HETATM   39  O   UNL     1     -10.321  13.772  69.348  1.00  0.00     0.033 OA 
HETATM   40  O   UNL     1     -11.878  11.272  66.263  1.00  0.00    -0.142 OA 
HETATM   41  C   UNL     1     -11.434  12.350  67.086  1.00  0.00    -0.357 C  
HETATM   42  C   UNL     1     -11.670  13.319  69.386  1.00  0.00    -0.325 C  
ENDBRANCH  20  32
ENDBRANCH   4  12
TORSDOF 9
ENDMDL
MODEL       51
REMARK 921   NORMALIZED FREE ENERGY PREDICTED BY IDOCK:   -3.57 KCAL/MOL
REMARK 922        TOTAL FREE ENERGY PREDICTED BY IDOCK:   -6.74 KCAL/MOL
REMARK 923 INTER-LIGAND FREE ENERGY PREDICTED BY IDOCK:   -6.14 KCAL/MOL
REMARK 924 INTRA-LIGAND FREE ENERGY PREDICTED BY IDOCK:   -0.60 KCAL/MOL
REMARK 927      BINDING AFFINITY PREDICTED BY RF-SCORE:    0.00 PKD
ROOT
HETATM    1  C   UNL     1      -5.843  16.483  69.060  1.00  0.00    -0.145 C  
HETATM    2  N   UNL     1      -6.641  15.521  68.301  1.00  0.00    -0.116 N  
HETATM    3  O   UNL     1      -6.783  14.183  70.183  1.00  0.00    -0.083 OA 
HETATM    4  C   UNL     1      -7.021  14.344  68.991  1.00  0.00    -0.114 C  
ENDROOT
BRANCH   2   5
HETATM    5  C   UNL     1      -7.181  16.005  67.016  1.00  0.00    -0.213 C  
BRANCH   5   6
HETATM    6  C   UNL     1      -7.373  17.508  66.809  1.00  0.00    -0.215 C  
HETATM    7  H   UNL     1      -7.146  18.813  65.343  1.00  0.00     0.000 HD 
HETATM    8  O   UNL     1      -7.027  17.880  65.471  1.00  0.00    -0.456 OA 
BRANCH   6   9
HETATM    9  C   UNL     1      -8.864  17.833  67.061  1.00  0.00    -0.252 C  
HETATM   10  H   UNL     1     -10.451  18.485  66.049  1.00  0.00     0.000 HD 
HETATM   11  O   UNL     1      -9.536  18.286  65.894  1.00  0.00    -0.508 OA 
ENDBRANCH   6   9
ENDBRANCH   5   6
ENDBRANCH   2   5
BRANCH   4  12
HETATM   12  C   UNL     1      -7.770  13.241  68.301  1.00  0.00    -0.141 A  
HETATM   13  C   UNL     1      -9.102  13.463  67.934  1.00  0.00    -0.208 A  
HETATM   14  C   UNL     1      -7.221  11.941  68.060  1.00  0.00    -0.090 A  
HETATM   15  C   UNL     1      -7.908  10.987  67.245  1.00  0.00    -0.122 A  
HETATM   16  I   UNL     1      -5.343  11.441  69.005  1.00  0.00    -0.043 I  
HETATM   17  I   UNL     1     -10.262  14.915  69.033  1.00  0.00    -0.192 I  
HETATM   18  C   UNL     1      -9.076  11.439  66.587  1.00  0.00    -0.181 A  
HETATM   19  I   UNL     1      -9.568  10.618  64.651  1.00  0.00    -0.416 I  
HETATM   20  C   UNL     1      -9.739  12.628  66.998  1.00  0.00    -0.225 A  
BRANCH  15  21
HETATM   21  C   UNL     1      -7.319   9.601  67.023  1.00  0.00    -0.087 C  
HETATM   22  O   UNL     1      -6.422   9.485  66.184  1.00  0.00    -0.067 OA 
HETATM   23  N   UNL     1      -7.694   8.482  67.798  1.00  0.00    -0.101 N  
HETATM   24  C   UNL     1      -8.973   8.303  68.477  1.00  0.00    -0.137 C  
BRANCH  23  25
HETATM   25  C   UNL     1      -6.838   7.272  67.731  1.00  0.00    -0.070 C  
BRANCH  25  26
HETATM   26  C   UNL     1      -7.253   6.209  66.691  1.00  0.00    -0.074 C  
HETATM   27  H   UNL     1      -6.445   5.218  65.149  1.00  0.00     0.000 HD 
HETATM   28  O   UNL     1      -6.190   5.872  65.789  1.00  0.00    -0.034 OA 
BRANCH  26  29
HETATM   29  C   UNL     1      -7.672   4.891  67.365  1.00  0.00    -0.091 C  
HETATM   30  H   UNL     1      -7.854   4.211  69.205  1.00  0.00     0.000 HD 
HETATM   31  O   UNL     1      -7.595   5.025  68.788  1.00  0.00    -0.075 OA 
ENDBRANCH  26  29
ENDBRANCH  25  26
ENDBRANCH  23  25
ENDBRANCH  15  21
BRANCH  20  32
HETATM   32  N   UNL     1     -10.973  13.075  66.442  1.00  0.00    -0.278 N  
HETATM   33  C   UNL     1     -11.060  14.218  65.658  1.00  0.00    -0.316 C  
HETATM   34  H   UNL     1     -11.820  12.538  66.627  1.00  0.00     0.000 HD 
HETATM   35  H   UNL     1     -12.893  11.506  63.709  1.00  0.00     0.000 HD 
HETATM   36  H   UNL     1     -11.837  17.038  63.152  1.00  0.00     0.000 HD 
HETATM   37  C   UNL     1     -12.443  14.418  65.029  1.00  0.00    -0.366 C  
HETATM   38  O   UNL     1     -10.113  14.967  65.422  1.00  0.00    -0.346 OA 
HETATM   39  O   UNL     1     -11.733  16.143  63.457  1.00  0.00    -0.568 OA 
HETATM   40  O   UNL     1     -12.759  12.118  64.423  1.00  0.00    -0.466 OA 
HETATM   41  C   UNL     1     -12.660  13.435  63.882  1.00  0.00    -0.111 C  
HETATM   42  C   UNL     1     -12.609  15.853  64.540  1.00  0.00     0.765 C  
ENDBRANCH  20  32
ENDBRANCH   4  12
TORSDOF 9
ENDMDL
MODEL       52
REMARK 921   NORMALIZED FREE ENERGY PREDICTED BY IDOCK:   -3.52 KCAL/MOL
REMARK 922        TOTAL FREE ENERGY PREDICTED BY IDOCK:   -6.68 KCAL/MOL
REMARK 923 INTER-LIGAND FREE ENERGY PREDICTED BY IDOCK:   -5.64 KCAL/MOL
REMARK 924 INTRA-LIGAND FREE ENERGY PREDICTED BY IDOCK:   -1.04 KCAL/MOL
REMARK 927      BINDING AFFINITY PREDICTED BY RF-SCORE:    0.00 PKD
ROOT
HETATM    1  C   UNL     1      -6.213  12.094  67.082  1.00  0.00    -0.143 C  
HETATM    2  N   UNL     1      -7.196  11.059  67.397  1.00  0.00    -0.098 N  
HETATM    3  O   UNL     1      -5.542   9.454  67.190  1.00  0.00    -0.040 OA 
HETATM    4  C   UNL     1      -6.724   9.724  67.369  1.00  0.00    -0.074 C  
ENDROOT
BRANCH   2   5
HETATM    5  C   UNL     1      -8.471  11.535  67.968  1.00  0.00    -0.148 C  
BRANCH   5   6
HETATM    6  C   UNL     1      -9.561  12.046  67.026  1.00  0.00    -0.195 C  
HETATM    7  H   UNL     1     -11.428  11.580  66.575  1.00  0.00     0.000 HD 
HETATM    8  O   UNL     1     -10.750  11.262  67.160  1.00  0.00    -0.225 OA 
BRANCH   6   9
HETATM    9  C   UNL     1      -9.869  13.512  67.412  1.00  0.00    -0.227 C  
HETATM   10  H   UNL     1     -11.438  14.642  67.892  1.00  0.00     0.000 HD 
HETATM   11  O   UNL     1     -11.249  13.742  67.655  1.00  0.00    -0.275 OA 
ENDBRANCH   6   9
ENDBRANCH   5   6
ENDBRANCH   2   5
BRANCH   4  12
HETATM   12  C   UNL     1      -7.651   8.563  67.593  1.00  0.00    -0.098 A  
HETATM   13  C   UNL     1      -8.302   8.002  66.489  1.00  0.00    -0.121 A  
HETATM   14  C   UNL     1      -7.966   8.040  68.888  1.00  0.00    -0.118 A  
HETATM   15  C   UNL     1      -8.710   6.827  69.036  1.00  0.00    -0.130 A  
HETATM   16  I   UNL     1      -7.324   9.162  70.620  1.00  0.00    -0.118 I  
HETATM   17  I   UNL     1      -8.650   9.229  64.746  1.00  0.00    -0.181 I  
HETATM   18  C   UNL     1      -8.997   6.110  67.850  1.00  0.00    -0.112 A  
HETATM   19  I   UNL     1      -9.095   3.955  67.930  1.00  0.00    -0.235 I  
HETATM   20  C   UNL     1      -8.894   6.729  66.573  1.00  0.00    -0.143 A  
BRANCH  15  21
HETATM   21  C   UNL     1      -9.057   6.303  70.422  1.00  0.00    -0.154 C  
HETATM   22  O   UNL     1      -8.148   5.805  71.091  1.00  0.00    -0.113 OA 
HETATM   23  N   UNL     1     -10.340   6.450  70.992  1.00  0.00    -0.202 N  
HETATM   24  C   UNL     1     -11.592   6.581  70.256  1.00  0.00    -0.409 C  
BRANCH  23  25
HETATM   25  C   UNL     1     -10.484   6.209  72.450  1.00  0.00    -0.199 C  
BRANCH  25  26
HETATM   26  C   UNL     1     -10.961   4.798  72.856  1.00  0.00    -0.238 C  
HETATM   27  H   UNL     1     -10.688   2.897  72.284  1.00  0.00     0.000 HD 
HETATM   28  O   UNL     1     -10.395   3.766  72.034  1.00  0.00    -0.131 OA 
BRANCH  26  29
HETATM   29  C   UNL     1     -10.559   4.458  74.301  1.00  0.00    -0.258 C  
HETATM   30  H   UNL     1      -8.973   3.740  75.222  1.00  0.00     0.000 HD 
HETATM   31  O   UNL     1      -9.221   3.950  74.329  1.00  0.00    -0.098 OA 
ENDBRANCH  26  29
ENDBRANCH  25  26
ENDBRANCH  23  25
ENDBRANCH  15  21
BRANCH  20  32
HETATM   32  N   UNL     1      -9.268   6.090  65.355  1.00  0.00    -0.369 N  
HETATM   33  C   UNL     1      -8.375   5.324  64.617  1.00  0.00    -0.141 C  
HETATM   34  H   UNL     1     -10.224   6.199  65.015  1.00  0.00     0.000 HD 
HETATM   35  H   UNL     1     -11.511   3.187  64.951  1.00  0.00     0.000 HD 
HETATM   36  H   UNL     1      -6.482   2.824  62.381  1.00  0.00     0.000 HD 
HETATM   37  C   UNL     1      -9.031   4.597  63.438  1.00  0.00    -0.110 C  
HETATM   38  O   UNL     1      -7.189   5.177  64.907  1.00  0.00    -0.061 OA 
HETATM   39  O   UNL     1      -7.140   3.117  63.002  1.00  0.00    -0.044 OA 
HETATM   40  O   UNL     1     -10.993   3.922  64.643  1.00  0.00    -0.196 OA 
HETATM   41  C   UNL     1      -9.864   3.416  63.932  1.00  0.00    -0.166 C  
HETATM   42  C   UNL     1      -7.976   4.125  62.443  1.00  0.00    -0.066 C  
ENDBRANCH  20  32
ENDBRANCH   4  12
TORSDOF 9
ENDMDL
MODEL       53
REMARK 921   NORMALIZED FREE ENERGY PREDICTED BY IDOCK:   -3.51 KCAL/MOL
REMARK 922        TOTAL FREE ENERGY PREDICTED BY IDOCK:   -6.65 KCAL/MOL
REMARK 923 INTER-LIGAND FREE ENERGY PREDICTED BY IDOCK:   -6.29 KCAL/MOL
REMARK 924 INTRA-LIGAND FREE ENERGY PREDICTED BY IDOCK:   -0.36 KCAL/MOL
REMARK 927      BINDING AFFINITY PREDICTED BY RF-SCORE:    0.00 PKD
ROOT
HETATM    1  C   UNL     1      -9.650   8.269  73.561  1.00  0.00     0.177 C  
HETATM    2  N   UNL     1      -9.442   8.496  72.132  1.00  0.00    -0.284 N  
HETATM    3  O   UNL     1     -11.725   8.325  71.793  1.00  0.00    -0.270 OA 
HETATM    4  C   UNL     1     -10.601   8.449  71.319  1.00  0.00    -0.222 C  
ENDROOT
BRANCH   2   5
HETATM    5  C   UNL     1      -8.114   9.013  71.749  1.00  0.00     0.150 C  
BRANCH   5   6
HETATM    6  C   UNL     1      -6.864   8.274  72.225  1.00  0.00    -0.088 C  
HETATM    7  H   UNL     1      -5.670   8.303  73.800  1.00  0.00     0.000 HD 
HETATM    8  O   UNL     1      -6.447   8.762  73.504  1.00  0.00    -0.254 OA 
BRANCH   6   9
HETATM    9  C   UNL     1      -7.216   6.773  72.339  1.00  0.00    -0.086 C  
HETATM   10  H   UNL     1      -7.233   5.334  73.717  1.00  0.00     0.000 HD 
HETATM   11  O   UNL     1      -7.017   6.256  73.647  1.00  0.00    -0.081 OA 
ENDBRANCH   6   9
ENDBRANCH   5   6
ENDBRANCH   2   5
BRANCH   4  12
HETATM   12  C   UNL     1     -10.514   8.584  69.826  1.00  0.00    -0.220 A  
HETATM   13  C   UNL     1     -10.748   9.837  69.251  1.00  0.00    -0.224 A  
HETATM   14  C   UNL     1     -10.275   7.481  68.944  1.00  0.00    -0.208 A  
HETATM   15  C   UNL     1     -10.024   7.689  67.551  1.00  0.00    -0.233 A  
HETATM   16  I   UNL     1     -10.350   5.485  69.769  1.00  0.00    -0.317 I  
HETATM   17  I   UNL     1     -11.989  11.255  70.305  1.00  0.00    -0.381 I  
HETATM   18  C   UNL     1      -9.892   9.031  67.123  1.00  0.00    -0.203 A  
HETATM   19  I   UNL     1      -8.547   9.480  65.494  1.00  0.00    -0.220 I  
HETATM   20  C   UNL     1     -10.350  10.109  67.929  1.00  0.00    -0.194 A  
BRANCH  15  21
HETATM   21  C   UNL     1      -9.799   6.501  66.625  1.00  0.00    -0.148 C  
HETATM   22  O   UNL     1     -10.790   5.992  66.093  1.00  0.00     0.015 OA 
HETATM   23  N   UNL     1      -8.512   6.032  66.288  1.00  0.00    -0.125 N  
HETATM   24  C   UNL     1      -7.309   6.176  67.103  1.00  0.00    -0.076 C  
BRANCH  23  25
HETATM   25  C   UNL     1      -8.389   5.102  65.139  1.00  0.00    -0.141 C  
BRANCH  25  26
HETATM   26  C   UNL     1      -8.010   5.746  63.788  1.00  0.00    -0.120 C  
HETATM   27  H   UNL     1      -6.445   5.806  62.539  1.00  0.00     0.000 HD 
HETATM   28  O   UNL     1      -6.679   5.410  63.370  1.00  0.00    -0.032 OA 
BRANCH  26  29
HETATM   29  C   UNL     1      -8.941   5.280  62.656  1.00  0.00     0.051 C  
HETATM   30  H   UNL     1      -9.366   3.582  61.751  1.00  0.00     0.000 HD 
HETATM   31  O   UNL     1      -8.790   3.871  62.451  1.00  0.00    -0.085 OA 
ENDBRANCH  26  29
ENDBRANCH  25  26
ENDBRANCH  23  25
ENDBRANCH  15  21
BRANCH  20  32
HETATM   32  N   UNL     1     -10.337  11.471  67.507  1.00  0.00    -0.190 N  
HETATM   33  C   UNL     1     -11.183  11.946  66.514  1.00  0.00    -0.327 C  
HETATM   34  H   UNL     1      -9.684  12.117  67.950  1.00  0.00     0.000 HD 
HETATM   35  H   UNL     1     -11.521  14.409  69.400  1.00  0.00     0.000 HD 
HETATM   36  H   UNL     1     -13.503  13.882  64.126  1.00  0.00     0.000 HD 
HETATM   37  C   UNL     1     -11.118  13.467  66.339  1.00  0.00    -0.312 C  
HETATM   38  O   UNL     1     -11.965  11.241  65.878  1.00  0.00     0.107 OA 
HETATM   39  O   UNL     1     -13.124  13.625  64.959  1.00  0.00    -0.742 OA 
HETATM   40  O   UNL     1     -11.077  13.970  68.684  1.00  0.00    -0.243 OA 
HETATM   41  C   UNL     1     -11.831  14.172  67.489  1.00  0.00    -0.401 C  
HETATM   42  C   UNL     1     -11.725  13.880  65.002  1.00  0.00    -0.359 C  
ENDBRANCH  20  32
ENDBRANCH   4  12
TORSDOF 9
ENDMDL
MODEL       54
REMARK 921   NORMALIZED FREE ENERGY PREDICTED BY IDOCK:   -3.49 KCAL/MOL
REMARK 922        TOTAL FREE ENERGY PREDICTED BY IDOCK:   -6.63 KCAL/MOL
REMARK 923 INTER-LIGAND FREE ENERGY PREDICTED BY IDOCK:   -7.35 KCAL/MOL
REMARK 924 INTRA-LIGAND FREE ENERGY PREDICTED BY IDOCK:    0.72 KCAL/MOL
REMARK 927      BINDING AFFINITY PREDICTED BY RF-SCORE:    0.00 PKD
ROOT
HETATM    1  C   UNL     1      -9.569  16.187  67.588  1.00  0.00    -0.222 C  
HETATM    2  N   UNL     1      -9.579  14.729  67.697  1.00  0.00    -0.207 N  
HETATM    3  O   UNL     1     -11.880  14.747  67.450  1.00  0.00    -0.377 OA 
HETATM    4  C   UNL     1     -10.853  14.111  67.661  1.00  0.00    -0.260 C  
ENDROOT
BRANCH   2   5
HETATM    5  C   UNL     1      -8.270  14.063  67.556  1.00  0.00    -0.186 C  
BRANCH   5   6
HETATM    6  C   UNL     1      -7.545  13.577  68.811  1.00  0.00    -0.066 C  
HETATM    7  H   UNL     1      -6.287  12.131  69.294  1.00  0.00     0.000 HD 
HETATM    8  O   UNL     1      -6.737  12.433  68.514  1.00  0.00    -0.066 OA 
BRANCH   6   9
HETATM    9  C   UNL     1      -6.639  14.727  69.310  1.00  0.00    -0.128 C  
HETATM   10  H   UNL     1      -5.324  15.081  70.764  1.00  0.00     0.000 HD 
HETATM   11  O   UNL     1      -5.880  14.374  70.457  1.00  0.00    -0.143 OA 
ENDBRANCH   6   9
ENDBRANCH   5   6
ENDBRANCH   2   5
BRANCH   4  12
HETATM   12  C   UNL     1     -11.008  12.628  67.845  1.00  0.00    -0.262 A  
HETATM   13  C   UNL     1     -10.742  11.787  66.760  1.00  0.00    -0.253 A  
HETATM   14  C   UNL     1     -11.486  12.027  69.053  1.00  0.00    -0.300 A  
HETATM   15  C   UNL     1     -11.446  10.609  69.239  1.00  0.00    -0.351 A  
HETATM   16  I   UNL     1     -12.315  13.320  70.573  1.00  0.00    -0.101 I  
HETATM   17  I   UNL     1     -10.950  12.565  64.757  1.00  0.00    -0.420 I  
HETATM   18  C   UNL     1     -10.793   9.855  68.236  1.00  0.00    -0.230 A  
HETATM   19  I   UNL     1      -9.742   8.055  68.799  1.00  0.00    -0.178 I  
HETATM   20  C   UNL     1     -10.531  10.409  66.952  1.00  0.00    -0.240 A  
BRANCH  15  21
HETATM   21  C   UNL     1     -11.984   9.987  70.520  1.00  0.00    -0.272 C  
HETATM   22  O   UNL     1     -13.194  10.087  70.743  1.00  0.00    -0.348 OA 
HETATM   23  N   UNL     1     -11.176   9.233  71.398  1.00  0.00    -0.335 N  
HETATM   24  C   UNL     1      -9.732   9.368  71.559  1.00  0.00     0.050 C  
BRANCH  23  25
HETATM   25  C   UNL     1     -11.852   8.403  72.425  1.00  0.00    -0.384 C  
BRANCH  25  26
HETATM   26  C   UNL     1     -12.205   6.961  72.001  1.00  0.00    -0.282 C  
HETATM   27  H   UNL     1     -12.773   5.976  70.352  1.00  0.00     0.000 HD 
HETATM   28  O   UNL     1     -12.556   6.863  70.613  1.00  0.00    -0.278 OA 
BRANCH  26  29
HETATM   29  C   UNL     1     -11.020   6.003  72.208  1.00  0.00    -0.265 C  
HETATM   30  H   UNL     1     -10.695   4.299  73.141  1.00  0.00     0.000 HD 
HETATM   31  O   UNL     1     -11.427   4.891  73.012  1.00  0.00    -0.293 OA 
ENDBRANCH  26  29
ENDBRANCH  25  26
ENDBRANCH  23  25
ENDBRANCH  15  21
BRANCH  20  32
HETATM   32  N   UNL     1      -9.971   9.667  65.872  1.00  0.00    -0.294 N  
HETATM   33  C   UNL     1      -8.668   9.864  65.435  1.00  0.00    -0.155 C  
HETATM   34  H   UNL     1     -10.548   8.967  65.404  1.00  0.00     0.000 HD 
HETATM   35  H   UNL     1      -9.037   6.096  65.861  1.00  0.00     0.000 HD 
HETATM   36  H   UNL     1      -5.075   9.711  64.057  1.00  0.00     0.000 HD 
HETATM   37  C   UNL     1      -8.222   8.847  64.379  1.00  0.00    -0.164 C  
HETATM   38  O   UNL     1      -7.910  10.719  65.890  1.00  0.00    -0.158 OA 
HETATM   39  O   UNL     1      -5.850   9.403  64.513  1.00  0.00    -0.067 OA 
HETATM   40  O   UNL     1      -9.202   6.942  65.461  1.00  0.00     0.108 OA 
HETATM   41  C   UNL     1      -7.958   7.487  65.021  1.00  0.00    -0.132 C  
HETATM   42  C   UNL     1      -6.978   9.341  63.648  1.00  0.00    -0.091 C  
ENDBRANCH  20  32
ENDBRANCH   4  12
TORSDOF 9
ENDMDL
MODEL       55
REMARK 921   NORMALIZED FREE ENERGY PREDICTED BY IDOCK:   -3.47 KCAL/MOL
REMARK 922        TOTAL FREE ENERGY PREDICTED BY IDOCK:   -6.60 KCAL/MOL
REMARK 923 INTER-LIGAND FREE ENERGY PREDICTED BY IDOCK:   -5.67 KCAL/MOL
REMARK 924 INTRA-LIGAND FREE ENERGY PREDICTED BY IDOCK:   -0.93 KCAL/MOL
REMARK 927      BINDING AFFINITY PREDICTED BY RF-SCORE:    0.00 PKD
ROOT
HETATM    1  C   UNL     1      -6.537   7.662  64.572  1.00  0.00    -0.048 C  
HETATM    2  N   UNL     1      -7.443   8.368  65.477  1.00  0.00    -0.083 N  
HETATM    3  O   UNL     1      -5.820   8.294  67.125  1.00  0.00    -0.041 OA 
HETATM    4  C   UNL     1      -6.963   8.587  66.792  1.00  0.00    -0.073 C  
ENDROOT
BRANCH   2   5
HETATM    5  C   UNL     1      -8.618   9.000  64.848  1.00  0.00    -0.180 C  
BRANCH   5   6
HETATM    6  C   UNL     1      -8.421  10.253  63.995  1.00  0.00    -0.176 C  
HETATM    7  H   UNL     1      -7.021  11.007  62.821  1.00  0.00     0.000 HD 
HETATM    8  O   UNL     1      -7.144  10.228  63.351  1.00  0.00    -0.137 OA 
BRANCH   6   9
HETATM    9  C   UNL     1      -9.535  10.276  62.923  1.00  0.00    -0.301 C  
HETATM   10  H   UNL     1     -11.256  11.213  62.563  1.00  0.00     0.000 HD 
HETATM   11  O   UNL     1     -10.572  11.199  63.222  1.00  0.00    -0.343 OA 
ENDBRANCH   6   9
ENDBRANCH   5   6
ENDBRANCH   2   5
BRANCH   4  12
HETATM   12  C   UNL     1      -7.826   9.226  67.842  1.00  0.00    -0.092 A  
HETATM   13  C   UNL     1      -8.012  10.612  67.804  1.00  0.00    -0.110 A  
HETATM   14  C   UNL     1      -8.414   8.504  68.930  1.00  0.00    -0.123 A  
HETATM   15  C   UNL     1      -9.368   9.122  69.798  1.00  0.00    -0.190 A  
HETATM   16  I   UNL     1      -7.782   6.463  69.254  1.00  0.00    -0.104 I  
HETATM   17  I   UNL     1      -6.504  11.845  66.873  1.00  0.00     0.224 I  
HETATM   18  C   UNL     1      -9.796  10.425  69.446  1.00  0.00    -0.213 A  
HETATM   19  I   UNL     1     -11.820  11.019  69.907  1.00  0.00    -0.487 I  
HETATM   20  C   UNL     1      -9.059  11.217  68.523  1.00  0.00    -0.173 A  
BRANCH  15  21
HETATM   21  C   UNL     1      -9.961   8.346  70.965  1.00  0.00    -0.190 C  
HETATM   22  O   UNL     1      -9.430   8.478  72.071  1.00  0.00    -0.242 OA 
HETATM   23  N   UNL     1     -11.133   7.569  70.845  1.00  0.00    -0.258 N  
HETATM   24  C   UNL     1     -11.624   6.946  69.621  1.00  0.00    -0.095 C  
BRANCH  23  25
HETATM   25  C   UNL     1     -11.807   7.130  72.093  1.00  0.00    -0.277 C  
BRANCH  25  26
HETATM   26  C   UNL     1     -13.156   6.402  71.910  1.00  0.00     0.203 C  
HETATM   27  H   UNL     1     -14.152   4.859  72.710  1.00  0.00     0.000 HD 
HETATM   28  O   UNL     1     -13.322   5.307  72.822  1.00  0.00     0.359 OA 
BRANCH  26  29
HETATM   29  C   UNL     1     -14.346   7.345  72.156  1.00  0.00    -0.186 C  
HETATM   30  H   UNL     1     -14.667   9.035  73.116  1.00  0.00     0.000 HD 
HETATM   31  O   UNL     1     -13.932   8.452  72.963  1.00  0.00    -0.000 OA 
ENDBRANCH  26  29
ENDBRANCH  25  26
ENDBRANCH  23  25
ENDBRANCH  15  21
BRANCH  20  32
HETATM   32  N   UNL     1      -9.383  12.569  68.210  1.00  0.00    -0.236 N  
HETATM   33  C   UNL     1     -10.207  12.905  67.143  1.00  0.00    -0.239 C  
HETATM   34  H   UNL     1      -8.997  13.316  68.789  1.00  0.00     0.000 HD 
HETATM   35  H   UNL     1     -11.566  14.846  70.127  1.00  0.00     0.000 HD 
HETATM   36  H   UNL     1     -12.685  14.393  64.598  1.00  0.00     0.000 HD 
HETATM   37  C   UNL     1     -10.556  14.396  67.093  1.00  0.00    -0.277 C  
HETATM   38  O   UNL     1     -10.677  12.089  66.352  1.00  0.00    -0.242 OA 
HETATM   39  O   UNL     1     -12.349  14.156  65.455  1.00  0.00    -0.426 OA 
HETATM   40  O   UNL     1     -10.935  14.627  69.451  1.00  0.00    -0.248 OA 
HETATM   41  C   UNL     1     -11.570  14.748  68.179  1.00  0.00    -0.332 C  
HETATM   42  C   UNL     1     -11.095  14.776  65.718  1.00  0.00    -0.338 C  
ENDBRANCH  20  32
ENDBRANCH   4  12
TORSDOF 9
ENDMDL
MODEL       56
REMARK 921   NORMALIZED FREE ENERGY PREDICTED BY IDOCK:   -3.46 KCAL/MOL
REMARK 922        TOTAL FREE ENERGY PREDICTED BY IDOCK:   -6.59 KCAL/MOL
REMARK 923 INTER-LIGAND FREE ENERGY PREDICTED BY IDOCK:   -6.12 KCAL/MOL
REMARK 924 INTRA-LIGAND FREE ENERGY PREDICTED BY IDOCK:   -0.46 KCAL/MOL
REMARK 927      BINDING AFFINITY PREDICTED BY RF-SCORE:    0.00 PKD
ROOT
HETATM    1  C   UNL     1     -13.759  14.594  70.953  1.00  0.00    -0.114 C  
HETATM    2  N   UNL     1     -12.343  14.380  70.659  1.00  0.00    -0.328 N  
HETATM    3  O   UNL     1     -12.773  14.751  68.416  1.00  0.00     0.331 OA 
HETATM    4  C   UNL     1     -11.975  14.439  69.293  1.00  0.00    -0.324 C  
ENDROOT
BRANCH   2   5
HETATM    5  C   UNL     1     -11.435  14.400  71.822  1.00  0.00     0.551 C  
BRANCH   5   6
HETATM    6  C   UNL     1     -11.438  15.617  72.747  1.00  0.00    -0.205 C  
HETATM    7  H   UNL     1     -11.906  17.533  72.626  1.00  0.00     0.000 HD 
HETATM    8  O   UNL     1     -11.904  16.777  72.051  1.00  0.00    -0.272 OA 
BRANCH   6   9
HETATM    9  C   UNL     1     -12.390  15.311  73.927  1.00  0.00    -0.626 C  
HETATM   10  H   UNL     1     -13.479  16.296  75.272  1.00  0.00     0.000 HD 
HETATM   11  O   UNL     1     -12.895  16.484  74.548  1.00  0.00    -0.672 OA 
ENDBRANCH   6   9
ENDBRANCH   5   6
ENDBRANCH   2   5
BRANCH   4  12
HETATM   12  C   UNL     1     -10.568  14.155  68.850  1.00  0.00    -0.249 A  
HETATM   13  C   UNL     1      -9.745  15.231  68.499  1.00  0.00    -0.211 A  
HETATM   14  C   UNL     1     -10.038  12.834  68.696  1.00  0.00    -0.124 A  
HETATM   15  C   UNL     1      -8.646  12.619  68.445  1.00  0.00    -0.122 A  
HETATM   16  I   UNL     1     -11.412  11.169  68.805  1.00  0.00    -0.409 I  
HETATM   17  I   UNL     1     -10.657  17.058  67.798  1.00  0.00    -0.217 I  
HETATM   18  C   UNL     1      -7.809  13.760  68.493  1.00  0.00    -0.132 A  
HETATM   19  I   UNL     1      -5.779  13.536  69.193  1.00  0.00    -0.094 I  
HETATM   20  C   UNL     1      -8.350  15.073  68.415  1.00  0.00    -0.154 A  
BRANCH  15  21
HETATM   21  C   UNL     1      -8.108  11.208  68.257  1.00  0.00    -0.131 C  
HETATM   22  O   UNL     1      -7.659  10.628  69.250  1.00  0.00    -0.118 OA 
HETATM   23  N   UNL     1      -8.190  10.519  67.029  1.00  0.00    -0.123 N  
HETATM   24  C   UNL     1      -8.254  11.134  65.707  1.00  0.00    -0.004 C  
BRANCH  23  25
HETATM   25  C   UNL     1      -7.946   9.055  67.034  1.00  0.00    -0.102 C  
BRANCH  25  26
HETATM   26  C   UNL     1      -8.907   8.209  66.172  1.00  0.00    -0.162 C  
HETATM   27  H   UNL     1      -8.812   6.917  64.644  1.00  0.00     0.000 HD 
HETATM   28  O   UNL     1      -8.221   7.438  65.174  1.00  0.00    -0.131 OA 
BRANCH  26  29
HETATM   29  C   UNL     1      -9.692   7.197  67.025  1.00  0.00    -0.170 C  
HETATM   30  H   UNL     1     -10.240   7.025  68.909  1.00  0.00     0.000 HD 
HETATM   31  O   UNL     1      -9.755   7.650  68.382  1.00  0.00    -0.152 OA 
ENDBRANCH  26  29
ENDBRANCH  25  26
ENDBRANCH  23  25
ENDBRANCH  15  21
BRANCH  20  32
HETATM   32  N   UNL     1      -7.552  16.252  68.354  1.00  0.00    -0.159 N  
HETATM   33  C   UNL     1      -7.213  16.856  67.150  1.00  0.00    -0.180 C  
HETATM   34  H   UNL     1      -7.218  16.666  69.225  1.00  0.00     0.000 HD 
HETATM   35  H   UNL     1      -8.527  19.666  69.362  1.00  0.00     0.000 HD 
HETATM   36  H   UNL     1      -6.286  19.142  64.192  1.00  0.00     0.000 HD 
HETATM   37  C   UNL     1      -6.495  18.198  67.327  1.00  0.00    -0.192 C  
HETATM   38  O   UNL     1      -7.514  16.408  66.045  1.00  0.00     0.047 OA 
HETATM   39  O   UNL     1      -6.724  18.888  64.997  1.00  0.00    -0.499 OA 
HETATM   40  O   UNL     1      -7.914  18.992  69.091  1.00  0.00    -0.252 OA 
HETATM   41  C   UNL     1      -7.479  19.281  67.763  1.00  0.00    -0.257 C  
HETATM   42  C   UNL     1      -5.793  18.606  66.036  1.00  0.00    -0.168 C  
ENDBRANCH  20  32
ENDBRANCH   4  12
TORSDOF 9
ENDMDL
MODEL       57
REMARK 921   NORMALIZED FREE ENERGY PREDICTED BY IDOCK:   -3.43 KCAL/MOL
REMARK 922        TOTAL FREE ENERGY PREDICTED BY IDOCK:   -6.53 KCAL/MOL
REMARK 923 INTER-LIGAND FREE ENERGY PREDICTED BY IDOCK:   -5.74 KCAL/MOL
REMARK 924 INTRA-LIGAND FREE ENERGY PREDICTED BY IDOCK:   -0.79 KCAL/MOL
REMARK 927      BINDING AFFINITY PREDICTED BY RF-SCORE:    0.00 PKD
ROOT
HETATM    1  C   UNL     1     -10.948  13.230  68.702  1.00  0.00    -0.264 C  
HETATM    2  N   UNL     1     -10.196  11.993  68.494  1.00  0.00    -0.219 N  
HETATM    3  O   UNL     1     -12.111  10.993  67.664  1.00  0.00    -0.447 OA 
HETATM    4  C   UNL     1     -10.935  10.892  67.996  1.00  0.00    -0.265 C  
ENDROOT
BRANCH   2   5
HETATM    5  C   UNL     1      -8.728  12.114  68.563  1.00  0.00    -0.079 C  
BRANCH   5   6
HETATM    6  C   UNL     1      -8.074  13.452  68.217  1.00  0.00    -0.152 C  
HETATM    7  H   UNL     1      -7.589  15.119  69.160  1.00  0.00     0.000 HD 
HETATM    8  O   UNL     1      -7.996  14.288  69.375  1.00  0.00     0.045 OA 
BRANCH   6   9
HETATM    9  C   UNL     1      -6.647  13.161  67.697  1.00  0.00    -0.162 C  
HETATM   10  H   UNL     1      -5.075  14.157  66.987  1.00  0.00     0.000 HD 
HETATM   11  O   UNL     1      -5.951  14.336  67.306  1.00  0.00    -0.300 OA 
ENDBRANCH   6   9
ENDBRANCH   5   6
ENDBRANCH   2   5
BRANCH   4  12
HETATM   12  C   UNL     1     -10.300   9.543  67.815  1.00  0.00    -0.291 A  
HETATM   13  C   UNL     1     -10.401   8.610  68.853  1.00  0.00    -0.211 A  
HETATM   14  C   UNL     1      -9.530   9.178  66.665  1.00  0.00    -0.185 A  
HETATM   15  C   UNL     1      -9.098   7.830  66.461  1.00  0.00    -0.208 A  
HETATM   16  I   UNL     1      -8.995  10.735  65.265  1.00  0.00    -0.151 I  
HETATM   17  I   UNL     1     -10.666   9.321  70.875  1.00  0.00    -0.434 I  
HETATM   18  C   UNL     1      -9.582   6.863  67.374  1.00  0.00    -0.136 A  
HETATM   19  I   UNL     1      -9.942   4.853  66.673  1.00  0.00    -0.291 I  
HETATM   20  C   UNL     1     -10.143   7.247  68.623  1.00  0.00    -0.176 A  
BRANCH  15  21
HETATM   21  C   UNL     1      -8.257   7.468  65.245  1.00  0.00    -0.129 C  
HETATM   22  O   UNL     1      -8.797   7.524  64.136  1.00  0.00     0.463 OA 
HETATM   23  N   UNL     1      -6.881   7.168  65.333  1.00  0.00    -0.051 N  
HETATM   24  C   UNL     1      -6.197   6.630  66.504  1.00  0.00    -0.041 C  
BRANCH  23  25
HETATM   25  C   UNL     1      -6.090   7.157  64.077  1.00  0.00    -0.040 C  
BRANCH  25  26
HETATM   26  C   UNL     1      -5.409   8.490  63.698  1.00  0.00    -0.058 C  
HETATM   27  H   UNL     1      -5.798  10.116  62.595  1.00  0.00     0.000 HD 
HETATM   28  O   UNL     1      -6.217   9.296  62.828  1.00  0.00    -0.094 OA 
BRANCH  26  29
HETATM   29  C   UNL     1      -5.126   9.354  64.938  1.00  0.00    -0.044 C  
HETATM   30  H   UNL     1      -5.026  11.276  65.358  1.00  0.00     0.000 HD 
HETATM   31  O   UNL     1      -5.201  10.741  64.592  1.00  0.00    -0.152 OA 
ENDBRANCH  26  29
ENDBRANCH  25  26
ENDBRANCH  23  25
ENDBRANCH  15  21
BRANCH  20  32
HETATM   32  N   UNL     1     -10.551   6.317  69.623  1.00  0.00    -0.234 N  
HETATM   33  C   UNL     1      -9.695   5.889  70.630  1.00  0.00    -0.176 C  
HETATM   34  H   UNL     1     -11.504   5.953  69.598  1.00  0.00     0.000 HD 
HETATM   35  H   UNL     1     -12.913   6.910  72.396  1.00  0.00     0.000 HD 
HETATM   36  H   UNL     1      -7.923   4.652  73.818  1.00  0.00     0.000 HD 
HETATM   37  C   UNL     1     -10.389   5.025  71.689  1.00  0.00    -0.262 C  
HETATM   38  O   UNL     1      -8.514   6.220  70.719  1.00  0.00    -0.131 OA 
HETATM   39  O   UNL     1      -8.563   5.131  73.304  1.00  0.00    -0.113 OA 
HETATM   40  O   UNL     1     -12.368   6.374  71.832  1.00  0.00    -0.345 OA 
HETATM   41  C   UNL     1     -11.266   5.885  72.595  1.00  0.00    -0.291 C  
HETATM   42  C   UNL     1      -9.361   4.257  72.513  1.00  0.00    -0.120 C  
ENDBRANCH  20  32
ENDBRANCH   4  12
TORSDOF 9
ENDMDL
MODEL       58
REMARK 921   NORMALIZED FREE ENERGY PREDICTED BY IDOCK:   -3.42 KCAL/MOL
REMARK 922        TOTAL FREE ENERGY PREDICTED BY IDOCK:   -6.51 KCAL/MOL
REMARK 923 INTER-LIGAND FREE ENERGY PREDICTED BY IDOCK:   -5.24 KCAL/MOL
REMARK 924 INTRA-LIGAND FREE ENERGY PREDICTED BY IDOCK:   -1.27 KCAL/MOL
REMARK 927      BINDING AFFINITY PREDICTED BY RF-SCORE:    0.00 PKD
ROOT
HETATM    1  C   UNL     1      -9.218   9.640  62.347  1.00  0.00    -0.223 C  
HETATM    2  N   UNL     1      -8.947   9.647  63.784  1.00  0.00    -0.234 N  
HETATM    3  O   UNL     1      -7.498   7.866  63.499  1.00  0.00    -0.103 OA 
HETATM    4  C   UNL     1      -8.074   8.638  64.257  1.00  0.00    -0.158 C  
ENDROOT
BRANCH   2   5
HETATM    5  C   UNL     1      -9.388  10.850  64.516  1.00  0.00    -0.223 C  
BRANCH   5   6
HETATM    6  C   UNL     1     -10.642  10.772  65.386  1.00  0.00    -0.154 C  
HETATM    7  H   UNL     1     -11.107  10.190  67.217  1.00  0.00     0.000 HD 
HETATM    8  O   UNL     1     -10.328  10.238  66.676  1.00  0.00    -0.227 OA 
BRANCH   6   9
HETATM    9  C   UNL     1     -11.195  12.208  65.547  1.00  0.00    -0.334 C  
HETATM   10  H   UNL     1     -12.388  13.229  66.773  1.00  0.00     0.000 HD 
HETATM   11  O   UNL     1     -12.049  12.348  66.674  1.00  0.00    -0.592 OA 
ENDBRANCH   6   9
ENDBRANCH   5   6
ENDBRANCH   2   5
BRANCH   4  12
HETATM   12  C   UNL     1      -7.779   8.484  65.722  1.00  0.00    -0.098 A  
HETATM   13  C   UNL     1      -6.900   9.388  66.328  1.00  0.00    -0.086 A  
HETATM   14  C   UNL     1      -8.293   7.415  66.525  1.00  0.00    -0.124 A  
HETATM   15  C   UNL     1      -8.129   7.413  67.946  1.00  0.00    -0.119 A  
HETATM   16  I   UNL     1      -9.282   5.777  65.522  1.00  0.00     0.306 I  
HETATM   17  I   UNL     1      -5.409  10.370  65.113  1.00  0.00    -0.131 I  
HETATM   18  C   UNL     1      -7.561   8.574  68.522  1.00  0.00    -0.095 A  
HETATM   19  I   UNL     1      -8.196   9.180  70.495  1.00  0.00    -0.209 I  
HETATM   20  C   UNL     1      -6.852   9.518  67.728  1.00  0.00    -0.078 A  
BRANCH  15  21
HETATM   21  C   UNL     1      -8.659   6.254  68.778  1.00  0.00    -0.122 C  
HETATM   22  O   UNL     1      -7.846   5.415  69.177  1.00  0.00    -0.087 OA 
HETATM   23  N   UNL     1     -10.008   6.159  69.180  1.00  0.00    -0.147 N  
HETATM   24  C   UNL     1     -11.149   6.747  68.487  1.00  0.00    -0.142 C  
BRANCH  23  25
HETATM   25  C   UNL     1     -10.349   5.188  70.249  1.00  0.00    -0.261 C  
BRANCH  25  26
HETATM   26  C   UNL     1     -10.337   5.740  71.691  1.00  0.00    -0.214 C  
HETATM   27  H   UNL     1     -11.583   6.671  72.954  1.00  0.00     0.000 HD 
HETATM   28  O   UNL     1     -11.589   6.331  72.067  1.00  0.00    -0.297 OA 
BRANCH  26  29
HETATM   29  C   UNL     1     -10.063   4.631  72.721  1.00  0.00    -0.170 C  
HETATM   30  H   UNL     1     -11.031   3.783  74.211  1.00  0.00     0.000 HD 
HETATM   31  O   UNL     1     -11.200   4.468  73.575  1.00  0.00    -0.305 OA 
ENDBRANCH  26  29
ENDBRANCH  25  26
ENDBRANCH  23  25
ENDBRANCH  15  21
BRANCH  20  32
HETATM   32  N   UNL     1      -6.172  10.649  68.266  1.00  0.00    -0.050 N  
HETATM   33  C   UNL     1      -6.768  11.901  68.345  1.00  0.00    -0.067 C  
HETATM   34  H   UNL     1      -5.217  10.535  68.605  1.00  0.00     0.000 HD 
HETATM   35  H   UNL     1      -5.296  11.257  71.799  1.00  0.00     0.000 HD 
HETATM   36  H   UNL     1      -8.009  15.457  69.149  1.00  0.00     0.000 HD 
HETATM   37  C   UNL     1      -5.923  12.927  69.108  1.00  0.00    -0.086 C  
HETATM   38  O   UNL     1      -7.890  12.160  67.914  1.00  0.00    -0.126 OA 
HETATM   39  O   UNL     1      -7.709  14.574  69.332  1.00  0.00    -0.103 OA 
HETATM   40  O   UNL     1      -5.269  11.430  70.865  1.00  0.00    -0.110 OA 
HETATM   41  C   UNL     1      -5.965  12.649  70.608  1.00  0.00     0.012 C  
HETATM   42  C   UNL     1      -6.403  14.344  68.814  1.00  0.00    -0.086 C  
ENDBRANCH  20  32
ENDBRANCH   4  12
TORSDOF 9
ENDMDL
MODEL       59
REMARK 921   NORMALIZED FREE ENERGY PREDICTED BY IDOCK:   -3.37 KCAL/MOL
REMARK 922        TOTAL FREE ENERGY PREDICTED BY IDOCK:   -6.44 KCAL/MOL
REMARK 923 INTER-LIGAND FREE ENERGY PREDICTED BY IDOCK:   -5.41 KCAL/MOL
REMARK 924 INTRA-LIGAND FREE ENERGY PREDICTED BY IDOCK:   -1.03 KCAL/MOL
REMARK 927      BINDING AFFINITY PREDICTED BY RF-SCORE:    0.00 PKD
ROOT
HETATM    1  C   UNL     1      -7.367  11.760  67.467  1.00  0.00    -0.127 C  
HETATM    2  N   UNL     1      -8.100  10.496  67.516  1.00  0.00    -0.107 N  
HETATM    3  O   UNL     1      -6.171   9.429  68.221  1.00  0.00    -0.052 OA 
HETATM    4  C   UNL     1      -7.344   9.352  67.875  1.00  0.00    -0.083 C  
ENDROOT
BRANCH   2   5
HETATM    5  C   UNL     1      -9.570  10.601  67.458  1.00  0.00    -0.161 C  
BRANCH   5   6
HETATM    6  C   UNL     1     -10.204  11.692  66.595  1.00  0.00    -0.216 C  
HETATM    7  H   UNL     1     -11.070  11.825  64.824  1.00  0.00     0.000 HD 
HETATM    8  O   UNL     1     -10.676  11.147  65.360  1.00  0.00    -0.258 OA 
BRANCH   6   9
HETATM    9  C   UNL     1     -11.395  12.285  67.382  1.00  0.00    -0.325 C  
HETATM   10  H   UNL     1     -12.985  11.654  68.404  1.00  0.00     0.000 HD 
HETATM   11  O   UNL     1     -12.253  11.289  67.920  1.00  0.00    -0.570 OA 
ENDBRANCH   6   9
ENDBRANCH   5   6
ENDBRANCH   2   5
BRANCH   4  12
HETATM   12  C   UNL     1      -7.958   7.981  67.883  1.00  0.00    -0.128 A  
HETATM   13  C   UNL     1      -7.972   7.246  66.693  1.00  0.00    -0.114 A  
HETATM   14  C   UNL     1      -8.600   7.408  69.027  1.00  0.00    -0.133 A  
HETATM   15  C   UNL     1      -9.009   6.037  69.037  1.00  0.00    -0.124 A  
HETATM   16  I   UNL     1      -8.977   8.687  70.728  1.00  0.00    -0.286 I  
HETATM   17  I   UNL     1      -7.926   8.303  64.810  1.00  0.00    -0.127 I  
HETATM   18  C   UNL     1      -8.628   5.253  67.922  1.00  0.00    -0.103 A  
HETATM   19  I   UNL     1      -8.197   3.158  68.216  1.00  0.00    -0.104 I  
HETATM   20  C   UNL     1      -8.206   5.859  66.706  1.00  0.00    -0.105 A  
BRANCH  15  21
HETATM   21  C   UNL     1      -9.714   5.454  70.253  1.00  0.00    -0.192 C  
HETATM   22  O   UNL     1     -10.948   5.469  70.264  1.00  0.00    -0.269 OA 
HETATM   23  N   UNL     1      -9.017   4.824  71.307  1.00  0.00    -0.126 N  
HETATM   24  C   UNL     1      -7.636   5.087  71.695  1.00  0.00    -0.104 C  
BRANCH  23  25
HETATM   25  C   UNL     1      -9.800   4.007  72.267  1.00  0.00    -0.160 C  
BRANCH  25  26
HETATM   26  C   UNL     1      -9.807   2.485  72.007  1.00  0.00    -0.156 C  
HETATM   27  H   UNL     1      -8.566   0.923  72.191  1.00  0.00     0.000 HD 
HETATM   28  O   UNL     1      -8.562   1.860  72.350  1.00  0.00    -0.060 OA 
BRANCH  26  29
HETATM   29  C   UNL     1     -10.885   1.773  72.842  1.00  0.00    -0.144 C  
HETATM   30  H   UNL     1     -12.103   2.241  74.318  1.00  0.00     0.000 HD 
HETATM   31  O   UNL     1     -11.437   2.680  73.801  1.00  0.00    -0.209 OA 
ENDBRANCH  26  29
ENDBRANCH  25  26
ENDBRANCH  23  25
ENDBRANCH  15  21
BRANCH  20  32
HETATM   32  N   UNL     1      -7.910   5.125  65.521  1.00  0.00    -0.090 N  
HETATM   33  C   UNL     1      -8.903   4.555  64.736  1.00  0.00    -0.149 C  
HETATM   34  H   UNL     1      -6.935   5.015  65.239  1.00  0.00     0.000 HD 
HETATM   35  H   UNL     1      -6.667   6.465  62.314  1.00  0.00     0.000 HD 
HETATM   36  H   UNL     1     -11.206   3.099  62.013  1.00  0.00     0.000 HD 
HETATM   37  C   UNL     1      -8.374   3.960  63.426  1.00  0.00    -0.091 C  
HETATM   38  O   UNL     1     -10.101   4.579  65.014  1.00  0.00    -0.163 OA 
HETATM   39  O   UNL     1     -10.569   3.694  62.393  1.00  0.00    -0.173 OA 
HETATM   40  O   UNL     1      -6.885   5.775  62.930  1.00  0.00    -0.037 OA 
HETATM   41  C   UNL     1      -8.022   5.068  62.436  1.00  0.00    -0.074 C  
HETATM   42  C   UNL     1      -9.397   3.006  62.817  1.00  0.00    -0.093 C  
ENDBRANCH  20  32
ENDBRANCH   4  12
TORSDOF 9
ENDMDL
MODEL       60
REMARK 921   NORMALIZED FREE ENERGY PREDICTED BY IDOCK:   -3.36 KCAL/MOL
REMARK 922        TOTAL FREE ENERGY PREDICTED BY IDOCK:   -6.43 KCAL/MOL
REMARK 923 INTER-LIGAND FREE ENERGY PREDICTED BY IDOCK:   -5.89 KCAL/MOL
REMARK 924 INTRA-LIGAND FREE ENERGY PREDICTED BY IDOCK:   -0.54 KCAL/MOL
REMARK 927      BINDING AFFINITY PREDICTED BY RF-SCORE:    0.00 PKD
ROOT
HETATM    1  C   UNL     1     -11.534   5.870  72.491  1.00  0.00    -0.298 C  
HETATM    2  N   UNL     1     -10.645   6.744  71.728  1.00  0.00    -0.212 N  
HETATM    3  O   UNL     1     -11.883   6.309  69.823  1.00  0.00    -0.319 OA 
HETATM    4  C   UNL     1     -10.909   6.843  70.340  1.00  0.00    -0.261 C  
ENDROOT
BRANCH   2   5
HETATM    5  C   UNL     1      -9.765   7.620  72.525  1.00  0.00    -0.184 C  
BRANCH   5   6
HETATM    6  C   UNL     1      -8.597   7.001  73.292  1.00  0.00    -0.125 C  
HETATM    7  H   UNL     1      -7.815   5.204  73.547  1.00  0.00     0.000 HD 
HETATM    8  O   UNL     1      -8.541   5.589  73.071  1.00  0.00    -0.122 OA 
BRANCH   6   9
HETATM    9  C   UNL     1      -7.293   7.653  72.775  1.00  0.00    -0.081 C  
HETATM   10  H   UNL     1      -5.339   7.269  72.725  1.00  0.00     0.000 HD 
HETATM   11  O   UNL     1      -6.139   6.869  73.043  1.00  0.00    -0.056 OA 
ENDBRANCH   6   9
ENDBRANCH   5   6
ENDBRANCH   2   5
BRANCH   4  12
HETATM   12  C   UNL     1     -10.020   7.642  69.431  1.00  0.00    -0.180 A  
HETATM   13  C   UNL     1      -8.999   6.981  68.739  1.00  0.00    -0.131 A  
HETATM   14  C   UNL     1     -10.110   9.064  69.285  1.00  0.00    -0.195 A  
HETATM   15  C   UNL     1      -9.363   9.753  68.278  1.00  0.00    -0.134 A  
HETATM   16  I   UNL     1     -11.372  10.148  70.663  1.00  0.00    -0.326 I  
HETATM   17  I   UNL     1      -8.194   5.153  69.561  1.00  0.00    -0.099 I  
HETATM   18  C   UNL     1      -8.646   8.951  67.359  1.00  0.00    -0.119 A  
HETATM   19  I   UNL     1      -8.412   9.645  65.328  1.00  0.00    -0.215 I  
HETATM   20  C   UNL     1      -8.370   7.583  67.635  1.00  0.00    -0.118 A  
BRANCH  15  21
HETATM   21  C   UNL     1      -9.452  11.268  68.157  1.00  0.00    -0.184 C  
HETATM   22  O   UNL     1      -8.562  11.939  68.687  1.00  0.00    -0.131 OA 
HETATM   23  N   UNL     1     -10.448  11.913  67.393  1.00  0.00    -0.213 N  
HETATM   24  C   UNL     1     -11.771  11.379  67.088  1.00  0.00     0.030 C  
BRANCH  23  25
HETATM   25  C   UNL     1     -10.255  13.349  67.070  1.00  0.00    -0.249 C  
BRANCH  25  26
HETATM   26  C   UNL     1     -11.109  13.898  65.907  1.00  0.00    -0.291 C  
HETATM   27  H   UNL     1     -12.909  14.732  65.628  1.00  0.00     0.000 HD 
HETATM   28  O   UNL     1     -12.383  14.394  66.343  1.00  0.00    -0.409 OA 
BRANCH  26  29
HETATM   29  C   UNL     1     -10.414  15.074  65.200  1.00  0.00    -0.412 C  
HETATM   30  H   UNL     1      -9.007  16.382  65.632  1.00  0.00     0.000 HD 
HETATM   31  O   UNL     1      -9.436  15.655  66.069  1.00  0.00    -0.310 OA 
ENDBRANCH  26  29
ENDBRANCH  25  26
ENDBRANCH  23  25
ENDBRANCH  15  21
BRANCH  20  32
HETATM   32  N   UNL     1      -7.567   6.756  66.796  1.00  0.00    -0.089 N  
HETATM   33  C   UNL     1      -8.106   6.017  65.751  1.00  0.00    -0.123 C  
HETATM   34  H   UNL     1      -6.563   6.705  66.970  1.00  0.00     0.000 HD 
HETATM   35  H   UNL     1      -5.115   7.850  64.264  1.00  0.00     0.000 HD 
HETATM   36  H   UNL     1      -8.960   4.075  62.537  1.00  0.00     0.000 HD 
HETATM   37  C   UNL     1      -7.044   5.335  64.881  1.00  0.00    -0.058 C  
HETATM   38  O   UNL     1      -9.306   5.962  65.492  1.00  0.00    -0.020 OA 
HETATM   39  O   UNL     1      -8.570   4.762  63.065  1.00  0.00    -0.112 OA 
HETATM   40  O   UNL     1      -5.553   7.214  64.818  1.00  0.00    -0.031 OA 
HETATM   41  C   UNL     1      -6.341   6.358  63.992  1.00  0.00    -0.030 C  
HETATM   42  C   UNL     1      -7.671   4.233  64.033  1.00  0.00    -0.083 C  
ENDBRANCH  20  32
ENDBRANCH   4  12
TORSDOF 9
ENDMDL
MODEL       61
REMARK 921   NORMALIZED FREE ENERGY PREDICTED BY IDOCK:   -3.35 KCAL/MOL
REMARK 922        TOTAL FREE ENERGY PREDICTED BY IDOCK:   -6.41 KCAL/MOL
REMARK 923 INTER-LIGAND FREE ENERGY PREDICTED BY IDOCK:   -5.21 KCAL/MOL
REMARK 924 INTRA-LIGAND FREE ENERGY PREDICTED BY IDOCK:   -1.20 KCAL/MOL
REMARK 927      BINDING AFFINITY PREDICTED BY RF-SCORE:    0.00 PKD
ROOT
HETATM    1  C   UNL     1      -8.673   6.388  72.384  1.00  0.00    -0.120 C  
HETATM    2  N   UNL     1      -8.885   7.008  71.077  1.00  0.00    -0.145 N  
HETATM    3  O   UNL     1      -6.678   6.573  70.535  1.00  0.00    -0.053 OA 
HETATM    4  C   UNL     1      -7.750   7.084  70.233  1.00  0.00    -0.099 C  
ENDROOT
BRANCH   2   5
HETATM    5  C   UNL     1     -10.291   7.228  70.690  1.00  0.00    -0.204 C  
BRANCH   5   6
HETATM    6  C   UNL     1     -10.950   8.570  71.012  1.00  0.00    -0.249 C  
HETATM    7  H   UNL     1     -11.598  10.148  70.014  1.00  0.00     0.000 HD 
HETATM    8  O   UNL     1     -11.188   9.314  69.814  1.00  0.00    -0.196 OA 
BRANCH   6   9
HETATM    9  C   UNL     1     -12.299   8.279  71.711  1.00  0.00    -0.328 C  
HETATM   10  H   UNL     1     -13.729   9.264  72.685  1.00  0.00     0.000 HD 
HETATM   11  O   UNL     1     -12.901   9.443  72.256  1.00  0.00    -0.392 OA 
ENDBRANCH   6   9
ENDBRANCH   5   6
ENDBRANCH   2   5
BRANCH   4  12
HETATM   12  C   UNL     1      -7.814   7.772  68.899  1.00  0.00    -0.122 A  
HETATM   13  C   UNL     1      -8.053   6.999  67.757  1.00  0.00    -0.114 A  
HETATM   14  C   UNL     1      -7.571   9.171  68.717  1.00  0.00    -0.083 A  
HETATM   15  C   UNL     1      -7.817   9.807  67.459  1.00  0.00    -0.095 A  
HETATM   16  I   UNL     1      -6.773  10.289  70.385  1.00  0.00     0.165 I  
HETATM   17  I   UNL     1      -7.500   4.911  67.774  1.00  0.00    -0.079 I  
HETATM   18  C   UNL     1      -8.435   9.019  66.459  1.00  0.00    -0.119 A  
HETATM   19  I   UNL     1      -9.773   9.972  65.057  1.00  0.00    -0.142 I  
HETATM   20  C   UNL     1      -8.463   7.600  66.553  1.00  0.00    -0.133 A  
BRANCH  15  21
HETATM   21  C   UNL     1      -7.527  11.291  67.279  1.00  0.00    -0.126 C  
HETATM   22  O   UNL     1      -6.427  11.608  66.818  1.00  0.00    -0.143 OA 
HETATM   23  N   UNL     1      -8.491  12.291  67.528  1.00  0.00    -0.162 N  
HETATM   24  C   UNL     1      -9.616  12.182  68.451  1.00  0.00    -0.186 C  
BRANCH  23  25
HETATM   25  C   UNL     1      -8.225  13.657  67.013  1.00  0.00    -0.037 C  
BRANCH  25  26
HETATM   26  C   UNL     1      -9.390  14.662  67.135  1.00  0.00    -0.223 C  
HETATM   27  H   UNL     1      -9.844  16.317  68.169  1.00  0.00     0.000 HD 
HETATM   28  O   UNL     1      -9.128  15.698  68.093  1.00  0.00    -0.179 OA 
BRANCH  26  29
HETATM   29  C   UNL     1      -9.665  15.376  65.801  1.00  0.00    -0.350 C  
HETATM   30  H   UNL     1     -10.325  14.878  64.014  1.00  0.00     0.000 HD 
HETATM   31  O   UNL     1     -10.155  14.437  64.838  1.00  0.00    -0.379 OA 
ENDBRANCH  26  29
ENDBRANCH  25  26
ENDBRANCH  23  25
ENDBRANCH  15  21
BRANCH  20  32
HETATM   32  N   UNL     1      -8.978   6.752  65.530  1.00  0.00    -0.367 N  
HETATM   33  C   UNL     1      -8.168   6.211  64.540  1.00  0.00    -0.079 C  
HETATM   34  H   UNL     1      -9.975   6.535  65.526  1.00  0.00     0.000 HD 
HETATM   35  H   UNL     1     -10.197   3.289  65.901  1.00  0.00     0.000 HD 
HETATM   36  H   UNL     1      -6.385   4.161  61.811  1.00  0.00     0.000 HD 
HETATM   37  C   UNL     1      -8.896   5.200  63.648  1.00  0.00     0.031 C  
HETATM   38  O   UNL     1      -6.969   6.455  64.421  1.00  0.00    -0.044 OA 
HETATM   39  O   UNL     1      -6.872   4.311  62.613  1.00  0.00    -0.030 OA 
HETATM   40  O   UNL     1     -10.062   4.107  65.437  1.00  0.00    -0.212 OA 
HETATM   41  C   UNL     1      -9.114   3.886  64.393  1.00  0.00    -0.137 C  
HETATM   42  C   UNL     1      -8.114   4.959  62.360  1.00  0.00    -0.080 C  
ENDBRANCH  20  32
ENDBRANCH   4  12
TORSDOF 9
ENDMDL
MODEL       62
REMARK 921   NORMALIZED FREE ENERGY PREDICTED BY IDOCK:   -3.32 KCAL/MOL
REMARK 922        TOTAL FREE ENERGY PREDICTED BY IDOCK:   -6.38 KCAL/MOL
REMARK 923 INTER-LIGAND FREE ENERGY PREDICTED BY IDOCK:   -5.19 KCAL/MOL
REMARK 924 INTRA-LIGAND FREE ENERGY PREDICTED BY IDOCK:   -1.19 KCAL/MOL
REMARK 927      BINDING AFFINITY PREDICTED BY RF-SCORE:    0.00 PKD
ROOT
HETATM    1  C   UNL     1      -8.818  11.760  68.463  1.00  0.00    -0.122 C  
HETATM    2  N   UNL     1      -8.961  10.308  68.548  1.00  0.00    -0.129 N  
HETATM    3  O   UNL     1      -6.657  10.101  68.546  1.00  0.00    -0.052 OA 
HETATM    4  C   UNL     1      -7.757   9.562  68.531  1.00  0.00    -0.081 C  
ENDROOT
BRANCH   2   5
HETATM    5  C   UNL     1     -10.303   9.813  68.912  1.00  0.00    -0.210 C  
BRANCH   5   6
HETATM    6  C   UNL     1     -11.290  10.768  69.583  1.00  0.00    -0.294 C  
HETATM    7  H   UNL     1     -13.020  11.616  69.142  1.00  0.00     0.000 HD 
HETATM    8  O   UNL     1     -12.406  11.023  68.725  1.00  0.00    -0.533 OA 
BRANCH   6   9
HETATM    9  C   UNL     1     -11.788  10.096  70.884  1.00  0.00    -0.374 C  
HETATM   10  H   UNL     1     -12.854  10.560  72.502  1.00  0.00     0.000 HD 
HETATM   11  O   UNL     1     -12.548  10.972  71.703  1.00  0.00    -0.358 OA 
ENDBRANCH   6   9
ENDBRANCH   5   6
ENDBRANCH   2   5
BRANCH   4  12
HETATM   12  C   UNL     1      -7.769   8.060  68.529  1.00  0.00    -0.106 A  
HETATM   13  C   UNL     1      -7.826   7.391  67.302  1.00  0.00    -0.114 A  
HETATM   14  C   UNL     1      -7.798   7.267  69.721  1.00  0.00    -0.117 A  
HETATM   15  C   UNL     1      -7.629   5.847  69.670  1.00  0.00    -0.081 A  
HETATM   16  I   UNL     1      -8.154   8.272  71.601  1.00  0.00    -0.203 I  
HETATM   17  I   UNL     1      -8.711   8.393  65.606  1.00  0.00    -0.114 I  
HETATM   18  C   UNL     1      -7.299   5.292  68.411  1.00  0.00    -0.071 A  
HETATM   19  I   UNL     1      -6.033   3.545  68.339  1.00  0.00    -0.025 I  
HETATM   20  C   UNL     1      -7.495   6.027  67.209  1.00  0.00    -0.081 A  
BRANCH  15  21
HETATM   21  C   UNL     1      -7.690   5.020  70.946  1.00  0.00    -0.083 C  
HETATM   22  O   UNL     1      -6.716   5.058  71.703  1.00  0.00    -0.043 OA 
HETATM   23  N   UNL     1      -8.840   4.299  71.331  1.00  0.00    -0.110 N  
HETATM   24  C   UNL     1      -9.862   3.776  70.430  1.00  0.00    -0.065 C  
BRANCH  23  25
HETATM   25  C   UNL     1      -8.916   3.806  72.729  1.00  0.00    -0.097 C  
BRANCH  25  26
HETATM   26  C   UNL     1     -10.336   3.675  73.321  1.00  0.00    -0.163 C  
HETATM   27  H   UNL     1     -11.254   2.732  74.831  1.00  0.00     0.000 HD 
HETATM   28  O   UNL     1     -10.380   2.812  74.466  1.00  0.00    -0.140 OA 
BRANCH  26  29
HETATM   29  C   UNL     1     -10.881   5.035  73.792  1.00  0.00    -0.304 C  
HETATM   30  H   UNL     1     -12.113   6.406  73.100  1.00  0.00     0.000 HD 
HETATM   31  O   UNL     1     -11.777   5.566  72.810  1.00  0.00    -0.297 OA 
ENDBRANCH  26  29
ENDBRANCH  25  26
ENDBRANCH  23  25
ENDBRANCH  15  21
BRANCH  20  32
HETATM   32  N   UNL     1      -7.279   5.484  65.909  1.00  0.00    -0.071 N  
HETATM   33  C   UNL     1      -8.271   4.800  65.218  1.00  0.00    -0.120 C  
HETATM   34  H   UNL     1      -6.365   5.603  65.471  1.00  0.00     0.000 HD 
HETATM   35  H   UNL     1      -6.883   7.346  62.747  1.00  0.00     0.000 HD 
HETATM   36  H   UNL     1     -10.702   3.170  62.714  1.00  0.00     0.000 HD 
HETATM   37  C   UNL     1      -7.877   4.453  63.778  1.00  0.00    -0.087 C  
HETATM   38  O   UNL     1      -9.385   4.553  65.675  1.00  0.00    -0.145 OA 
HETATM   39  O   UNL     1     -10.129   3.843  63.065  1.00  0.00    -0.161 OA 
HETATM   40  O   UNL     1      -6.859   6.572  63.296  1.00  0.00    -0.043 OA 
HETATM   41  C   UNL     1      -7.914   5.697  62.895  1.00  0.00    -0.099 C  
HETATM   42  C   UNL     1      -8.795   3.373  63.216  1.00  0.00    -0.093 C  
ENDBRANCH  20  32
ENDBRANCH   4  12
TORSDOF 9
ENDMDL
MODEL       63
REMARK 921   NORMALIZED FREE ENERGY PREDICTED BY IDOCK:   -3.18 KCAL/MOL
REMARK 922        TOTAL FREE ENERGY PREDICTED BY IDOCK:   -6.16 KCAL/MOL
REMARK 923 INTER-LIGAND FREE ENERGY PREDICTED BY IDOCK:   -6.17 KCAL/MOL
REMARK 924 INTRA-LIGAND FREE ENERGY PREDICTED BY IDOCK:    0.00 KCAL/MOL
REMARK 927      BINDING AFFINITY PREDICTED BY RF-SCORE:    0.00 PKD
ROOT
HETATM    1  C   UNL     1      -5.353  11.711  70.684  1.00  0.00    -0.141 C  
HETATM    2  N   UNL     1      -5.972  11.497  69.377  1.00  0.00    -0.067 N  
HETATM    3  O   UNL     1      -7.582  10.171  70.379  1.00  0.00    -0.249 OA 
HETATM    4  C   UNL     1      -7.094  10.633  69.354  1.00  0.00    -0.120 C  
ENDROOT
BRANCH   2   5
HETATM    5  C   UNL     1      -5.532  12.405  68.301  1.00  0.00    -0.058 C  
BRANCH   5   6
HETATM    6  C   UNL     1      -5.217  13.862  68.640  1.00  0.00    -0.089 C  
HETATM    7  H   UNL     1      -4.966  15.560  67.661  1.00  0.00     0.000 HD 
HETATM    8  O   UNL     1      -5.162  14.655  67.450  1.00  0.00    -0.330 OA 
BRANCH   6   9
HETATM    9  C   UNL     1      -6.346  14.390  69.555  1.00  0.00    -0.128 C  
HETATM   10  H   UNL     1      -7.199  16.123  70.042  1.00  0.00     0.000 HD 
HETATM   11  O   UNL     1      -6.505  15.799  69.479  1.00  0.00    -0.157 OA 
ENDBRANCH   6   9
ENDBRANCH   5   6
ENDBRANCH   2   5
BRANCH   4  12
HETATM   12  C   UNL     1      -7.770  10.265  68.064  1.00  0.00    -0.089 A  
HETATM   13  C   UNL     1      -8.542  11.232  67.412  1.00  0.00    -0.136 A  
HETATM   14  C   UNL     1      -7.728   8.952  67.495  1.00  0.00    -0.100 A  
HETATM   15  C   UNL     1      -8.235   8.698  66.182  1.00  0.00    -0.121 A  
HETATM   16  I   UNL     1      -6.919   7.349  68.698  1.00  0.00    -0.085 I  
HETATM   17  I   UNL     1      -9.422  12.825  68.575  1.00  0.00     0.158 I  
HETATM   18  C   UNL     1      -8.649   9.824  65.432  1.00  0.00    -0.149 A  
HETATM   19  I   UNL     1      -8.403   9.800  63.287  1.00  0.00    -0.228 I  
HETATM   20  C   UNL     1      -8.906  11.074  66.062  1.00  0.00    -0.191 A  
BRANCH  15  21
HETATM   21  C   UNL     1      -8.206   7.289  65.606  1.00  0.00    -0.138 C  
HETATM   22  O   UNL     1      -7.295   7.008  64.823  1.00  0.00    -0.074 OA 
HETATM   23  N   UNL     1      -9.115   6.285  66.004  1.00  0.00    -0.142 N  
HETATM   24  C   UNL     1     -10.458   6.508  66.528  1.00  0.00    -0.062 C  
BRANCH  23  25
HETATM   25  C   UNL     1      -8.801   4.881  65.642  1.00  0.00    -0.139 C  
BRANCH  25  26
HETATM   26  C   UNL     1      -9.591   4.299  64.450  1.00  0.00    -0.134 C  
HETATM   27  H   UNL     1      -9.424   4.166  62.458  1.00  0.00     0.000 HD 
HETATM   28  O   UNL     1      -8.938   4.524  63.192  1.00  0.00    -0.132 OA 
BRANCH  26  29
HETATM   29  C   UNL     1      -9.764   2.776  64.573  1.00  0.00    -0.098 C  
HETATM   30  H   UNL     1      -8.721   1.264  65.285  1.00  0.00     0.000 HD 
HETATM   31  O   UNL     1      -8.615   2.205  65.209  1.00  0.00    -0.098 OA 
ENDBRANCH  26  29
ENDBRANCH  25  26
ENDBRANCH  23  25
ENDBRANCH  15  21
BRANCH  20  32
HETATM   32  N   UNL     1      -9.423  12.211  65.376  1.00  0.00    -0.432 N  
HETATM   33  C   UNL     1     -10.783  12.481  65.311  1.00  0.00    -0.286 C  
HETATM   34  H   UNL     1      -8.771  12.849  64.919  1.00  0.00     0.000 HD 
HETATM   35  H   UNL     1      -9.151  15.748  66.394  1.00  0.00     0.000 HD 
HETATM   36  H   UNL     1     -14.351  13.919  65.114  1.00  0.00     0.000 HD 
HETATM   37  C   UNL     1     -11.102  13.837  64.672  1.00  0.00    -0.391 C  
HETATM   38  O   UNL     1     -11.655  11.750  65.777  1.00  0.00    -0.312 OA 
HETATM   39  O   UNL     1     -13.438  13.878  65.376  1.00  0.00    -0.672 OA 
HETATM   40  O   UNL     1      -9.356  15.040  65.795  1.00  0.00    -0.293 OA 
HETATM   41  C   UNL     1     -10.773  14.975  65.635  1.00  0.00    -0.354 C  
HETATM   42  C   UNL     1     -12.567  13.902  64.251  1.00  0.00    -0.131 C  
ENDBRANCH  20  32
ENDBRANCH   4  12
TORSDOF 9
ENDMDL
MODEL       64
REMARK 921   NORMALIZED FREE ENERGY PREDICTED BY IDOCK:   -3.15 KCAL/MOL
REMARK 922        TOTAL FREE ENERGY PREDICTED BY IDOCK:   -6.10 KCAL/MOL
REMARK 923 INTER-LIGAND FREE ENERGY PREDICTED BY IDOCK:   -6.03 KCAL/MOL
REMARK 924 INTRA-LIGAND FREE ENERGY PREDICTED BY IDOCK:   -0.07 KCAL/MOL
REMARK 927      BINDING AFFINITY PREDICTED BY RF-SCORE:    0.00 PKD
ROOT
HETATM    1  C   UNL     1      -7.228   9.300  65.652  1.00  0.00    -0.090 C  
HETATM    2  N   UNL     1      -8.313   9.329  66.631  1.00  0.00    -0.121 N  
HETATM    3  O   UNL     1      -7.205  11.005  67.779  1.00  0.00    -0.087 OA 
HETATM    4  C   UNL     1      -8.150  10.226  67.715  1.00  0.00    -0.103 C  
ENDROOT
BRANCH   2   5
HETATM    5  C   UNL     1      -9.554   8.635  66.236  1.00  0.00    -0.252 C  
BRANCH   5   6
HETATM    6  C   UNL     1      -9.526   7.121  66.027  1.00  0.00     0.093 C  
HETATM    7  H   UNL     1      -8.267   5.633  66.352  1.00  0.00     0.000 HD 
HETATM    8  O   UNL     1      -8.285   6.573  66.481  1.00  0.00    -0.108 OA 
BRANCH   6   9
HETATM    9  C   UNL     1     -10.686   6.509  66.846  1.00  0.00    -0.333 C  
HETATM   10  H   UNL     1     -11.617   4.760  67.057  1.00  0.00     0.000 HD 
HETATM   11  O   UNL     1     -10.904   5.136  66.554  1.00  0.00    -0.258 OA 
ENDBRANCH   6   9
ENDBRANCH   5   6
ENDBRANCH   2   5
BRANCH   4  12
HETATM   12  C   UNL     1      -9.153  10.293  68.831  1.00  0.00    -0.168 A  
HETATM   13  C   UNL     1      -9.938  11.443  68.959  1.00  0.00    -0.067 A  
HETATM   14  C   UNL     1      -9.303   9.271  69.823  1.00  0.00    -0.188 A  
HETATM   15  C   UNL     1     -10.387   9.298  70.755  1.00  0.00    -0.348 A  
HETATM   16  I   UNL     1      -7.814   7.707  69.903  1.00  0.00    -0.106 I  
HETATM   17  I   UNL     1      -9.184  13.314  68.187  1.00  0.00    -0.134 I  
HETATM   18  C   UNL     1     -11.367  10.301  70.561  1.00  0.00    -0.341 A  
HETATM   19  I   UNL     1     -13.418   9.872  71.082  1.00  0.00     0.161 I  
HETATM   20  C   UNL     1     -11.107  11.434  69.741  1.00  0.00    -0.126 A  
BRANCH  15  21
HETATM   21  C   UNL     1     -10.513   8.217  71.819  1.00  0.00    -0.259 C  
HETATM   22  O   UNL     1     -10.046   8.454  72.937  1.00  0.00    -0.262 OA 
HETATM   23  N   UNL     1     -11.216   7.013  71.601  1.00  0.00    -0.239 N  
HETATM   24  C   UNL     1     -11.433   6.372  70.309  1.00  0.00    -0.402 C  
BRANCH  23  25
HETATM   25  C   UNL     1     -11.562   6.186  72.784  1.00  0.00    -0.132 C  
BRANCH  25  26
HETATM   26  C   UNL     1     -10.453   5.240  73.292  1.00  0.00    -0.224 C  
HETATM   27  H   UNL     1      -9.241   5.059  74.877  1.00  0.00     0.000 HD 
HETATM   28  O   UNL     1      -9.923   5.641  74.564  1.00  0.00    -0.209 OA 
BRANCH  26  29
HETATM   29  C   UNL     1     -10.974   3.805  73.481  1.00  0.00    -0.247 C  
HETATM   30  H   UNL     1     -10.808   2.080  72.545  1.00  0.00     0.000 HD 
HETATM   31  O   UNL     1     -10.486   2.967  72.429  1.00  0.00    -0.126 OA 
ENDBRANCH  26  29
ENDBRANCH  25  26
ENDBRANCH  23  25
ENDBRANCH  15  21
BRANCH  20  32
HETATM   32  N   UNL     1     -12.014  12.523  69.591  1.00  0.00    -0.296 N  
HETATM   33  C   UNL     1     -12.358  13.352  70.652  1.00  0.00    -0.348 C  
HETATM   34  H   UNL     1     -12.424  12.700  68.674  1.00  0.00     0.000 HD 
HETATM   35  H   UNL     1     -11.424  15.693  67.795  1.00  0.00     0.000 HD 
HETATM   36  H   UNL     1     -13.377  16.157  73.086  1.00  0.00     0.000 HD 
HETATM   37  C   UNL     1     -13.212  14.553  70.230  1.00  0.00     0.119 C  
HETATM   38  O   UNL     1     -11.967  13.192  71.806  1.00  0.00     0.546 OA 
HETATM   39  O   UNL     1     -12.952  15.767  72.331  1.00  0.00    -0.425 OA 
HETATM   40  O   UNL     1     -11.955  15.047  68.246  1.00  0.00    -0.293 OA 
HETATM   41  C   UNL     1     -12.359  15.590  69.504  1.00  0.00    -0.153 C  
HETATM   42  C   UNL     1     -13.895  15.178  71.442  1.00  0.00    -0.502 C  
ENDBRANCH  20  32
ENDBRANCH   4  12
TORSDOF 9
ENDMDL
MODEL       65
REMARK 921   NORMALIZED FREE ENERGY PREDICTED BY IDOCK:   -3.08 KCAL/MOL
REMARK 922        TOTAL FREE ENERGY PREDICTED BY IDOCK:   -6.00 KCAL/MOL
REMARK 923 INTER-LIGAND FREE ENERGY PREDICTED BY IDOCK:   -5.48 KCAL/MOL
REMARK 924 INTRA-LIGAND FREE ENERGY PREDICTED BY IDOCK:   -0.52 KCAL/MOL
REMARK 927      BINDING AFFINITY PREDICTED BY RF-SCORE:    0.00 PKD
ROOT
HETATM    1  C   UNL     1      -6.128   7.487  64.624  1.00  0.00    -0.038 C  
HETATM    2  N   UNL     1      -7.082   8.087  65.556  1.00  0.00    -0.059 N  
HETATM    3  O   UNL     1      -5.353   8.472  67.045  1.00  0.00    -0.035 OA 
HETATM    4  C   UNL     1      -6.553   8.512  66.800  1.00  0.00    -0.057 C  
ENDROOT
BRANCH   2   5
HETATM    5  C   UNL     1      -8.403   8.426  64.995  1.00  0.00    -0.158 C  
BRANCH   5   6
HETATM    6  C   UNL     1      -8.502   9.521  63.932  1.00  0.00    -0.190 C  
HETATM    7  H   UNL     1      -8.834   9.632  61.987  1.00  0.00     0.000 HD 
HETATM    8  O   UNL     1      -8.773   8.952  62.647  1.00  0.00    -0.210 OA 
BRANCH   6   9
HETATM    9  C   UNL     1      -9.661  10.464  64.330  1.00  0.00    -0.316 C  
HETATM   10  H   UNL     1     -10.904  11.762  63.471  1.00  0.00     0.000 HD 
HETATM   11  O   UNL     1     -10.192  11.183  63.227  1.00  0.00    -0.351 OA 
ENDBRANCH   6   9
ENDBRANCH   5   6
ENDBRANCH   2   5
BRANCH   4  12
HETATM   12  C   UNL     1      -7.441   9.069  67.876  1.00  0.00    -0.085 A  
HETATM   13  C   UNL     1      -7.704  10.443  67.883  1.00  0.00    -0.089 A  
HETATM   14  C   UNL     1      -7.978   8.282  68.945  1.00  0.00    -0.113 A  
HETATM   15  C   UNL     1      -8.957   8.819  69.839  1.00  0.00    -0.152 A  
HETATM   16  I   UNL     1      -7.232   6.270  69.199  1.00  0.00    -0.092 I  
HETATM   17  I   UNL     1      -6.274  11.786  66.981  1.00  0.00    -0.012 I  
HETATM   18  C   UNL     1      -9.459  10.106  69.532  1.00  0.00    -0.214 A  
HETATM   19  I   UNL     1     -11.509  10.572  70.026  1.00  0.00    -0.427 I  
HETATM   20  C   UNL     1      -8.776  10.966  68.629  1.00  0.00    -0.154 A  
BRANCH  15  21
HETATM   21  C   UNL     1      -9.496   7.975  70.985  1.00  0.00    -0.157 C  
HETATM   22  O   UNL     1      -9.032   8.173  72.111  1.00  0.00    -0.146 OA 
HETATM   23  N   UNL     1     -10.555   7.056  70.822  1.00  0.00    -0.216 N  
HETATM   24  C   UNL     1     -10.912   6.375  69.582  1.00  0.00    -0.358 C  
BRANCH  23  25
HETATM   25  C   UNL     1     -11.219   6.537  72.043  1.00  0.00    -0.273 C  
BRANCH  25  26
HETATM   26  C   UNL     1     -10.803   5.117  72.484  1.00  0.00    -0.223 C  
HETATM   27  H   UNL     1      -9.307   3.822  72.167  1.00  0.00     0.000 HD 
HETATM   28  O   UNL     1      -9.564   4.696  71.895  1.00  0.00    -0.142 OA 
BRANCH  26  29
HETATM   29  C   UNL     1     -10.600   5.034  74.007  1.00  0.00    -0.298 C  
HETATM   30  H   UNL     1     -10.371   6.300  75.498  1.00  0.00     0.000 HD 
HETATM   31  O   UNL     1     -10.497   6.351  74.557  1.00  0.00    -0.274 OA 
ENDBRANCH  26  29
ENDBRANCH  25  26
ENDBRANCH  23  25
ENDBRANCH  15  21
BRANCH  20  32
HETATM   32  N   UNL     1      -9.177  12.308  68.361  1.00  0.00    -0.294 N  
HETATM   33  C   UNL     1      -8.482  13.402  68.859  1.00  0.00     0.226 C  
HETATM   34  H   UNL     1     -10.003  12.469  67.784  1.00  0.00     0.000 HD 
HETATM   35  H   UNL     1      -8.960  14.106  65.146  1.00  0.00     0.000 HD 
HETATM   36  H   UNL     1      -6.771  16.764  69.636  1.00  0.00     0.000 HD 
HETATM   37  C   UNL     1      -8.987  14.741  68.311  1.00  0.00    -0.181 C  
HETATM   38  O   UNL     1      -7.510  13.319  69.608  1.00  0.00     0.395 OA 
HETATM   39  O   UNL     1      -7.079  16.044  69.097  1.00  0.00    -0.171 OA 
HETATM   40  O   UNL     1      -9.237  13.988  66.047  1.00  0.00    -0.116 OA 
HETATM   41  C   UNL     1      -8.543  14.931  66.863  1.00  0.00    -0.239 C  
HETATM   42  C   UNL     1      -8.492  15.896  69.176  1.00  0.00    -0.254 C  
ENDBRANCH  20  32
ENDBRANCH   4  12
TORSDOF 9
ENDMDL
MODEL       66
REMARK 921   NORMALIZED FREE ENERGY PREDICTED BY IDOCK:   -3.04 KCAL/MOL
REMARK 922        TOTAL FREE ENERGY PREDICTED BY IDOCK:   -5.95 KCAL/MOL
REMARK 923 INTER-LIGAND FREE ENERGY PREDICTED BY IDOCK:   -5.43 KCAL/MOL
REMARK 924 INTRA-LIGAND FREE ENERGY PREDICTED BY IDOCK:   -0.51 KCAL/MOL
REMARK 927      BINDING AFFINITY PREDICTED BY RF-SCORE:    0.00 PKD
ROOT
HETATM    1  C   UNL     1     -12.244  14.466  65.221  1.00  0.00    -0.377 C  
HETATM    2  N   UNL     1     -11.248  13.725  65.993  1.00  0.00    -0.302 N  
HETATM    3  O   UNL     1     -12.439  11.776  65.622  1.00  0.00    -0.025 OA 
HETATM    4  C   UNL     1     -11.498  12.342  66.168  1.00  0.00    -0.379 C  
ENDROOT
BRANCH   2   5
HETATM    5  C   UNL     1      -9.982  14.435  66.259  1.00  0.00    -0.306 C  
BRANCH   5   6
HETATM    6  C   UNL     1     -10.029  15.824  66.896  1.00  0.00    -0.243 C  
HETATM    7  H   UNL     1      -9.419  16.675  68.572  1.00  0.00     0.000 HD 
HETATM    8  O   UNL     1      -9.390  15.812  68.177  1.00  0.00    -0.192 OA 
BRANCH   6   9
HETATM    9  C   UNL     1      -9.279  16.800  65.959  1.00  0.00    -0.201 C  
HETATM   10  H   UNL     1      -8.160  18.443  66.086  1.00  0.00     0.000 HD 
HETATM   11  O   UNL     1      -8.621  17.844  66.661  1.00  0.00    -0.246 OA 
ENDBRANCH   6   9
ENDBRANCH   5   6
ENDBRANCH   2   5
BRANCH   4  12
HETATM   12  C   UNL     1     -10.596  11.485  67.009  1.00  0.00    -0.277 A  
HETATM   13  C   UNL     1     -10.815  11.434  68.389  1.00  0.00    -0.207 A  
HETATM   14  C   UNL     1      -9.471  10.769  66.486  1.00  0.00    -0.169 A  
HETATM   15  C   UNL     1      -8.753   9.830  67.292  1.00  0.00    -0.135 A  
HETATM   16  I   UNL     1      -8.857  11.183  64.456  1.00  0.00     0.399 I  
HETATM   17  I   UNL     1     -11.783  13.105  69.356  1.00  0.00    -0.275 I  
HETATM   18  C   UNL     1      -9.289   9.549  68.571  1.00  0.00    -0.137 A  
HETATM   19  I   UNL     1      -9.046   7.568  69.394  1.00  0.00    -0.138 I  
HETATM   20  C   UNL     1     -10.249  10.411  69.171  1.00  0.00    -0.222 A  
BRANCH  15  21
HETATM   21  C   UNL     1      -7.543   9.099  66.726  1.00  0.00    -0.087 C  
HETATM   22  O   UNL     1      -6.427   9.573  66.956  1.00  0.00    -0.065 OA 
HETATM   23  N   UNL     1      -7.649   7.871  66.040  1.00  0.00    -0.084 N  
HETATM   24  C   UNL     1      -8.818   7.400  65.305  1.00  0.00     0.181 C  
BRANCH  23  25
HETATM   25  C   UNL     1      -6.408   7.086  65.825  1.00  0.00    -0.046 C  
BRANCH  25  26
HETATM   26  C   UNL     1      -6.432   5.631  66.341  1.00  0.00    -0.044 C  
HETATM   27  H   UNL     1      -7.547   4.482  67.546  1.00  0.00     0.000 HD 
HETATM   28  O   UNL     1      -7.531   5.378  67.228  1.00  0.00    -0.082 OA 
BRANCH  26  29
HETATM   29  C   UNL     1      -6.575   4.623  65.188  1.00  0.00    -0.044 C  
HETATM   30  H   UNL     1      -7.950   3.374  64.533  1.00  0.00     0.000 HD 
HETATM   31  O   UNL     1      -7.861   3.997  65.245  1.00  0.00    -0.087 OA 
ENDBRANCH  26  29
ENDBRANCH  25  26
ENDBRANCH  23  25
ENDBRANCH  15  21
BRANCH  20  32
HETATM   32  N   UNL     1     -10.747  10.235  70.495  1.00  0.00    -0.421 N  
HETATM   33  C   UNL     1     -12.042   9.801  70.748  1.00  0.00    -0.279 C  
HETATM   34  H   UNL     1     -10.131  10.435  71.283  1.00  0.00     0.000 HD 
HETATM   35  H   UNL     1      -9.796   7.612  72.911  1.00  0.00     0.000 HD 
HETATM   36  H   UNL     1     -15.345   8.298  72.037  1.00  0.00     0.000 HD 
HETATM   37  C   UNL     1     -12.309   9.523  72.231  1.00  0.00    -0.235 C  
HETATM   38  O   UNL     1     -12.880   9.588  69.874  1.00  0.00     0.684 OA 
HETATM   39  O   UNL     1     -14.411   8.338  71.866  1.00  0.00    -0.427 OA 
HETATM   40  O   UNL     1     -10.217   8.420  72.642  1.00  0.00    -0.302 OA 
HETATM   41  C   UNL     1     -11.631   8.225  72.665  1.00  0.00    -0.349 C  
HETATM   42  C   UNL     1     -13.808   9.458  72.504  1.00  0.00    -0.314 C  
ENDBRANCH  20  32
ENDBRANCH   4  12
TORSDOF 9
ENDMDL
MODEL       67
REMARK 921   NORMALIZED FREE ENERGY PREDICTED BY IDOCK:   -3.04 KCAL/MOL
REMARK 922        TOTAL FREE ENERGY PREDICTED BY IDOCK:   -5.94 KCAL/MOL
REMARK 923 INTER-LIGAND FREE ENERGY PREDICTED BY IDOCK:   -4.95 KCAL/MOL
REMARK 924 INTRA-LIGAND FREE ENERGY PREDICTED BY IDOCK:   -0.98 KCAL/MOL
REMARK 927      BINDING AFFINITY PREDICTED BY RF-SCORE:    0.00 PKD
ROOT
HETATM    1  C   UNL     1     -13.988  15.101  69.997  1.00  0.00     1.628 C  
HETATM    2  N   UNL     1     -12.600  14.656  70.119  1.00  0.00    -0.317 N  
HETATM    3  O   UNL     1     -12.435  14.608  67.811  1.00  0.00    -0.032 OA 
HETATM    4  C   UNL     1     -11.924  14.387  68.903  1.00  0.00    -0.302 C  
ENDROOT
BRANCH   2   5
HETATM    5  C   UNL     1     -11.993  14.802  71.455  1.00  0.00    -0.353 C  
BRANCH   5   6
HETATM    6  C   UNL     1     -12.878  14.666  72.694  1.00  0.00    -0.409 C  
HETATM    7  H   UNL     1     -13.683  13.203  73.751  1.00  0.00     0.000 HD 
HETATM    8  O   UNL     1     -13.133  13.288  72.982  1.00  0.00    -0.291 OA 
BRANCH   6   9
HETATM    9  C   UNL     1     -12.128  15.308  73.884  1.00  0.00    -0.525 C  
HETATM   10  H   UNL     1     -11.664  17.121  74.566  1.00  0.00     0.000 HD 
HETATM   11  O   UNL     1     -12.124  16.727  73.834  1.00  0.00    -0.397 OA 
ENDBRANCH   6   9
ENDBRANCH   5   6
ENDBRANCH   2   5
BRANCH   4  12
HETATM   12  C   UNL     1     -10.523  13.845  68.892  1.00  0.00    -0.199 A  
HETATM   13  C   UNL     1     -10.341  12.458  68.929  1.00  0.00    -0.049 A  
HETATM   14  C   UNL     1      -9.355  14.672  68.920  1.00  0.00    -0.160 A  
HETATM   15  C   UNL     1      -8.050  14.116  68.729  1.00  0.00    -0.088 A  
HETATM   16  I   UNL     1      -9.612  16.782  69.306  1.00  0.00     0.197 I  
HETATM   17  I   UNL     1     -11.876  11.225  69.815  1.00  0.00    -0.463 I  
HETATM   18  C   UNL     1      -7.989  12.745  68.380  1.00  0.00    -0.137 A  
HETATM   19  I   UNL     1      -6.399  12.066  67.087  1.00  0.00     0.031 I  
HETATM   20  C   UNL     1      -9.105  11.885  68.577  1.00  0.00    -0.123 A  
BRANCH  15  21
HETATM   21  C   UNL     1      -6.819  15.008  68.788  1.00  0.00    -0.105 C  
HETATM   22  O   UNL     1      -6.505  15.622  67.765  1.00  0.00    -0.132 OA 
HETATM   23  N   UNL     1      -6.093  15.224  69.979  1.00  0.00    -0.145 N  
HETATM   24  C   UNL     1      -6.015  14.307  71.111  1.00  0.00    -0.156 C  
BRANCH  23  25
HETATM   25  C   UNL     1      -5.127  16.351  70.009  1.00  0.00    -0.153 C  
BRANCH  25  26
HETATM   26  C   UNL     1      -5.715  17.733  70.367  1.00  0.00    -0.149 C  
HETATM   27  H   UNL     1      -5.608  19.073  71.853  1.00  0.00     0.000 HD 
HETATM   28  O   UNL     1      -5.247  18.222  71.632  1.00  0.00    -0.508 OA 
BRANCH  26  29
HETATM   29  C   UNL     1      -5.329  18.800  69.329  1.00  0.00    -0.201 C  
HETATM   30  H   UNL     1      -5.697  20.711  69.026  1.00  0.00     0.000 HD 
HETATM   31  O   UNL     1      -5.935  20.052  69.668  1.00  0.00    -0.287 OA 
ENDBRANCH  26  29
ENDBRANCH  25  26
ENDBRANCH  23  25
ENDBRANCH  15  21
BRANCH  20  32
HETATM   32  N   UNL     1      -9.069  10.480  68.342  1.00  0.00    -0.142 N  
HETATM   33  C   UNL     1      -8.878   9.563  69.367  1.00  0.00    -0.170 C  
HETATM   34  H   UNL     1      -9.187  10.137  67.388  1.00  0.00     0.000 HD 
HETATM   35  H   UNL     1     -11.896   8.295  67.418  1.00  0.00     0.000 HD 
HETATM   36  H   UNL     1      -8.759   6.586  71.807  1.00  0.00     0.000 HD 
HETATM   37  C   UNL     1      -9.042   8.107  68.916  1.00  0.00    -0.147 C  
HETATM   38  O   UNL     1      -8.668   9.871  70.539  1.00  0.00    -0.100 OA 
HETATM   39  O   UNL     1      -9.141   7.179  71.170  1.00  0.00    -0.151 OA 
HETATM   40  O   UNL     1     -10.979   8.501  67.556  1.00  0.00    -0.107 OA 
HETATM   41  C   UNL     1     -10.515   7.776  68.694  1.00  0.00    -0.172 C  
HETATM   42  C   UNL     1      -8.429   7.156  69.938  1.00  0.00    -0.140 C  
ENDBRANCH  20  32
ENDBRANCH   4  12
TORSDOF 9
ENDMDL
MODEL       68
REMARK 921   NORMALIZED FREE ENERGY PREDICTED BY IDOCK:   -2.97 KCAL/MOL
REMARK 922        TOTAL FREE ENERGY PREDICTED BY IDOCK:   -5.84 KCAL/MOL
REMARK 923 INTER-LIGAND FREE ENERGY PREDICTED BY IDOCK:   -4.48 KCAL/MOL
REMARK 924 INTRA-LIGAND FREE ENERGY PREDICTED BY IDOCK:   -1.36 KCAL/MOL
REMARK 927      BINDING AFFINITY PREDICTED BY RF-SCORE:    0.00 PKD
ROOT
HETATM    1  C   UNL     1      -7.164   6.454  72.178  1.00  0.00    -0.087 C  
HETATM    2  N   UNL     1      -7.469   6.990  70.852  1.00  0.00    -0.080 N  
HETATM    3  O   UNL     1      -5.204   7.063  70.384  1.00  0.00    -0.022 OA 
HETATM    4  C   UNL     1      -6.354   7.312  70.040  1.00  0.00    -0.028 C  
ENDROOT
BRANCH   2   5
HETATM    5  C   UNL     1      -8.875   6.877  70.420  1.00  0.00    -0.152 C  
BRANCH   5   6
HETATM    6  C   UNL     1      -9.987   7.027  71.458  1.00  0.00    -0.180 C  
HETATM    7  H   UNL     1     -11.416   8.325  71.880  1.00  0.00     0.000 HD 
HETATM    8  O   UNL     1     -10.725   8.232  71.235  1.00  0.00    -0.217 OA 
BRANCH   6   9
HETATM    9  C   UNL     1     -10.934   5.812  71.316  1.00  0.00    -0.230 C  
HETATM   10  H   UNL     1     -10.899   3.957  70.590  1.00  0.00     0.000 HD 
HETATM   11  O   UNL     1     -10.318   4.703  70.678  1.00  0.00    -0.182 OA 
ENDBRANCH   6   9
ENDBRANCH   5   6
ENDBRANCH   2   5
BRANCH   4  12
HETATM   12  C   UNL     1      -6.529   7.947  68.690  1.00  0.00    -0.049 A  
HETATM   13  C   UNL     1      -6.435   7.139  67.552  1.00  0.00    -0.054 A  
HETATM   14  C   UNL     1      -6.715   9.353  68.495  1.00  0.00    -0.058 A  
HETATM   15  C   UNL     1      -7.054   9.883  67.210  1.00  0.00    -0.085 A  
HETATM   16  I   UNL     1      -6.423  10.661  70.190  1.00  0.00    -0.008 I  
HETATM   17  I   UNL     1      -5.271   5.323  67.652  1.00  0.00    -0.005 I  
HETATM   18  C   UNL     1      -7.325   8.944  66.187  1.00  0.00    -0.090 A  
HETATM   19  I   UNL     1      -8.785   9.439  64.675  1.00  0.00    -0.178 I  
HETATM   20  C   UNL     1      -6.922   7.585  66.310  1.00  0.00    -0.066 A  
BRANCH  15  21
HETATM   21  C   UNL     1      -7.221  11.384  67.018  1.00  0.00    -0.141 C  
HETATM   22  O   UNL     1      -6.264  12.014  66.557  1.00  0.00    -0.117 OA 
HETATM   23  N   UNL     1      -8.441  12.051  67.256  1.00  0.00    -0.168 N  
HETATM   24  C   UNL     1      -9.487  11.616  68.176  1.00  0.00    -0.191 C  
BRANCH  23  25
HETATM   25  C   UNL     1      -8.595  13.430  66.729  1.00  0.00    -0.026 C  
BRANCH  25  26
HETATM   26  C   UNL     1     -10.020  13.828  66.287  1.00  0.00    -0.305 C  
HETATM   27  H   UNL     1     -11.020  15.477  65.748  1.00  0.00     0.000 HD 
HETATM   28  O   UNL     1     -10.144  15.232  66.021  1.00  0.00    -0.277 OA 
BRANCH  26  29
HETATM   29  C   UNL     1     -10.432  13.111  64.990  1.00  0.00    -0.342 C  
HETATM   30  H   UNL     1     -11.771  11.771  64.451  1.00  0.00     0.000 HD 
HETATM   31  O   UNL     1     -11.517  12.214  65.252  1.00  0.00    -0.337 OA 
ENDBRANCH  26  29
ENDBRANCH  25  26
ENDBRANCH  23  25
ENDBRANCH  15  21
BRANCH  20  32
HETATM   32  N   UNL     1      -7.076   6.620  65.272  1.00  0.00    -0.062 N  
HETATM   33  C   UNL     1      -8.164   5.759  65.217  1.00  0.00    -0.139 C  
HETATM   34  H   UNL     1      -6.363   6.561  64.545  1.00  0.00     0.000 HD 
HETATM   35  H   UNL     1      -7.880   7.259  61.727  1.00  0.00     0.000 HD 
HETATM   36  H   UNL     1     -11.092   3.411  64.353  1.00  0.00     0.000 HD 
HETATM   37  C   UNL     1      -8.213   4.925  63.933  1.00  0.00    -0.122 C  
HETATM   38  O   UNL     1      -9.048   5.709  66.071  1.00  0.00    -0.154 OA 
HETATM   39  O   UNL     1     -10.506   4.152  64.249  1.00  0.00    -0.188 OA 
HETATM   40  O   UNL     1      -7.609   6.723  62.463  1.00  0.00    -0.078 OA 
HETATM   41  C   UNL     1      -8.647   5.786  62.749  1.00  0.00     0.063 C  
HETATM   42  C   UNL     1      -9.153   3.736  64.100  1.00  0.00    -0.128 C  
ENDBRANCH  20  32
ENDBRANCH   4  12
TORSDOF 9
ENDMDL
MODEL       69
REMARK 921   NORMALIZED FREE ENERGY PREDICTED BY IDOCK:   -2.91 KCAL/MOL
REMARK 922        TOTAL FREE ENERGY PREDICTED BY IDOCK:   -5.74 KCAL/MOL
REMARK 923 INTER-LIGAND FREE ENERGY PREDICTED BY IDOCK:   -4.89 KCAL/MOL
REMARK 924 INTRA-LIGAND FREE ENERGY PREDICTED BY IDOCK:   -0.85 KCAL/MOL
REMARK 927      BINDING AFFINITY PREDICTED BY RF-SCORE:    0.00 PKD
ROOT
HETATM    1  C   UNL     1      -9.284  11.424  65.948  1.00  0.00    -0.216 C  
HETATM    2  N   UNL     1      -9.285  10.116  66.601  1.00  0.00    -0.153 N  
HETATM    3  O   UNL     1      -7.017   9.927  66.182  1.00  0.00    -0.093 OA 
HETATM    4  C   UNL     1      -8.050   9.422  66.608  1.00  0.00    -0.108 C  
ENDROOT
BRANCH   2   5
HETATM    5  C   UNL     1     -10.481   9.798  67.404  1.00  0.00    -0.259 C  
BRANCH   5   6
HETATM    6  C   UNL     1     -10.630  10.418  68.794  1.00  0.00    -0.208 C  
HETATM    7  H   UNL     1      -9.594  11.626  69.965  1.00  0.00     0.000 HD 
HETATM    8  O   UNL     1      -9.501  11.241  69.102  1.00  0.00    -0.074 OA 
BRANCH   6   9
HETATM    9  C   UNL     1     -11.911  11.286  68.790  1.00  0.00    -0.329 C  
HETATM   10  H   UNL     1     -12.444  13.175  68.451  1.00  0.00     0.000 HD 
HETATM   11  O   UNL     1     -11.658  12.642  68.453  1.00  0.00    -0.283 OA 
ENDBRANCH   6   9
ENDBRANCH   5   6
ENDBRANCH   2   5
BRANCH   4  12
HETATM   12  C   UNL     1      -7.936   8.035  67.173  1.00  0.00    -0.113 A  
HETATM   13  C   UNL     1      -7.651   7.888  68.535  1.00  0.00    -0.105 A  
HETATM   14  C   UNL     1      -8.031   6.847  66.380  1.00  0.00    -0.106 A  
HETATM   15  C   UNL     1      -8.093   5.554  66.989  1.00  0.00    -0.101 A  
HETATM   16  I   UNL     1      -8.028   7.058  64.229  1.00  0.00     0.087 I  
HETATM   17  I   UNL     1      -6.594   9.468  69.559  1.00  0.00    -0.057 I  
HETATM   18  C   UNL     1      -8.193   5.521  68.401  1.00  0.00    -0.099 A  
HETATM   19  I   UNL     1      -9.313   3.927  69.331  1.00  0.00    -0.200 I  
HETATM   20  C   UNL     1      -7.871   6.661  69.188  1.00  0.00    -0.111 A  
BRANCH  15  21
HETATM   21  C   UNL     1      -8.166   4.301  66.127  1.00  0.00    -0.105 C  
HETATM   22  O   UNL     1      -7.105   3.741  65.839  1.00  0.00    -0.063 OA 
HETATM   23  N   UNL     1      -9.389   3.718  65.734  1.00  0.00    -0.157 N  
HETATM   24  C   UNL     1     -10.660   4.419  65.582  1.00  0.00    -0.144 C  
BRANCH  23  25
HETATM   25  C   UNL     1      -9.358   2.339  65.188  1.00  0.00    -0.053 C  
BRANCH  25  26
HETATM   26  C   UNL     1      -9.798   2.186  63.716  1.00  0.00    -0.137 C  
HETATM   27  H   UNL     1     -11.495   2.142  62.652  1.00  0.00     0.000 HD 
HETATM   28  O   UNL     1     -11.224   2.236  63.557  1.00  0.00    -0.249 OA 
BRANCH  26  29
HETATM   29  C   UNL     1      -9.233   3.314  62.836  1.00  0.00    -0.092 C  
HETATM   30  H   UNL     1      -7.595   3.637  61.790  1.00  0.00     0.000 HD 
HETATM   31  O   UNL     1      -7.945   2.940  62.334  1.00  0.00    -0.067 OA 
ENDBRANCH  26  29
ENDBRANCH  25  26
ENDBRANCH  23  25
ENDBRANCH  15  21
BRANCH  20  32
HETATM   32  N   UNL     1      -7.854   6.656  70.613  1.00  0.00    -0.104 N  
HETATM   33  C   UNL     1      -8.975   6.979  71.368  1.00  0.00    -0.139 C  
HETATM   34  H   UNL     1      -6.990   6.407  71.095  1.00  0.00     0.000 HD 
HETATM   35  H   UNL     1      -7.666   3.716  72.836  1.00  0.00     0.000 HD 
HETATM   36  H   UNL     1     -11.810   7.408  73.938  1.00  0.00     0.000 HD 
HETATM   37  C   UNL     1      -8.781   6.746  72.870  1.00  0.00    -0.131 C  
HETATM   38  O   UNL     1     -10.046   7.347  70.889  1.00  0.00    -0.189 OA 
HETATM   39  O   UNL     1     -11.145   6.947  73.439  1.00  0.00    -0.240 OA 
HETATM   40  O   UNL     1      -7.646   4.644  72.636  1.00  0.00    -0.082 OA 
HETATM   41  C   UNL     1      -8.812   5.254  73.191  1.00  0.00    -0.119 C  
HETATM   42  C   UNL     1      -9.848   7.485  73.670  1.00  0.00    -0.293 C  
ENDBRANCH  20  32
ENDBRANCH   4  12
TORSDOF 9
ENDMDL
MODEL       70
REMARK 921   NORMALIZED FREE ENERGY PREDICTED BY IDOCK:   -2.80 KCAL/MOL
REMARK 922        TOTAL FREE ENERGY PREDICTED BY IDOCK:   -5.57 KCAL/MOL
REMARK 923 INTER-LIGAND FREE ENERGY PREDICTED BY IDOCK:   -4.54 KCAL/MOL
REMARK 924 INTRA-LIGAND FREE ENERGY PREDICTED BY IDOCK:   -1.03 KCAL/MOL
REMARK 927      BINDING AFFINITY PREDICTED BY RF-SCORE:    0.00 PKD
ROOT
HETATM    1  C   UNL     1      -8.833   9.119  62.333  1.00  0.00    -0.204 C  
HETATM    2  N   UNL     1      -8.626   9.220  63.777  1.00  0.00    -0.203 N  
HETATM    3  O   UNL     1      -7.177   7.419  63.674  1.00  0.00    -0.062 OA 
HETATM    4  C   UNL     1      -7.781   8.241  64.354  1.00  0.00    -0.125 C  
ENDROOT
BRANCH   2   5
HETATM    5  C   UNL     1      -9.091  10.470  64.408  1.00  0.00    -0.225 C  
BRANCH   5   6
HETATM    6  C   UNL     1     -10.446  10.486  65.116  1.00  0.00    -0.154 C  
HETATM    7  H   UNL     1     -11.125  10.255  66.957  1.00  0.00     0.000 HD 
HETATM    8  O   UNL     1     -10.284  10.245  66.517  1.00  0.00    -0.220 OA 
BRANCH   6   9
HETATM    9  C   UNL     1     -11.073  11.884  64.906  1.00  0.00    -0.307 C  
HETATM   10  H   UNL     1     -12.455  13.051  65.740  1.00  0.00     0.000 HD 
HETATM   11  O   UNL     1     -12.070  12.193  65.869  1.00  0.00    -0.594 OA 
ENDBRANCH   6   9
ENDBRANCH   5   6
ENDBRANCH   2   5
BRANCH   4  12
HETATM   12  C   UNL     1      -7.552   8.184  65.838  1.00  0.00    -0.082 A  
HETATM   13  C   UNL     1      -6.709   9.134  66.423  1.00  0.00    -0.071 A  
HETATM   14  C   UNL     1      -8.093   7.162  66.683  1.00  0.00    -0.109 A  
HETATM   15  C   UNL     1      -7.994   7.251  68.107  1.00  0.00    -0.123 A  
HETATM   16  I   UNL     1      -9.022   5.453  65.743  1.00  0.00    -0.094 I  
HETATM   17  I   UNL     1      -5.172  10.053  65.217  1.00  0.00    -0.098 I  
HETATM   18  C   UNL     1      -7.462   8.453  68.633  1.00  0.00    -0.093 A  
HETATM   19  I   UNL     1      -8.191   9.175  70.533  1.00  0.00    -0.209 I  
HETATM   20  C   UNL     1      -6.725   9.352  67.813  1.00  0.00    -0.067 A  
BRANCH  15  21
HETATM   21  C   UNL     1      -8.551   6.141  68.987  1.00  0.00    -0.121 C  
HETATM   22  O   UNL     1      -9.745   6.197  69.294  1.00  0.00    -0.134 OA 
HETATM   23  N   UNL     1      -7.785   5.022  69.377  1.00  0.00    -0.067 N  
HETATM   24  C   UNL     1      -6.333   4.984  69.505  1.00  0.00    -0.034 C  
BRANCH  23  25
HETATM   25  C   UNL     1      -8.502   3.852  69.943  1.00  0.00    -0.060 C  
BRANCH  25  26
HETATM   26  C   UNL     1      -8.513   2.580  69.068  1.00  0.00    -0.066 C  
HETATM   27  H   UNL     1      -9.603   1.785  67.588  1.00  0.00     0.000 HD 
HETATM   28  O   UNL     1      -9.596   2.567  68.126  1.00  0.00    -0.204 OA 
BRANCH  26  29
HETATM   29  C   UNL     1      -7.225   2.452  68.238  1.00  0.00    -0.048 C  
HETATM   30  H   UNL     1      -6.748   1.957  66.392  1.00  0.00     0.000 HD 
HETATM   31  O   UNL     1      -7.544   2.036  66.906  1.00  0.00    -0.063 OA 
ENDBRANCH  26  29
ENDBRANCH  25  26
ENDBRANCH  23  25
ENDBRANCH  15  21
BRANCH  20  32
HETATM   32  N   UNL     1      -6.080  10.522  68.308  1.00  0.00    -0.047 N  
HETATM   33  C   UNL     1      -6.684  11.772  68.271  1.00  0.00    -0.065 C  
HETATM   34  H   UNL     1      -5.143  10.439  68.704  1.00  0.00     0.000 HD 
HETATM   35  H   UNL     1      -5.394  11.374  71.833  1.00  0.00     0.000 HD 
HETATM   36  H   UNL     1      -7.982  15.364  68.767  1.00  0.00     0.000 HD 
HETATM   37  C   UNL     1      -5.885  12.854  69.006  1.00  0.00    -0.079 C  
HETATM   38  O   UNL     1      -7.784  11.992  67.766  1.00  0.00    -0.120 OA 
HETATM   39  O   UNL     1      -7.689  14.498  69.025  1.00  0.00    -0.130 OA 
HETATM   40  O   UNL     1      -5.318  11.484  70.893  1.00  0.00    -0.123 OA 
HETATM   41  C   UNL     1      -6.006  12.677  70.517  1.00  0.00    -0.052 C  
HETATM   42  C   UNL     1      -6.356  14.244  68.593  1.00  0.00    -0.088 C  
ENDBRANCH  20  32
ENDBRANCH   4  12
TORSDOF 9
ENDMDL
MODEL       71
REMARK 921   NORMALIZED FREE ENERGY PREDICTED BY IDOCK:   -2.79 KCAL/MOL
REMARK 922        TOTAL FREE ENERGY PREDICTED BY IDOCK:   -5.56 KCAL/MOL
REMARK 923 INTER-LIGAND FREE ENERGY PREDICTED BY IDOCK:   -4.37 KCAL/MOL
REMARK 924 INTRA-LIGAND FREE ENERGY PREDICTED BY IDOCK:   -1.19 KCAL/MOL
REMARK 927      BINDING AFFINITY PREDICTED BY RF-SCORE:    0.00 PKD
ROOT
HETATM    1  C   UNL     1     -12.141  10.992  64.512  1.00  0.00     1.527 C  
HETATM    2  N   UNL     1     -10.930  11.303  65.270  1.00  0.00    -0.191 N  
HETATM    3  O   UNL     1     -12.243  12.121  66.991  1.00  0.00    -0.522 OA 
HETATM    4  C   UNL     1     -11.125  11.935  66.523  1.00  0.00    -0.306 C  
ENDROOT
BRANCH   2   5
HETATM    5  C   UNL     1      -9.685  10.684  64.777  1.00  0.00    -0.292 C  
BRANCH   5   6
HETATM    6  C   UNL     1      -9.099   9.490  65.529  1.00  0.00    -0.212 C  
HETATM    7  H   UNL     1      -9.765   7.821  66.351  1.00  0.00     0.000 HD 
HETATM    8  O   UNL     1     -10.129   8.563  65.884  1.00  0.00    -0.043 OA 
BRANCH   6   9
HETATM    9  C   UNL     1      -8.083   8.793  64.594  1.00  0.00    -0.157 C  
HETATM   10  H   UNL     1      -6.897   9.248  63.059  1.00  0.00     0.000 HD 
HETATM   11  O   UNL     1      -7.521   9.676  63.633  1.00  0.00    -0.112 OA 
ENDBRANCH   6   9
ENDBRANCH   5   6
ENDBRANCH   2   5
BRANCH   4  12
HETATM   12  C   UNL     1      -9.963  12.382  67.362  1.00  0.00    -0.203 A  
HETATM   13  C   UNL     1      -9.570  11.585  68.442  1.00  0.00    -0.195 A  
HETATM   14  C   UNL     1      -9.273  13.621  67.163  1.00  0.00    -0.244 A  
HETATM   15  C   UNL     1      -8.065  13.917  67.871  1.00  0.00    -0.158 A  
HETATM   16  I   UNL     1     -10.135  15.056  65.797  1.00  0.00    -0.401 I  
HETATM   17  I   UNL     1     -11.030  10.295  69.374  1.00  0.00    -0.326 I  
HETATM   18  C   UNL     1      -7.523  12.878  68.664  1.00  0.00    -0.092 A  
HETATM   19  I   UNL     1      -5.379  12.738  68.878  1.00  0.00    -0.074 I  
HETATM   20  C   UNL     1      -8.309  11.754  69.041  1.00  0.00     0.189 A  
BRANCH  15  21
HETATM   21  C   UNL     1      -7.362  15.251  67.666  1.00  0.00    -0.178 C  
HETATM   22  O   UNL     1      -6.438  15.293  66.849  1.00  0.00    -0.153 OA 
HETATM   23  N   UNL     1      -7.786  16.440  68.297  1.00  0.00    -0.162 N  
HETATM   24  C   UNL     1      -8.509  16.525  69.562  1.00  0.00     0.272 C  
BRANCH  23  25
HETATM   25  C   UNL     1      -7.255  17.727  67.784  1.00  0.00    -0.203 C  
BRANCH  25  26
HETATM   26  C   UNL     1      -7.603  18.980  68.617  1.00  0.00    -0.337 C  
HETATM   27  H   UNL     1      -6.681  20.598  69.356  1.00  0.00     0.000 HD 
HETATM   28  O   UNL     1      -6.467  19.827  68.843  1.00  0.00    -0.275 OA 
BRANCH  26  29
HETATM   29  C   UNL     1      -8.653  19.856  67.912  1.00  0.00    -0.290 C  
HETATM   30  H   UNL     1      -9.910  19.663  66.408  1.00  0.00     0.000 HD 
HETATM   31  O   UNL     1      -9.262  19.122  66.844  1.00  0.00    -0.291 OA 
ENDBRANCH  26  29
ENDBRANCH  25  26
ENDBRANCH  23  25
ENDBRANCH  15  21
BRANCH  20  32
HETATM   32  N   UNL     1      -7.850  10.730  69.921  1.00  0.00    -0.328 N  
HETATM   33  C   UNL     1      -7.290   9.548  69.453  1.00  0.00    -0.084 C  
HETATM   34  H   UNL     1      -7.935  10.871  70.928  1.00  0.00     0.000 HD 
HETATM   35  H   UNL     1      -4.881  10.831  72.111  1.00  0.00     0.000 HD 
HETATM   36  H   UNL     1      -5.349   6.294  68.762  1.00  0.00     0.000 HD 
HETATM   37  C   UNL     1      -6.714   8.668  70.567  1.00  0.00    -0.040 C  
HETATM   38  O   UNL     1      -7.193   9.255  68.263  1.00  0.00    -0.076 OA 
HETATM   39  O   UNL     1      -5.484   7.182  69.073  1.00  0.00    -0.017 OA 
HETATM   40  O   UNL     1      -5.696  10.468  71.784  1.00  0.00    -0.315 OA 
HETATM   41  C   UNL     1      -5.406   9.253  71.093  1.00  0.00    -0.043 C  
HETATM   42  C   UNL     1      -6.499   7.243  70.069  1.00  0.00    -0.035 C  
ENDBRANCH  20  32
ENDBRANCH   4  12
TORSDOF 9
ENDMDL
MODEL       72
REMARK 921   NORMALIZED FREE ENERGY PREDICTED BY IDOCK:   -2.76 KCAL/MOL
REMARK 922        TOTAL FREE ENERGY PREDICTED BY IDOCK:   -5.51 KCAL/MOL
REMARK 923 INTER-LIGAND FREE ENERGY PREDICTED BY IDOCK:   -5.31 KCAL/MOL
REMARK 924 INTRA-LIGAND FREE ENERGY PREDICTED BY IDOCK:   -0.21 KCAL/MOL
REMARK 927      BINDING AFFINITY PREDICTED BY RF-SCORE:    0.00 PKD
ROOT
HETATM    1  C   UNL     1     -10.566  17.130  66.810  1.00  0.00    -0.192 C  
HETATM    2  N   UNL     1     -10.543  15.699  67.110  1.00  0.00    -0.305 N  
HETATM    3  O   UNL     1      -9.049  16.105  68.830  1.00  0.00    -0.206 OA 
HETATM    4  C   UNL     1      -9.672  15.296  68.151  1.00  0.00    -0.212 C  
ENDROOT
BRANCH   2   5
HETATM    5  C   UNL     1     -11.613  14.894  66.491  1.00  0.00    -0.252 C  
BRANCH   5   6
HETATM    6  C   UNL     1     -11.316  14.127  65.203  1.00  0.00    -0.336 C  
HETATM    7  H   UNL     1      -9.740  13.724  64.081  1.00  0.00     0.000 HD 
HETATM    8  O   UNL     1      -9.924  14.201  64.882  1.00  0.00    -0.322 OA 
BRANCH   6   9
HETATM    9  C   UNL     1     -11.712  12.649  65.430  1.00  0.00    -0.387 C  
HETATM   10  H   UNL     1     -13.064  11.339  64.781  1.00  0.00     0.000 HD 
HETATM   11  O   UNL     1     -12.821  12.246  64.641  1.00  0.00    -0.665 OA 
ENDBRANCH   6   9
ENDBRANCH   5   6
ENDBRANCH   2   5
BRANCH   4  12
HETATM   12  C   UNL     1      -9.493  13.847  68.503  1.00  0.00    -0.174 A  
HETATM   13  C   UNL     1     -10.499  13.204  69.231  1.00  0.00     0.221 A  
HETATM   14  C   UNL     1      -8.311  13.098  68.196  1.00  0.00    -0.161 A  
HETATM   15  C   UNL     1      -8.261  11.682  68.392  1.00  0.00    -0.155 A  
HETATM   16  I   UNL     1      -6.584  14.177  67.473  1.00  0.00     0.430 I  
HETATM   17  I   UNL     1     -11.783  14.383  70.505  1.00  0.00    -0.179 I  
HETATM   18  C   UNL     1      -9.469  11.050  68.770  1.00  0.00    -0.183 A  
HETATM   19  I   UNL     1      -9.852   9.037  68.089  1.00  0.00    -0.235 I  
HETATM   20  C   UNL     1     -10.560  11.800  69.291  1.00  0.00    -0.008 A  
BRANCH  15  21
HETATM   21  C   UNL     1      -6.986  10.909  68.086  1.00  0.00    -0.069 C  
HETATM   22  O   UNL     1      -6.179  10.745  69.005  1.00  0.00    -0.041 OA 
HETATM   23  N   UNL     1      -6.745  10.304  66.834  1.00  0.00    -0.078 N  
HETATM   24  C   UNL     1      -7.306  10.731  65.556  1.00  0.00     0.016 C  
BRANCH  23  25
HETATM   25  C   UNL     1      -5.647   9.309  66.742  1.00  0.00    -0.043 C  
BRANCH  25  26
HETATM   26  C   UNL     1      -6.067   7.878  66.341  1.00  0.00    -0.045 C  
HETATM   27  H   UNL     1      -5.457   6.423  65.107  1.00  0.00     0.000 HD 
HETATM   28  O   UNL     1      -5.199   7.304  65.353  1.00  0.00    -0.027 OA 
BRANCH  26  29
HETATM   29  C   UNL     1      -6.035   6.920  67.544  1.00  0.00    -0.028 C  
HETATM   30  H   UNL     1      -7.185   5.501  68.282  1.00  0.00     0.000 HD 
HETATM   31  O   UNL     1      -7.204   6.093  67.539  1.00  0.00    -0.072 OA 
ENDBRANCH  26  29
ENDBRANCH  25  26
ENDBRANCH  23  25
ENDBRANCH  15  21
BRANCH  20  32
HETATM   32  N   UNL     1     -11.760  11.208  69.782  1.00  0.00    -0.312 N  
HETATM   33  C   UNL     1     -11.749  10.155  70.687  1.00  0.00    -0.338 C  
HETATM   34  H   UNL     1     -12.657  11.571  69.458  1.00  0.00     0.000 HD 
HETATM   35  H   UNL     1     -14.193  12.702  72.121  1.00  0.00     0.000 HD 
HETATM   36  H   UNL     1     -12.336   7.519  73.434  1.00  0.00     0.000 HD 
HETATM   37  C   UNL     1     -13.144   9.788  71.207  1.00  0.00    -0.465 C  
HETATM   38  O   UNL     1     -10.727   9.607  71.096  1.00  0.00    -0.329 OA 
HETATM   39  O   UNL     1     -12.344   8.382  73.034  1.00  0.00    -0.220 OA 
HETATM   40  O   UNL     1     -13.886  12.051  71.501  1.00  0.00     0.416 OA 
HETATM   41  C   UNL     1     -13.638  10.834  72.204  1.00  0.00     0.005 C  
HETATM   42  C   UNL     1     -13.131   8.405  71.848  1.00  0.00    -0.358 C  
ENDBRANCH  20  32
ENDBRANCH   4  12
TORSDOF 9
ENDMDL
MODEL       73
REMARK 921   NORMALIZED FREE ENERGY PREDICTED BY IDOCK:   -2.71 KCAL/MOL
REMARK 922        TOTAL FREE ENERGY PREDICTED BY IDOCK:   -5.44 KCAL/MOL
REMARK 923 INTER-LIGAND FREE ENERGY PREDICTED BY IDOCK:   -4.28 KCAL/MOL
REMARK 924 INTRA-LIGAND FREE ENERGY PREDICTED BY IDOCK:   -1.17 KCAL/MOL
REMARK 927      BINDING AFFINITY PREDICTED BY RF-SCORE:    0.00 PKD
ROOT
HETATM    1  C   UNL     1     -10.029   6.595  74.512  1.00  0.00    -0.288 C  
HETATM    2  N   UNL     1      -9.435   6.893  73.210  1.00  0.00    -0.147 N  
HETATM    3  O   UNL     1     -11.312   6.017  72.177  1.00  0.00    -0.274 OA 
HETATM    4  C   UNL     1     -10.187   6.494  72.077  1.00  0.00    -0.193 C  
ENDROOT
BRANCH   2   5
HETATM    5  C   UNL     1      -8.275   7.804  73.224  1.00  0.00    -0.158 C  
BRANCH   5   6
HETATM    6  C   UNL     1      -6.946   7.326  72.641  1.00  0.00    -0.068 C  
HETATM    7  H   UNL     1      -5.087   7.987  72.526  1.00  0.00     0.000 HD 
HETATM    8  O   UNL     1      -5.913   8.284  72.888  1.00  0.00    -0.057 OA 
BRANCH   6   9
HETATM    9  C   UNL     1      -6.581   5.990  73.330  1.00  0.00    -0.074 C  
HETATM   10  H   UNL     1      -6.464   4.052  72.884  1.00  0.00     0.000 HD 
HETATM   11  O   UNL     1      -6.688   4.872  72.461  1.00  0.00    -0.052 OA 
ENDBRANCH   6   9
ENDBRANCH   5   6
ENDBRANCH   2   5
BRANCH   4  12
HETATM   12  C   UNL     1      -9.652   6.667  70.684  1.00  0.00    -0.177 A  
HETATM   13  C   UNL     1      -9.587   7.957  70.147  1.00  0.00    -0.175 A  
HETATM   14  C   UNL     1      -9.270   5.574  69.842  1.00  0.00    -0.138 A  
HETATM   15  C   UNL     1      -8.603   5.799  68.596  1.00  0.00    -0.109 A  
HETATM   16  I   UNL     1      -9.773   3.573  70.482  1.00  0.00     0.201 I  
HETATM   17  I   UNL     1     -10.943   9.466  70.885  1.00  0.00    -0.455 I  
HETATM   18  C   UNL     1      -8.224   7.132  68.310  1.00  0.00    -0.124 A  
HETATM   19  I   UNL     1      -6.424   7.485  67.171  1.00  0.00    -0.066 I  
HETATM   20  C   UNL     1      -8.795   8.227  69.016  1.00  0.00    -0.143 A  
BRANCH  15  21
HETATM   21  C   UNL     1      -8.229   4.625  67.702  1.00  0.00    -0.100 C  
HETATM   22  O   UNL     1      -7.138   4.081  67.895  1.00  0.00    -0.057 OA 
HETATM   23  N   UNL     1      -9.113   4.088  66.742  1.00  0.00    -0.132 N  
HETATM   24  C   UNL     1     -10.191   4.810  66.075  1.00  0.00    -0.278 C  
BRANCH  23  25
HETATM   25  C   UNL     1      -8.789   2.760  66.165  1.00  0.00    -0.140 C  
BRANCH  25  26
HETATM   26  C   UNL     1      -8.397   2.751  64.671  1.00  0.00    -0.087 C  
HETATM   27  H   UNL     1      -6.885   2.121  63.518  1.00  0.00     0.000 HD 
HETATM   28  O   UNL     1      -7.126   2.127  64.437  1.00  0.00    -0.049 OA 
BRANCH  26  29
HETATM   29  C   UNL     1      -9.416   1.972  63.822  1.00  0.00    -0.119 C  
HETATM   30  H   UNL     1     -10.174   2.102  62.009  1.00  0.00     0.000 HD 
HETATM   31  O   UNL     1      -9.544   2.583  62.534  1.00  0.00    -0.090 OA 
ENDBRANCH  26  29
ENDBRANCH  25  26
ENDBRANCH  23  25
ENDBRANCH  15  21
BRANCH  20  32
HETATM   32  N   UNL     1      -8.530   9.592  68.703  1.00  0.00    -0.117 N  
HETATM   33  C   UNL     1      -7.562  10.330  69.372  1.00  0.00    -0.137 C  
HETATM   34  H   UNL     1      -9.069  10.041  67.963  1.00  0.00     0.000 HD 
HETATM   35  H   UNL     1      -6.903  10.912  65.665  1.00  0.00     0.000 HD 
HETATM   36  H   UNL     1      -4.805  12.724  70.599  1.00  0.00     0.000 HD 
HETATM   37  C   UNL     1      -7.329  11.717  68.763  1.00  0.00    -0.118 C  
HETATM   38  O   UNL     1      -6.898   9.903  70.315  1.00  0.00    -0.106 OA 
HETATM   39  O   UNL     1      -5.265  12.161  69.986  1.00  0.00    -0.075 OA 
HETATM   40  O   UNL     1      -7.387  10.981  66.479  1.00  0.00    -0.138 OA 
HETATM   41  C   UNL     1      -6.552  11.606  67.454  1.00  0.00    -0.106 C  
HETATM   42  C   UNL     1      -6.591  12.619  69.746  1.00  0.00     0.066 C  
ENDBRANCH  20  32
ENDBRANCH   4  12
TORSDOF 9
ENDMDL
MODEL       74
REMARK 921   NORMALIZED FREE ENERGY PREDICTED BY IDOCK:   -2.68 KCAL/MOL
REMARK 922        TOTAL FREE ENERGY PREDICTED BY IDOCK:   -5.40 KCAL/MOL
REMARK 923 INTER-LIGAND FREE ENERGY PREDICTED BY IDOCK:   -5.13 KCAL/MOL
REMARK 924 INTRA-LIGAND FREE ENERGY PREDICTED BY IDOCK:   -0.27 KCAL/MOL
REMARK 927      BINDING AFFINITY PREDICTED BY RF-SCORE:    0.00 PKD
ROOT
HETATM    1  C   UNL     1      -6.008   5.650  64.622  1.00  0.00    -0.022 C  
HETATM    2  N   UNL     1      -6.941   6.386  65.473  1.00  0.00    -0.052 N  
HETATM    3  O   UNL     1      -5.155   7.513  66.420  1.00  0.00    -0.023 OA 
HETATM    4  C   UNL     1      -6.360   7.287  66.399  1.00  0.00    -0.044 C  
ENDROOT
BRANCH   2   5
HETATM    5  C   UNL     1      -8.362   6.310  65.087  1.00  0.00    -0.119 C  
BRANCH   5   6
HETATM    6  C   UNL     1      -9.171   5.069  65.466  1.00  0.00    -0.151 C  
HETATM    7  H   UNL     1      -9.398   3.222  64.801  1.00  0.00     0.000 HD 
HETATM    8  O   UNL     1      -8.896   3.993  64.565  1.00  0.00    -0.119 OA 
BRANCH   6   9
HETATM    9  C   UNL     1      -8.758   4.656  66.898  1.00  0.00    -0.107 C  
HETATM   10  H   UNL     1      -9.423   4.845  68.767  1.00  0.00     0.000 HD 
HETATM   11  O   UNL     1      -9.676   5.099  67.887  1.00  0.00    -0.133 OA 
ENDBRANCH   6   9
ENDBRANCH   5   6
ENDBRANCH   2   5
BRANCH   4  12
HETATM   12  C   UNL     1      -7.202   8.042  67.387  1.00  0.00    -0.088 A  
HETATM   13  C   UNL     1      -7.939   9.142  66.937  1.00  0.00    -0.105 A  
HETATM   14  C   UNL     1      -7.238   7.744  68.787  1.00  0.00    -0.081 A  
HETATM   15  C   UNL     1      -8.187   8.374  69.653  1.00  0.00    -0.117 A  
HETATM   16  I   UNL     1      -5.785   6.348  69.567  1.00  0.00    -0.015 I  
HETATM   17  I   UNL     1      -7.257  10.213  65.190  1.00  0.00    -0.054 I  
HETATM   18  C   UNL     1      -9.163   9.193  69.038  1.00  0.00    -0.143 A  
HETATM   19  I   UNL     1     -11.133   9.307  69.912  1.00  0.00    -0.044 I  
HETATM   20  C   UNL     1      -8.992   9.668  67.708  1.00  0.00    -0.118 A  
BRANCH  15  21
HETATM   21  C   UNL     1      -8.191   8.064  71.144  1.00  0.00    -0.106 C  
HETATM   22  O   UNL     1      -7.769   8.932  71.912  1.00  0.00    -0.310 OA 
HETATM   23  N   UNL     1      -8.739   6.875  71.672  1.00  0.00    -0.125 N  
HETATM   24  C   UNL     1      -8.861   5.603  70.967  1.00  0.00    -0.137 C  
BRANCH  23  25
HETATM   25  C   UNL     1      -8.994   6.817  73.133  1.00  0.00    -0.127 C  
BRANCH  25  26
HETATM   26  C   UNL     1     -10.477   6.772  73.557  1.00  0.00    -0.330 C  
HETATM   27  H   UNL     1     -11.987   8.048  73.880  1.00  0.00     0.000 HD 
HETATM   28  O   UNL     1     -11.074   8.076  73.620  1.00  0.00     0.045 OA 
BRANCH  26  29
HETATM   29  C   UNL     1     -11.327   5.963  72.562  1.00  0.00    -0.304 C  
HETATM   30  H   UNL     1     -12.249   4.223  72.543  1.00  0.00     0.000 HD 
HETATM   31  O   UNL     1     -11.725   4.723  73.158  1.00  0.00    -0.298 OA 
ENDBRANCH  26  29
ENDBRANCH  25  26
ENDBRANCH  23  25
ENDBRANCH  15  21
BRANCH  20  32
HETATM   32  N   UNL     1      -9.888  10.577  67.074  1.00  0.00    -0.177 N  
HETATM   33  C   UNL     1      -9.800  11.951  67.254  1.00  0.00    -0.187 C  
HETATM   34  H   UNL     1     -10.619  10.205  66.467  1.00  0.00     0.000 HD 
HETATM   35  H   UNL     1     -10.036  11.435  63.487  1.00  0.00     0.000 HD 
HETATM   36  H   UNL     1      -9.810  15.798  67.084  1.00  0.00     0.000 HD 
HETATM   37  C   UNL     1     -10.751  12.743  66.351  1.00  0.00    -0.282 C  
HETATM   38  O   UNL     1      -8.996  12.497  68.007  1.00  0.00    -0.179 OA 
HETATM   39  O   UNL     1      -9.707  14.910  66.763  1.00  0.00    -0.234 OA 
HETATM   40  O   UNL     1     -10.352  11.430  64.383  1.00  0.00    -0.272 OA 
HETATM   41  C   UNL     1     -10.243  12.751  64.912  1.00  0.00    -0.272 C  
HETATM   42  C   UNL     1     -10.918  14.169  66.866  1.00  0.00    -0.300 C  
ENDBRANCH  20  32
ENDBRANCH   4  12
TORSDOF 9
ENDMDL
MODEL       75
REMARK 921   NORMALIZED FREE ENERGY PREDICTED BY IDOCK:   -2.62 KCAL/MOL
REMARK 922        TOTAL FREE ENERGY PREDICTED BY IDOCK:   -5.30 KCAL/MOL
REMARK 923 INTER-LIGAND FREE ENERGY PREDICTED BY IDOCK:   -4.44 KCAL/MOL
REMARK 924 INTRA-LIGAND FREE ENERGY PREDICTED BY IDOCK:   -0.86 KCAL/MOL
REMARK 927      BINDING AFFINITY PREDICTED BY RF-SCORE:    0.00 PKD
ROOT
HETATM    1  C   UNL     1      -9.249   9.394  63.389  1.00  0.00     0.138 C  
HETATM    2  N   UNL     1      -8.720  10.111  64.548  1.00  0.00    -0.181 N  
HETATM    3  O   UNL     1     -10.578   9.468  65.768  1.00  0.00     0.080 OA 
HETATM    4  C   UNL     1      -9.537  10.111  65.706  1.00  0.00    -0.230 C  
ENDROOT
BRANCH   2   5
HETATM    5  C   UNL     1      -7.301  10.507  64.468  1.00  0.00     0.080 C  
BRANCH   5   6
HETATM    6  C   UNL     1      -6.250   9.661  65.187  1.00  0.00    -0.081 C  
HETATM    7  H   UNL     1      -5.032   8.170  64.743  1.00  0.00     0.000 HD 
HETATM    8  O   UNL     1      -5.684   8.696  64.296  1.00  0.00    -0.063 OA 
BRANCH   6   9
HETATM    9  C   UNL     1      -5.138  10.612  65.686  1.00  0.00    -0.106 C  
HETATM   10  H   UNL     1      -4.963  12.414  66.517  1.00  0.00     0.000 HD 
HETATM   11  O   UNL     1      -5.646  11.830  66.211  1.00  0.00    -0.269 OA 
ENDBRANCH   6   9
ENDBRANCH   5   6
ENDBRANCH   2   5
BRANCH   4  12
HETATM   12  C   UNL     1      -9.147  10.879  66.936  1.00  0.00    -0.164 A  
HETATM   13  C   UNL     1      -8.430  10.219  67.939  1.00  0.00    -0.118 A  
HETATM   14  C   UNL     1      -9.532  12.237  67.177  1.00  0.00    -0.196 A  
HETATM   15  C   UNL     1      -8.989  12.977  68.274  1.00  0.00    -0.177 A  
HETATM   16  I   UNL     1     -10.996  13.127  65.860  1.00  0.00    -0.319 I  
HETATM   17  I   UNL     1      -8.624   8.076  68.126  1.00  0.00    -0.123 I  
HETATM   18  C   UNL     1      -7.963  12.348  69.018  1.00  0.00     0.270 A  
HETATM   19  I   UNL     1      -6.405  13.565  69.886  1.00  0.00     0.135 I  
HETATM   20  C   UNL     1      -7.746  10.944  68.932  1.00  0.00    -0.135 A  
BRANCH  15  21
HETATM   21  C   UNL     1      -9.432  14.411  68.529  1.00  0.00    -0.212 C  
HETATM   22  O   UNL     1     -10.460  14.586  69.188  1.00  0.00    -0.242 OA 
HETATM   23  N   UNL     1      -8.668  15.526  68.124  1.00  0.00    -0.163 N  
HETATM   24  C   UNL     1      -7.727  15.558  67.010  1.00  0.00    -0.210 C  
BRANCH  23  25
HETATM   25  C   UNL     1      -9.010  16.850  68.701  1.00  0.00    -0.266 C  
BRANCH  25  26
HETATM   26  C   UNL     1      -8.937  18.048  67.730  1.00  0.00    -0.255 C  
HETATM   27  H   UNL     1     -10.188  19.224  66.698  1.00  0.00     0.000 HD 
HETATM   28  O   UNL     1     -10.232  18.487  67.295  1.00  0.00    -0.334 OA 
BRANCH  26  29
HETATM   29  C   UNL     1      -8.273  19.270  68.387  1.00  0.00    -0.347 C  
HETATM   30  H   UNL     1      -6.556  20.224  68.240  1.00  0.00     0.000 HD 
HETATM   31  O   UNL     1      -6.967  19.470  67.835  1.00  0.00    -0.241 OA 
ENDBRANCH  26  29
ENDBRANCH  25  26
ENDBRANCH  23  25
ENDBRANCH  15  21
BRANCH  20  32
HETATM   32  N   UNL     1      -6.799  10.242  69.733  1.00  0.00    -0.102 N  
HETATM   33  C   UNL     1      -7.174   9.506  70.849  1.00  0.00    -0.044 C  
HETATM   34  H   UNL     1      -5.812  10.282  69.477  1.00  0.00     0.000 HD 
HETATM   35  H   UNL     1      -4.921   7.199  68.820  1.00  0.00     0.000 HD 
HETATM   36  H   UNL     1      -7.653   7.046  73.773  1.00  0.00     0.000 HD 
HETATM   37  C   UNL     1      -6.022   8.700  71.458  1.00  0.00    -0.050 C  
HETATM   38  O   UNL     1      -8.325   9.439  71.276  1.00  0.00    -0.308 OA 
HETATM   39  O   UNL     1      -7.438   7.321  72.889  1.00  0.00    -0.075 OA 
HETATM   40  O   UNL     1      -5.125   7.952  69.362  1.00  0.00    -0.018 OA 
HETATM   41  C   UNL     1      -5.692   7.490  70.587  1.00  0.00    -0.027 C  
HETATM   42  C   UNL     1      -6.366   8.257  72.877  1.00  0.00    -0.086 C  
ENDBRANCH  20  32
ENDBRANCH   4  12
TORSDOF 9
ENDMDL
MODEL       76
REMARK 921   NORMALIZED FREE ENERGY PREDICTED BY IDOCK:   -2.62 KCAL/MOL
REMARK 922        TOTAL FREE ENERGY PREDICTED BY IDOCK:   -5.30 KCAL/MOL
REMARK 923 INTER-LIGAND FREE ENERGY PREDICTED BY IDOCK:   -4.60 KCAL/MOL
REMARK 924 INTRA-LIGAND FREE ENERGY PREDICTED BY IDOCK:   -0.70 KCAL/MOL
REMARK 927      BINDING AFFINITY PREDICTED BY RF-SCORE:    0.00 PKD
ROOT
HETATM    1  C   UNL     1     -10.660  13.326  67.664  1.00  0.00    -0.236 C  
HETATM    2  N   UNL     1      -9.948  12.060  67.832  1.00  0.00    -0.192 N  
HETATM    3  O   UNL     1     -11.462  11.042  66.408  1.00  0.00    -0.183 OA 
HETATM    4  C   UNL     1     -10.502  10.940  67.164  1.00  0.00    -0.237 C  
ENDROOT
BRANCH   2   5
HETATM    5  C   UNL     1      -8.607  12.152  68.441  1.00  0.00    -0.141 C  
BRANCH   5   6
HETATM    6  C   UNL     1      -7.550  13.038  67.782  1.00  0.00    -0.152 C  
HETATM    7  H   UNL     1      -6.862  14.879  67.988  1.00  0.00     0.000 HD 
HETATM    8  O   UNL     1      -7.519  14.329  68.398  1.00  0.00    -0.105 OA 
BRANCH   6   9
HETATM    9  C   UNL     1      -6.177  12.350  67.963  1.00  0.00    -0.082 C  
HETATM   10  H   UNL     1      -4.339  12.441  67.201  1.00  0.00     0.000 HD 
HETATM   11  O   UNL     1      -5.182  12.864  67.089  1.00  0.00    -0.334 OA 
ENDBRANCH   6   9
ENDBRANCH   5   6
ENDBRANCH   2   5
BRANCH   4  12
HETATM   12  C   UNL     1      -9.914   9.567  67.323  1.00  0.00    -0.244 A  
HETATM   13  C   UNL     1     -10.295   8.798  68.427  1.00  0.00    -0.204 A  
HETATM   14  C   UNL     1      -8.925   9.024  66.442  1.00  0.00    -0.155 A  
HETATM   15  C   UNL     1      -8.529   7.651  66.530  1.00  0.00    -0.133 A  
HETATM   16  I   UNL     1      -8.007  10.349  65.003  1.00  0.00     0.044 I  
HETATM   17  I   UNL     1     -10.972   9.801  70.216  1.00  0.00    -0.415 I  
HETATM   18  C   UNL     1      -9.257   6.838  67.431  1.00  0.00    -0.127 A  
HETATM   19  I   UNL     1      -9.555   4.754  66.949  1.00  0.00    -0.253 I  
HETATM   20  C   UNL     1     -10.064   7.411  68.453  1.00  0.00    -0.177 A  
BRANCH  15  21
HETATM   21  C   UNL     1      -7.456   7.100  65.602  1.00  0.00    -0.082 C  
HETATM   22  O   UNL     1      -6.303   7.029  66.037  1.00  0.00    -0.044 OA 
HETATM   23  N   UNL     1      -7.748   6.589  64.320  1.00  0.00    -0.100 N  
HETATM   24  C   UNL     1      -8.883   6.971  63.486  1.00  0.00     0.990 C  
BRANCH  23  25
HETATM   25  C   UNL     1      -6.705   5.782  63.639  1.00  0.00    -0.037 C  
BRANCH  25  26
HETATM   26  C   UNL     1      -6.780   4.256  63.863  1.00  0.00    -0.043 C  
HETATM   27  H   UNL     1      -6.650   2.951  65.378  1.00  0.00     0.000 HD 
HETATM   28  O   UNL     1      -6.604   3.890  65.240  1.00  0.00    -0.041 OA 
BRANCH  26  29
HETATM   29  C   UNL     1      -8.146   3.688  63.444  1.00  0.00    -0.088 C  
HETATM   30  H   UNL     1      -9.101   1.973  63.606  1.00  0.00     0.000 HD 
HETATM   31  O   UNL     1      -8.257   2.325  63.866  1.00  0.00    -0.080 OA 
ENDBRANCH  26  29
ENDBRANCH  25  26
ENDBRANCH  23  25
ENDBRANCH  15  21
BRANCH  20  32
HETATM   32  N   UNL     1     -10.735   6.645  69.450  1.00  0.00    -0.237 N  
HETATM   33  C   UNL     1     -10.169   6.387  70.692  1.00  0.00    -0.190 C  
HETATM   34  H   UNL     1     -11.663   6.274  69.244  1.00  0.00     0.000 HD 
HETATM   35  H   UNL     1     -13.690   7.644  71.423  1.00  0.00     0.000 HD 
HETATM   36  H   UNL     1      -9.278   5.677  74.371  1.00  0.00     0.000 HD 
HETATM   37  C   UNL     1     -11.129   5.692  71.663  1.00  0.00    -0.249 C  
HETATM   38  O   UNL     1      -9.037   6.738  71.019  1.00  0.00    -0.154 OA 
HETATM   39  O   UNL     1      -9.757   6.064  73.646  1.00  0.00    -0.151 OA 
HETATM   40  O   UNL     1     -13.039   7.031  71.100  1.00  0.00    -0.345 OA 
HETATM   41  C   UNL     1     -12.176   6.676  72.180  1.00  0.00    -0.228 C  
HETATM   42  C   UNL     1     -10.362   5.071  72.825  1.00  0.00    -0.195 C  
ENDBRANCH  20  32
ENDBRANCH   4  12
TORSDOF 9
ENDMDL
MODEL       77
REMARK 921   NORMALIZED FREE ENERGY PREDICTED BY IDOCK:   -2.60 KCAL/MOL
REMARK 922        TOTAL FREE ENERGY PREDICTED BY IDOCK:   -5.27 KCAL/MOL
REMARK 923 INTER-LIGAND FREE ENERGY PREDICTED BY IDOCK:   -6.08 KCAL/MOL
REMARK 924 INTRA-LIGAND FREE ENERGY PREDICTED BY IDOCK:    0.81 KCAL/MOL
REMARK 927      BINDING AFFINITY PREDICTED BY RF-SCORE:    0.00 PKD
ROOT
HETATM    1  C   UNL     1     -14.124  13.102  71.837  1.00  0.00     0.112 C  
HETATM    2  N   UNL     1     -12.787  12.818  71.317  1.00  0.00    -0.327 N  
HETATM    3  O   UNL     1     -13.625  10.945  70.247  1.00  0.00     0.450 OA 
HETATM    4  C   UNL     1     -12.658  11.636  70.546  1.00  0.00    -0.179 C  
ENDROOT
BRANCH   2   5
HETATM    5  C   UNL     1     -11.809  13.917  71.422  1.00  0.00     0.251 C  
BRANCH   5   6
HETATM    6  C   UNL     1     -12.305  15.327  71.740  1.00  0.00    -0.358 C  
HETATM    7  H   UNL     1     -13.783  16.510  71.173  1.00  0.00     0.000 HD 
HETATM    8  O   UNL     1     -13.475  15.633  70.975  1.00  0.00    -0.575 OA 
BRANCH   6   9
HETATM    9  C   UNL     1     -12.650  15.379  73.246  1.00  0.00    -0.499 C  
HETATM   10  H   UNL     1     -13.869  16.364  74.476  1.00  0.00     0.000 HD 
HETATM   11  O   UNL     1     -13.657  16.332  73.550  1.00  0.00    -0.642 OA 
ENDBRANCH   6   9
ENDBRANCH   5   6
ENDBRANCH   2   5
BRANCH   4  12
HETATM   12  C   UNL     1     -11.324  11.187  70.024  1.00  0.00    -0.326 A  
HETATM   13  C   UNL     1     -10.702  11.949  69.028  1.00  0.00    -0.156 A  
HETATM   14  C   UNL     1     -10.679   9.977  70.436  1.00  0.00    -0.307 A  
HETATM   15  C   UNL     1      -9.335   9.684  70.044  1.00  0.00    -0.276 A  
HETATM   16  I   UNL     1     -11.813   8.577  71.630  1.00  0.00    -0.457 I  
HETATM   17  I   UNL     1     -11.925  13.158  67.722  1.00  0.00    -0.026 I  
HETATM   18  C   UNL     1      -8.639  10.703  69.352  1.00  0.00    -0.030 A  
HETATM   19  I   UNL     1      -6.507  10.893  69.638  1.00  0.00    -0.134 I  
HETATM   20  C   UNL     1      -9.333  11.789  68.749  1.00  0.00    -0.009 A  
BRANCH  15  21
HETATM   21  C   UNL     1      -8.677   8.379  70.471  1.00  0.00    -0.147 C  
HETATM   22  O   UNL     1      -8.103   8.356  71.563  1.00  0.00    -0.113 OA 
HETATM   23  N   UNL     1      -8.781   7.192  69.715  1.00  0.00    -0.141 N  
HETATM   24  C   UNL     1      -9.000   7.113  68.274  1.00  0.00    -0.125 C  
BRANCH  23  25
HETATM   25  C   UNL     1      -8.396   5.916  70.368  1.00  0.00    -0.123 C  
BRANCH  25  26
HETATM   26  C   UNL     1      -9.544   4.915  70.620  1.00  0.00    -0.186 C  
HETATM   27  H   UNL     1     -10.700   3.659  69.572  1.00  0.00     0.000 HD 
HETATM   28  O   UNL     1      -9.994   4.275  69.417  1.00  0.00    -0.183 OA 
BRANCH  26  29
HETATM   29  C   UNL     1      -9.112   3.784  71.568  1.00  0.00    -0.114 C  
HETATM   30  H   UNL     1      -9.992   2.536  72.812  1.00  0.00     0.000 HD 
HETATM   31  O   UNL     1     -10.259   3.235  72.226  1.00  0.00    -0.160 OA 
ENDBRANCH  26  29
ENDBRANCH  25  26
ENDBRANCH  23  25
ENDBRANCH  15  21
BRANCH  20  32
HETATM   32  N   UNL     1      -8.698  12.787  67.954  1.00  0.00    -0.176 N  
HETATM   33  C   UNL     1      -8.568  14.102  68.381  1.00  0.00    -0.176 C  
HETATM   34  H   UNL     1      -8.326  12.526  67.040  1.00  0.00     0.000 HD 
HETATM   35  H   UNL     1      -5.100  13.076  67.184  1.00  0.00     0.000 HD 
HETATM   36  H   UNL     1      -7.602  17.744  69.178  1.00  0.00     0.000 HD 
HETATM   37  C   UNL     1      -7.708  14.960  67.447  1.00  0.00    -0.231 C  
HETATM   38  O   UNL     1      -9.030  14.533  69.436  1.00  0.00     0.042 OA 
HETATM   39  O   UNL     1      -7.461  16.819  69.008  1.00  0.00    -0.229 OA 
HETATM   40  O   UNL     1      -6.019  13.294  67.087  1.00  0.00    -0.304 OA 
HETATM   41  C   UNL     1      -6.231  14.609  67.602  1.00  0.00    -0.084 C  
HETATM   42  C   UNL     1      -7.935  16.444  67.720  1.00  0.00    -0.149 C  
ENDBRANCH  20  32
ENDBRANCH   4  12
TORSDOF 9
ENDMDL
MODEL       78
REMARK 921   NORMALIZED FREE ENERGY PREDICTED BY IDOCK:   -2.60 KCAL/MOL
REMARK 922        TOTAL FREE ENERGY PREDICTED BY IDOCK:   -5.27 KCAL/MOL
REMARK 923 INTER-LIGAND FREE ENERGY PREDICTED BY IDOCK:   -5.90 KCAL/MOL
REMARK 924 INTRA-LIGAND FREE ENERGY PREDICTED BY IDOCK:    0.63 KCAL/MOL
REMARK 927      BINDING AFFINITY PREDICTED BY RF-SCORE:    0.00 PKD
ROOT
HETATM    1  C   UNL     1     -10.854  14.385  66.317  1.00  0.00    -0.313 C  
HETATM    2  N   UNL     1     -10.698  12.948  66.536  1.00  0.00    -0.267 N  
HETATM    3  O   UNL     1      -9.099  13.390  68.150  1.00  0.00    -0.197 OA 
HETATM    4  C   UNL     1      -9.714  12.566  67.481  1.00  0.00    -0.196 C  
ENDROOT
BRANCH   2   5
HETATM    5  C   UNL     1     -11.754  12.091  65.963  1.00  0.00    -0.241 C  
BRANCH   5   6
HETATM    6  C   UNL     1     -12.771  12.707  65.003  1.00  0.00    -0.324 C  
HETATM    7  H   UNL     1     -13.976  14.273  64.970  1.00  0.00     0.000 HD 
HETATM    8  O   UNL     1     -13.344  13.890  65.567  1.00  0.00    -0.662 OA 
BRANCH   6   9
HETATM    9  C   UNL     1     -12.029  13.070  63.696  1.00  0.00    -0.539 C  
HETATM   10  H   UNL     1     -10.965  12.169  62.273  1.00  0.00     0.000 HD 
HETATM   11  O   UNL     1     -11.421  11.946  63.076  1.00  0.00    -0.193 OA 
ENDBRANCH   6   9
ENDBRANCH   5   6
ENDBRANCH   2   5
BRANCH   4  12
HETATM   12  C   UNL     1      -9.398  11.121  67.738  1.00  0.00    -0.166 A  
HETATM   13  C   UNL     1      -8.611  10.431  66.810  1.00  0.00    -0.124 A  
HETATM   14  C   UNL     1      -9.919  10.382  68.849  1.00  0.00    -0.199 A  
HETATM   15  C   UNL     1      -9.448   9.064  69.147  1.00  0.00    -0.153 A  
HETATM   16  I   UNL     1     -11.475  11.297  70.037  1.00  0.00    -0.142 I  
HETATM   17  I   UNL     1      -8.583  11.104  64.758  1.00  0.00     0.558 I  
HETATM   18  C   UNL     1      -8.358   8.591  68.379  1.00  0.00    -0.124 A  
HETATM   19  I   UNL     1      -6.928   7.263  69.303  1.00  0.00    -0.074 I  
HETATM   20  C   UNL     1      -7.999   9.211  67.150  1.00  0.00    -0.106 A  
BRANCH  15  21
HETATM   21  C   UNL     1     -10.034   8.285  70.316  1.00  0.00    -0.186 C  
HETATM   22  O   UNL     1      -9.665   8.592  71.453  1.00  0.00    -0.180 OA 
HETATM   23  N   UNL     1     -11.038   7.307  70.152  1.00  0.00    -0.266 N  
HETATM   24  C   UNL     1     -11.271   6.516  68.948  1.00  0.00    -0.264 C  
BRANCH  23  25
HETATM   25  C   UNL     1     -11.769   6.851  71.360  1.00  0.00    -0.316 C  
BRANCH  25  26
HETATM   26  C   UNL     1     -11.278   5.527  71.985  1.00  0.00    -0.156 C  
HETATM   27  H   UNL     1      -9.649   4.362  71.951  1.00  0.00     0.000 HD 
HETATM   28  O   UNL     1      -9.951   5.176  71.567  1.00  0.00    -0.172 OA 
BRANCH  26  29
HETATM   29  C   UNL     1     -11.233   5.607  73.520  1.00  0.00    -0.010 C  
HETATM   30  H   UNL     1     -10.593   6.886  74.875  1.00  0.00     0.000 HD 
HETATM   31  O   UNL     1     -10.622   6.836  73.926  1.00  0.00    -0.350 OA 
ENDBRANCH  26  29
ENDBRANCH  25  26
ENDBRANCH  23  25
ENDBRANCH  15  21
BRANCH  20  32
HETATM   32  N   UNL     1      -6.980   8.716  66.286  1.00  0.00    -0.076 N  
HETATM   33  C   UNL     1      -7.239   7.776  65.297  1.00  0.00    -0.068 C  
HETATM   34  H   UNL     1      -6.028   9.065  66.397  1.00  0.00     0.000 HD 
HETATM   35  H   UNL     1      -5.269  10.543  63.573  1.00  0.00     0.000 HD 
HETATM   36  H   UNL     1      -7.428   5.496  62.199  1.00  0.00     0.000 HD 
HETATM   37  C   UNL     1      -6.040   7.513  64.380  1.00  0.00    -0.038 C  
HETATM   38  O   UNL     1      -8.336   7.249  65.117  1.00  0.00    -0.134 OA 
HETATM   39  O   UNL     1      -7.310   6.306  62.682  1.00  0.00    -0.050 OA 
HETATM   40  O   UNL     1      -5.398   9.816  64.171  1.00  0.00    -0.064 OA 
HETATM   41  C   UNL     1      -5.831   8.682  63.420  1.00  0.00    -0.077 C  
HETATM   42  C   UNL     1      -6.230   6.214  63.605  1.00  0.00    -0.029 C  
ENDBRANCH  20  32
ENDBRANCH   4  12
TORSDOF 9
ENDMDL
MODEL       79
REMARK 921   NORMALIZED FREE ENERGY PREDICTED BY IDOCK:   -2.57 KCAL/MOL
REMARK 922        TOTAL FREE ENERGY PREDICTED BY IDOCK:   -5.22 KCAL/MOL
REMARK 923 INTER-LIGAND FREE ENERGY PREDICTED BY IDOCK:   -5.74 KCAL/MOL
REMARK 924 INTRA-LIGAND FREE ENERGY PREDICTED BY IDOCK:    0.52 KCAL/MOL
REMARK 927      BINDING AFFINITY PREDICTED BY RF-SCORE:    0.00 PKD
ROOT
HETATM    1  C   UNL     1      -5.129  16.177  69.809  1.00  0.00    -0.120 C  
HETATM    2  N   UNL     1      -5.716  15.207  68.886  1.00  0.00    -0.093 N  
HETATM    3  O   UNL     1      -6.898  14.278  70.645  1.00  0.00     0.091 OA 
HETATM    4  C   UNL     1      -6.580  14.243  69.461  1.00  0.00    -0.134 C  
ENDROOT
BRANCH   2   5
HETATM    5  C   UNL     1      -5.561  15.510  67.450  1.00  0.00     0.098 C  
BRANCH   5   6
HETATM    6  C   UNL     1      -5.727  16.952  66.972  1.00  0.00    -0.170 C  
HETATM    7  H   UNL     1      -6.519  17.887  65.422  1.00  0.00     0.000 HD 
HETATM    8  O   UNL     1      -6.416  16.991  65.719  1.00  0.00     0.061 OA 
BRANCH   6   9
HETATM    9  C   UNL     1      -6.555  17.710  68.035  1.00  0.00    -0.182 C  
HETATM   10  H   UNL     1      -6.742  19.557  68.758  1.00  0.00     0.000 HD 
HETATM   11  O   UNL     1      -6.233  19.092  68.105  1.00  0.00    -0.212 OA 
ENDBRANCH   6   9
ENDBRANCH   5   6
ENDBRANCH   2   5
BRANCH   4  12
HETATM   12  C   UNL     1      -7.181  13.141  68.636  1.00  0.00    -0.106 A  
HETATM   13  C   UNL     1      -8.172  13.467  67.704  1.00  0.00    -0.177 A  
HETATM   14  C   UNL     1      -6.849  11.758  68.800  1.00  0.00    -0.095 A  
HETATM   15  C   UNL     1      -7.314  10.771  67.874  1.00  0.00    -0.088 A  
HETATM   16  I   UNL     1      -5.662  11.194  70.515  1.00  0.00    -0.031 I  
HETATM   17  I   UNL     1      -9.371  15.234  68.027  1.00  0.00    -0.205 I  
HETATM   18  C   UNL     1      -7.996  11.246  66.729  1.00  0.00    -0.159 A  
HETATM   19  I   UNL     1      -7.801  10.161  64.872  1.00  0.00    -0.065 I  
HETATM   20  C   UNL     1      -8.521  12.567  66.680  1.00  0.00    -0.001 A  
BRANCH  15  21
HETATM   21  C   UNL     1      -6.972   9.303  68.081  1.00  0.00    -0.076 C  
HETATM   22  O   UNL     1      -5.847   8.922  67.744  1.00  0.00    -0.039 OA 
HETATM   23  N   UNL     1      -7.848   8.400  68.720  1.00  0.00    -0.112 N  
HETATM   24  C   UNL     1      -9.301   8.515  68.776  1.00  0.00    -0.143 C  
BRANCH  23  25
HETATM   25  C   UNL     1      -7.299   7.095  69.165  1.00  0.00    -0.092 C  
BRANCH  25  26
HETATM   26  C   UNL     1      -6.707   7.064  70.591  1.00  0.00    -0.053 C  
HETATM   27  H   UNL     1      -7.325   7.316  72.480  1.00  0.00     0.000 HD 
HETATM   28  O   UNL     1      -7.688   7.335  71.603  1.00  0.00    -0.086 OA 
BRANCH  26  29
HETATM   29  C   UNL     1      -6.116   5.685  70.930  1.00  0.00    -0.030 C  
HETATM   30  H   UNL     1      -5.727   4.012  69.966  1.00  0.00     0.000 HD 
HETATM   31  O   UNL     1      -6.092   4.864  69.757  1.00  0.00    -0.020 OA 
ENDBRANCH  26  29
ENDBRANCH  25  26
ENDBRANCH  23  25
ENDBRANCH  15  21
BRANCH  20  32
HETATM   32  N   UNL     1      -9.304  13.066  65.598  1.00  0.00    -0.451 N  
HETATM   33  C   UNL     1     -10.540  12.526  65.269  1.00  0.00    -0.290 C  
HETATM   34  H   UNL     1      -8.943  13.845  65.047  1.00  0.00     0.000 HD 
HETATM   35  H   UNL     1     -11.086  16.293  65.429  1.00  0.00     0.000 HD 
HETATM   36  H   UNL     1     -14.129  11.698  64.145  1.00  0.00     0.000 HD 
HETATM   37  C   UNL     1     -11.279  13.319  64.186  1.00  0.00    -0.412 C  
HETATM   38  O   UNL     1     -11.039  11.552  65.830  1.00  0.00    -0.283 OA 
HETATM   39  O   UNL     1     -13.430  12.219  64.524  1.00  0.00    -0.686 OA 
HETATM   40  O   UNL     1     -10.740  15.483  65.073  1.00  0.00    -0.413 OA 
HETATM   41  C   UNL     1     -11.834  14.621  64.757  1.00  0.00    -0.440 C  
HETATM   42  C   UNL     1     -12.400  12.483  63.578  1.00  0.00    -0.525 C  
ENDBRANCH  20  32
ENDBRANCH   4  12
TORSDOF 9
ENDMDL
MODEL       80
REMARK 921   NORMALIZED FREE ENERGY PREDICTED BY IDOCK:   -2.56 KCAL/MOL
REMARK 922        TOTAL FREE ENERGY PREDICTED BY IDOCK:   -5.20 KCAL/MOL
REMARK 923 INTER-LIGAND FREE ENERGY PREDICTED BY IDOCK:   -7.09 KCAL/MOL
REMARK 924 INTRA-LIGAND FREE ENERGY PREDICTED BY IDOCK:    1.89 KCAL/MOL
REMARK 927      BINDING AFFINITY PREDICTED BY RF-SCORE:    0.00 PKD
ROOT
HETATM    1  C   UNL     1     -14.009  12.203  72.271  1.00  0.00     0.323 C  
HETATM    2  N   UNL     1     -12.812  12.257  71.433  1.00  0.00    -0.339 N  
HETATM    3  O   UNL     1     -13.657  10.527  70.150  1.00  0.00     0.233 OA 
HETATM    4  C   UNL     1     -12.733  11.295  70.397  1.00  0.00    -0.130 C  
ENDROOT
BRANCH   2   5
HETATM    5  C   UNL     1     -11.971  13.460  71.589  1.00  0.00     0.778 C  
BRANCH   5   6
HETATM    6  C   UNL     1     -12.638  14.796  71.917  1.00  0.00    -0.334 C  
HETATM    7  H   UNL     1     -14.470  15.536  71.951  1.00  0.00     0.000 HD 
HETATM    8  O   UNL     1     -14.056  14.706  71.747  1.00  0.00    -0.417 OA 
BRANCH   6   9
HETATM    9  C   UNL     1     -12.319  15.133  73.392  1.00  0.00    -0.484 C  
HETATM   10  H   UNL     1     -12.924  16.397  74.809  1.00  0.00     0.000 HD 
HETATM   11  O   UNL     1     -13.120  16.190  73.903  1.00  0.00    -0.666 OA 
ENDBRANCH   6   9
ENDBRANCH   5   6
ENDBRANCH   2   5
BRANCH   4  12
HETATM   12  C   UNL     1     -11.520  11.190  69.518  1.00  0.00    -0.374 A  
HETATM   13  C   UNL     1     -10.697  10.066  69.643  1.00  0.00    -0.255 A  
HETATM   14  C   UNL     1     -11.113  12.215  68.605  1.00  0.00    -0.251 A  
HETATM   15  C   UNL     1     -10.056  11.993  67.667  1.00  0.00    -0.205 A  
HETATM   16  I   UNL     1     -12.110  14.129  68.715  1.00  0.00     0.044 I  
HETATM   17  I   UNL     1     -10.657   9.003  71.523  1.00  0.00    -0.321 I  
HETATM   18  C   UNL     1      -9.533  10.680  67.598  1.00  0.00    -0.153 A  
HETATM   19  I   UNL     1      -8.821   9.937  65.700  1.00  0.00    -0.250 I  
HETATM   20  C   UNL     1      -9.766   9.740  68.640  1.00  0.00    -0.155 A  
BRANCH  15  21
HETATM   21  C   UNL     1      -9.620  13.105  66.723  1.00  0.00    -0.249 C  
HETATM   22  O   UNL     1     -10.076  13.096  65.576  1.00  0.00    -0.289 OA 
HETATM   23  N   UNL     1      -8.802  14.178  67.136  1.00  0.00    -0.219 N  
HETATM   24  C   UNL     1      -7.842  14.146  68.235  1.00  0.00    -0.138 C  
BRANCH  23  25
HETATM   25  C   UNL     1      -8.710  15.364  66.249  1.00  0.00    -0.205 C  
BRANCH  25  26
HETATM   26  C   UNL     1      -9.849  16.397  66.385  1.00  0.00    -0.294 C  
HETATM   27  H   UNL     1     -10.071  18.385  66.494  1.00  0.00     0.000 HD 
HETATM   28  O   UNL     1      -9.370  17.749  66.411  1.00  0.00    -0.288 OA 
BRANCH  26  29
HETATM   29  C   UNL     1     -10.832  16.316  65.204  1.00  0.00    -0.318 C  
HETATM   30  H   UNL     1     -11.755  17.584  64.013  1.00  0.00     0.000 HD 
HETATM   31  O   UNL     1     -11.148  17.633  64.742  1.00  0.00    -0.915 OA 
ENDBRANCH  26  29
ENDBRANCH  25  26
ENDBRANCH  23  25
ENDBRANCH  15  21
BRANCH  20  32
HETATM   32  N   UNL     1      -9.181   8.440  68.675  1.00  0.00    -0.143 N  
HETATM   33  C   UNL     1      -9.794   7.338  68.093  1.00  0.00    -0.149 C  
HETATM   34  H   UNL     1      -8.283   8.316  69.142  1.00  0.00     0.000 HD 
HETATM   35  H   UNL     1      -6.198   7.281  66.838  1.00  0.00     0.000 HD 
HETATM   36  H   UNL     1     -10.820   4.051  66.369  1.00  0.00     0.000 HD 
HETATM   37  C   UNL     1      -8.916   6.082  68.102  1.00  0.00    -0.112 C  
HETATM   38  O   UNL     1     -10.900   7.367  67.557  1.00  0.00    -0.242 OA 
HETATM   39  O   UNL     1     -10.295   4.827  66.528  1.00  0.00    -0.256 OA 
HETATM   40  O   UNL     1      -6.890   7.210  67.485  1.00  0.00    -0.065 OA 
HETATM   41  C   UNL     1      -7.803   6.197  67.063  1.00  0.00    -0.101 C  
HETATM   42  C   UNL     1      -9.757   4.836  67.846  1.00  0.00    -0.149 C  
ENDBRANCH  20  32
ENDBRANCH   4  12
TORSDOF 9
ENDMDL
MODEL       81
REMARK 921   NORMALIZED FREE ENERGY PREDICTED BY IDOCK:   -2.39 KCAL/MOL
REMARK 922        TOTAL FREE ENERGY PREDICTED BY IDOCK:   -4.95 KCAL/MOL
REMARK 923 INTER-LIGAND FREE ENERGY PREDICTED BY IDOCK:   -5.30 KCAL/MOL
REMARK 924 INTRA-LIGAND FREE ENERGY PREDICTED BY IDOCK:    0.34 KCAL/MOL
REMARK 927      BINDING AFFINITY PREDICTED BY RF-SCORE:    0.00 PKD
ROOT
HETATM    1  C   UNL     1      -6.969   3.827  64.196  1.00  0.00    -0.046 C  
HETATM    2  N   UNL     1      -7.481   4.673  65.273  1.00  0.00    -0.076 N  
HETATM    3  O   UNL     1      -5.790   6.195  64.855  1.00  0.00    -0.024 OA 
HETATM    4  C   UNL     1      -6.743   5.851  65.544  1.00  0.00    -0.048 C  
ENDROOT
BRANCH   2   5
HETATM    5  C   UNL     1      -8.837   4.348  65.757  1.00  0.00    -0.122 C  
BRANCH   5   6
HETATM    6  C   UNL     1     -10.046   4.941  65.035  1.00  0.00     0.205 C  
HETATM    7  H   UNL     1     -11.400   4.334  63.729  1.00  0.00     0.000 HD 
HETATM    8  O   UNL     1     -10.649   3.966  64.178  1.00  0.00    -0.257 OA 
BRANCH   6   9
HETATM    9  C   UNL     1     -11.069   5.381  66.108  1.00  0.00     0.218 C  
HETATM   10  H   UNL     1     -11.294   6.818  67.469  1.00  0.00     0.000 HD 
HETATM   11  O   UNL     1     -10.666   6.548  66.810  1.00  0.00    -0.291 OA 
ENDBRANCH   6   9
ENDBRANCH   5   6
ENDBRANCH   2   5
BRANCH   4  12
HETATM   12  C   UNL     1      -7.116   6.763  66.678  1.00  0.00    -0.072 A  
HETATM   13  C   UNL     1      -7.196   8.138  66.435  1.00  0.00    -0.079 A  
HETATM   14  C   UNL     1      -7.324   6.311  68.021  1.00  0.00    -0.089 A  
HETATM   15  C   UNL     1      -7.849   7.187  69.023  1.00  0.00    -0.114 A  
HETATM   16  I   UNL     1      -6.778   4.277  68.505  1.00  0.00    -0.048 I  
HETATM   17  I   UNL     1      -6.035   8.983  64.821  1.00  0.00    -0.067 I  
HETATM   18  C   UNL     1      -8.273   8.466  68.590  1.00  0.00    -0.123 A  
HETATM   19  I   UNL     1      -9.942   9.406  69.587  1.00  0.00    -0.277 I  
HETATM   20  C   UNL     1      -7.861   8.991  67.333  1.00  0.00    -0.100 A  
BRANCH  15  21
HETATM   21  C   UNL     1      -8.038   6.695  70.451  1.00  0.00    -0.117 C  
HETATM   22  O   UNL     1      -7.119   6.889  71.251  1.00  0.00    -0.072 OA 
HETATM   23  N   UNL     1      -9.245   6.120  70.905  1.00  0.00    -0.153 N  
HETATM   24  C   UNL     1     -10.224   5.424  70.077  1.00  0.00    -0.279 C  
BRANCH  23  25
HETATM   25  C   UNL     1      -9.442   5.983  72.369  1.00  0.00    -0.145 C  
BRANCH  25  26
HETATM   26  C   UNL     1     -10.262   7.102  73.047  1.00  0.00    -0.251 C  
HETATM   27  H   UNL     1     -10.144   9.079  73.349  1.00  0.00     0.000 HD 
HETATM   28  O   UNL     1      -9.639   8.390  72.933  1.00  0.00    -0.264 OA 
BRANCH  26  29
HETATM   29  C   UNL     1     -11.656   7.245  72.414  1.00  0.00    -0.268 C  
HETATM   30  H   UNL     1     -12.994   8.674  72.192  1.00  0.00     0.000 HD 
HETATM   31  O   UNL     1     -12.132   8.585  72.583  1.00  0.00    -0.378 OA 
ENDBRANCH  26  29
ENDBRANCH  25  26
ENDBRANCH  23  25
ENDBRANCH  15  21
BRANCH  20  32
HETATM   32  N   UNL     1      -8.172  10.310  66.890  1.00  0.00    -0.122 N  
HETATM   33  C   UNL     1      -9.405  10.635  66.340  1.00  0.00    -0.169 C  
HETATM   34  H   UNL     1      -7.464  11.039  66.980  1.00  0.00     0.000 HD 
HETATM   35  H   UNL     1      -8.738  13.296  68.983  1.00  0.00     0.000 HD 
HETATM   36  H   UNL     1     -12.709  12.183  65.108  1.00  0.00     0.000 HD 
HETATM   37  C   UNL     1      -9.580  12.136  66.090  1.00  0.00    -0.250 C  
HETATM   38  O   UNL     1     -10.304   9.821  66.135  1.00  0.00    -0.231 OA 
HETATM   39  O   UNL     1     -11.987  12.025  65.706  1.00  0.00    -0.514 OA 
HETATM   40  O   UNL     1      -8.597  12.835  68.165  1.00  0.00    -0.174 OA 
HETATM   41  C   UNL     1      -9.805  12.878  67.405  1.00  0.00    -0.207 C  
HETATM   42  C   UNL     1     -10.738  12.390  65.130  1.00  0.00    -0.292 C  
ENDBRANCH  20  32
ENDBRANCH   4  12
TORSDOF 9
ENDMDL
MODEL       82
REMARK 921   NORMALIZED FREE ENERGY PREDICTED BY IDOCK:   -2.39 KCAL/MOL
REMARK 922        TOTAL FREE ENERGY PREDICTED BY IDOCK:   -4.95 KCAL/MOL
REMARK 923 INTER-LIGAND FREE ENERGY PREDICTED BY IDOCK:   -4.86 KCAL/MOL
REMARK 924 INTRA-LIGAND FREE ENERGY PREDICTED BY IDOCK:   -0.09 KCAL/MOL
REMARK 927      BINDING AFFINITY PREDICTED BY RF-SCORE:    0.00 PKD
ROOT
HETATM    1  C   UNL     1      -9.865  16.088  64.974  1.00  0.00     0.496 C  
HETATM    2  N   UNL     1      -9.652  15.290  66.180  1.00  0.00    -0.298 N  
HETATM    3  O   UNL     1     -11.522  14.032  65.654  1.00  0.00    -0.309 OA 
HETATM    4  C   UNL     1     -10.617  14.287  66.442  1.00  0.00    -0.286 C  
ENDROOT
BRANCH   2   5
HETATM    5  C   UNL     1      -8.334  15.438  66.825  1.00  0.00    -0.250 C  
BRANCH   5   6
HETATM    6  C   UNL     1      -7.659  16.809  66.832  1.00  0.00    -0.217 C  
HETATM    7  H   UNL     1      -8.069  18.627  67.489  1.00  0.00     0.000 HD 
HETATM    8  O   UNL     1      -8.489  17.775  67.485  1.00  0.00    -0.223 OA 
BRANCH   6   9
HETATM    9  C   UNL     1      -6.325  16.676  67.604  1.00  0.00    -0.153 C  
HETATM   10  H   UNL     1      -4.405  16.296  67.231  1.00  0.00     0.000 HD 
HETATM   11  O   UNL     1      -5.225  16.378  66.757  1.00  0.00    -0.348 OA 
ENDBRANCH   6   9
ENDBRANCH   5   6
ENDBRANCH   2   5
BRANCH   4  12
HETATM   12  C   UNL     1     -10.560  13.454  67.690  1.00  0.00    -0.249 A  
HETATM   13  C   UNL     1     -11.152  13.952  68.856  1.00  0.00    -0.266 A  
HETATM   14  C   UNL     1      -9.867  12.204  67.777  1.00  0.00    -0.199 A  
HETATM   15  C   UNL     1      -9.992  11.368  68.931  1.00  0.00    -0.146 A  
HETATM   16  I   UNL     1      -8.587  11.636  66.131  1.00  0.00     0.212 I  
HETATM   17  I   UNL     1     -11.353  16.089  69.095  1.00  0.00    -0.271 I  
HETATM   18  C   UNL     1     -10.930  11.772  69.910  1.00  0.00     0.238 A  
HETATM   19  I   UNL     1     -11.978  10.260  71.040  1.00  0.00    -0.438 I  
HETATM   20  C   UNL     1     -11.436  13.101  69.939  1.00  0.00    -0.089 A  
BRANCH  15  21
HETATM   21  C   UNL     1      -9.225  10.055  69.015  1.00  0.00    -0.178 C  
HETATM   22  O   UNL     1      -8.214  10.025  69.721  1.00  0.00    -0.168 OA 
HETATM   23  N   UNL     1      -9.678   8.869  68.398  1.00  0.00    -0.157 N  
HETATM   24  C   UNL     1     -10.536   8.792  67.220  1.00  0.00    -0.283 C  
BRANCH  23  25
HETATM   25  C   UNL     1      -9.050   7.589  68.809  1.00  0.00    -0.135 C  
BRANCH  25  26
HETATM   26  C   UNL     1      -9.844   6.309  68.470  1.00  0.00    -0.139 C  
HETATM   27  H   UNL     1     -10.195   5.132  66.887  1.00  0.00     0.000 HD 
HETATM   28  O   UNL     1      -9.707   5.920  67.096  1.00  0.00    -0.120 OA 
BRANCH  26  29
HETATM   29  C   UNL     1      -9.365   5.107  69.303  1.00  0.00    -0.123 C  
HETATM   30  H   UNL     1     -10.068   4.011  70.780  1.00  0.00     0.000 HD 
HETATM   31  O   UNL     1     -10.363   4.753  70.265  1.00  0.00    -0.234 OA 
ENDBRANCH  26  29
ENDBRANCH  25  26
ENDBRANCH  23  25
ENDBRANCH  15  21
BRANCH  20  32
HETATM   32  N   UNL     1     -12.302  13.593  70.960  1.00  0.00    -0.368 N  
HETATM   33  C   UNL     1     -11.837  14.368  72.014  1.00  0.00     0.116 C  
HETATM   34  H   UNL     1     -13.296  13.368  70.913  1.00  0.00     0.000 HD 
HETATM   35  H   UNL     1     -14.861  16.233  70.639  1.00  0.00     0.000 HD 
HETATM   36  H   UNL     1     -11.199  16.821  74.914  1.00  0.00     0.000 HD 
HETATM   37  C   UNL     1     -12.959  14.925  72.897  1.00  0.00    -0.572 C  
HETATM   38  O   UNL     1     -10.653  14.647  72.195  1.00  0.00     1.326 OA 
HETATM   39  O   UNL     1     -11.545  16.525  74.080  1.00  0.00     0.135 OA 
HETATM   40  O   UNL     1     -14.409  15.524  71.081  1.00  0.00    -0.516 OA 
HETATM   41  C   UNL     1     -13.686  16.064  72.187  1.00  0.00     0.019 C  
HETATM   42  C   UNL     1     -12.403  15.400  74.236  1.00  0.00    -0.664 C  
ENDBRANCH  20  32
ENDBRANCH   4  12
TORSDOF 9
ENDMDL
MODEL       83
REMARK 921   NORMALIZED FREE ENERGY PREDICTED BY IDOCK:   -2.37 KCAL/MOL
REMARK 922        TOTAL FREE ENERGY PREDICTED BY IDOCK:   -4.92 KCAL/MOL
REMARK 923 INTER-LIGAND FREE ENERGY PREDICTED BY IDOCK:   -3.96 KCAL/MOL
REMARK 924 INTRA-LIGAND FREE ENERGY PREDICTED BY IDOCK:   -0.95 KCAL/MOL
REMARK 927      BINDING AFFINITY PREDICTED BY RF-SCORE:    0.00 PKD
ROOT
HETATM    1  C   UNL     1      -8.759   8.505  72.917  1.00  0.00    -0.080 C  
HETATM    2  N   UNL     1      -8.722   8.138  71.502  1.00  0.00    -0.134 N  
HETATM    3  O   UNL     1      -6.453   8.592  71.465  1.00  0.00    -0.057 OA 
HETATM    4  C   UNL     1      -7.469   8.278  70.855  1.00  0.00    -0.064 C  
ENDROOT
BRANCH   2   5
HETATM    5  C   UNL     1      -9.903   7.416  70.994  1.00  0.00    -0.179 C  
BRANCH   5   6
HETATM    6  C   UNL     1     -10.504   6.288  71.833  1.00  0.00    -0.209 C  
HETATM    7  H   UNL     1     -12.299   5.547  72.201  1.00  0.00     0.000 HD 
HETATM    8  O   UNL     1     -11.926   6.248  71.679  1.00  0.00    -0.305 OA 
BRANCH   6   9
HETATM    9  C   UNL     1      -9.898   4.955  71.337  1.00  0.00    -0.186 C  
HETATM   10  H   UNL     1      -8.448   3.684  71.840  1.00  0.00     0.000 HD 
HETATM   11  O   UNL     1      -8.821   4.503  72.145  1.00  0.00    -0.119 OA 
ENDBRANCH   6   9
ENDBRANCH   5   6
ENDBRANCH   2   5
BRANCH   4  12
HETATM   12  C   UNL     1      -7.316   8.013  69.385  1.00  0.00    -0.080 A  
HETATM   13  C   UNL     1      -6.772   6.791  68.977  1.00  0.00    -0.059 A  
HETATM   14  C   UNL     1      -7.629   8.974  68.371  1.00  0.00    -0.090 A  
HETATM   15  C   UNL     1      -7.634   8.614  66.986  1.00  0.00    -0.084 A  
HETATM   16  I   UNL     1      -8.046  11.003  68.988  1.00  0.00     0.077 I  
HETATM   17  I   UNL     1      -5.451   5.735  70.319  1.00  0.00    -0.013 I  
HETATM   18  C   UNL     1      -7.451   7.243  66.686  1.00  0.00    -0.088 A  
HETATM   19  I   UNL     1      -8.442   6.410  64.958  1.00  0.00     0.214 I  
HETATM   20  C   UNL     1      -6.919   6.343  67.651  1.00  0.00    -0.078 A  
BRANCH  15  21
HETATM   21  C   UNL     1      -7.943   9.657  65.922  1.00  0.00    -0.112 C  
HETATM   22  O   UNL     1      -6.990  10.227  65.384  1.00  0.00    -0.133 OA 
HETATM   23  N   UNL     1      -9.255   9.921  65.472  1.00  0.00    -0.186 N  
HETATM   24  C   UNL     1     -10.479   9.714  66.239  1.00  0.00    -0.079 C  
BRANCH  23  25
HETATM   25  C   UNL     1      -9.417  10.700  64.219  1.00  0.00    -0.274 C  
BRANCH  25  26
HETATM   26  C   UNL     1     -10.113  12.070  64.363  1.00  0.00    -0.271 C  
HETATM   27  H   UNL     1     -11.970  12.822  64.344  1.00  0.00     0.000 HD 
HETATM   28  O   UNL     1     -11.541  11.979  64.255  1.00  0.00    -0.349 OA 
BRANCH  26  29
HETATM   29  C   UNL     1      -9.830  12.708  65.734  1.00  0.00    -0.228 C  
HETATM   30  H   UNL     1     -10.875  13.588  67.153  1.00  0.00     0.000 HD 
HETATM   31  O   UNL     1     -11.050  13.194  66.306  1.00  0.00    -0.282 OA 
ENDBRANCH  26  29
ENDBRANCH  25  26
ENDBRANCH  23  25
ENDBRANCH  15  21
BRANCH  20  32
HETATM   32  N   UNL     1      -6.617   4.978  67.374  1.00  0.00    -0.052 N  
HETATM   33  C   UNL     1      -7.543   3.961  67.568  1.00  0.00    -0.068 C  
HETATM   34  H   UNL     1      -5.689   4.740  67.023  1.00  0.00     0.000 HD 
HETATM   35  H   UNL     1      -6.154   3.419  64.062  1.00  0.00     0.000 HD 
HETATM   36  H   UNL     1      -9.776   0.824  67.550  1.00  0.00     0.000 HD 
HETATM   37  C   UNL     1      -7.066   2.601  67.049  1.00  0.00    -0.049 C  
HETATM   38  O   UNL     1      -8.666   4.131  68.040  1.00  0.00    -0.094 OA 
HETATM   39  O   UNL     1      -9.252   1.526  67.181  1.00  0.00    -0.111 OA 
HETATM   40  O   UNL     1      -6.122   3.445  65.011  1.00  0.00    -0.022 OA 
HETATM   41  C   UNL     1      -7.116   2.558  65.524  1.00  0.00    -0.057 C  
HETATM   42  C   UNL     1      -7.907   1.475  67.642  1.00  0.00    -0.059 C  
ENDBRANCH  20  32
ENDBRANCH   4  12
TORSDOF 9
ENDMDL
MODEL       84
REMARK 921   NORMALIZED FREE ENERGY PREDICTED BY IDOCK:   -2.33 KCAL/MOL
REMARK 922        TOTAL FREE ENERGY PREDICTED BY IDOCK:   -4.86 KCAL/MOL
REMARK 923 INTER-LIGAND FREE ENERGY PREDICTED BY IDOCK:   -4.66 KCAL/MOL
REMARK 924 INTRA-LIGAND FREE ENERGY PREDICTED BY IDOCK:   -0.20 KCAL/MOL
REMARK 927      BINDING AFFINITY PREDICTED BY RF-SCORE:    0.00 PKD
ROOT
HETATM    1  C   UNL     1      -6.159   9.881  71.425  1.00  0.00     0.093 C  
HETATM    2  N   UNL     1      -6.543   9.734  70.022  1.00  0.00    -0.069 N  
HETATM    3  O   UNL     1      -8.642   9.026  70.692  1.00  0.00    -0.170 OA 
HETATM    4  C   UNL     1      -7.846   9.232  69.782  1.00  0.00    -0.100 C  
ENDROOT
BRANCH   2   5
HETATM    5  C   UNL     1      -5.648  10.375  69.039  1.00  0.00    -0.041 C  
BRANCH   5   6
HETATM    6  C   UNL     1      -6.259  11.110  67.846  1.00  0.00    -0.053 C  
HETATM    7  H   UNL     1      -6.328  12.962  67.161  1.00  0.00     0.000 HD 
HETATM    8  O   UNL     1      -5.949  12.505  67.902  1.00  0.00    -0.076 OA 
BRANCH   6   9
HETATM    9  C   UNL     1      -5.655  10.503  66.558  1.00  0.00    -0.063 C  
HETATM   10  H   UNL     1      -5.645  10.848  64.596  1.00  0.00     0.000 HD 
HETATM   11  O   UNL     1      -6.016  11.221  65.387  1.00  0.00     0.031 OA 
ENDBRANCH   6   9
ENDBRANCH   5   6
ENDBRANCH   2   5
BRANCH   4  12
HETATM   12  C   UNL     1      -8.332   8.956  68.388  1.00  0.00    -0.125 A  
HETATM   13  C   UNL     1      -9.397   9.713  67.888  1.00  0.00    -0.128 A  
HETATM   14  C   UNL     1      -7.815   7.908  67.562  1.00  0.00    -0.122 A  
HETATM   15  C   UNL     1      -8.185   7.800  66.184  1.00  0.00    -0.123 A  
HETATM   16  I   UNL     1      -6.491   6.460  68.468  1.00  0.00    -0.055 I  
HETATM   17  I   UNL     1     -10.802  10.586  69.276  1.00  0.00    -0.357 I  
HETATM   18  C   UNL     1      -8.973   8.850  65.655  1.00  0.00    -0.201 A  
HETATM   19  I   UNL     1      -8.717   9.405  63.584  1.00  0.00    -0.042 I  
HETATM   20  C   UNL     1      -9.668   9.751  66.508  1.00  0.00    -0.209 A  
BRANCH  15  21
HETATM   21  C   UNL     1      -7.645   6.662  65.330  1.00  0.00    -0.086 C  
HETATM   22  O   UNL     1      -6.588   6.852  64.723  1.00  0.00    -0.041 OA 
HETATM   23  N   UNL     1      -8.252   5.389  65.285  1.00  0.00    -0.126 N  
HETATM   24  C   UNL     1      -9.661   5.105  65.538  1.00  0.00    -0.010 C  
BRANCH  23  25
HETATM   25  C   UNL     1      -7.476   4.269  64.698  1.00  0.00    -0.072 C  
BRANCH  25  26
HETATM   26  C   UNL     1      -7.136   3.108  65.657  1.00  0.00    -0.065 C  
HETATM   27  H   UNL     1      -7.509   2.564  67.549  1.00  0.00     0.000 HD 
HETATM   28  O   UNL     1      -7.718   3.278  66.958  1.00  0.00    -0.077 OA 
BRANCH  26  29
HETATM   29  C   UNL     1      -7.662   1.763  65.128  1.00  0.00    -0.071 C  
HETATM   30  H   UNL     1      -9.326   0.718  65.260  1.00  0.00     0.000 HD 
HETATM   31  O   UNL     1      -9.001   1.549  65.587  1.00  0.00    -0.122 OA 
ENDBRANCH  26  29
ENDBRANCH  25  26
ENDBRANCH  23  25
ENDBRANCH  15  21
BRANCH  20  32
HETATM   32  N   UNL     1     -10.555  10.760  66.034  1.00  0.00    -0.198 N  
HETATM   33  C   UNL     1     -10.185  12.097  65.964  1.00  0.00    -0.237 C  
HETATM   34  H   UNL     1     -11.493  10.492  65.736  1.00  0.00     0.000 HD 
HETATM   35  H   UNL     1     -11.697  11.282  62.563  1.00  0.00     0.000 HD 
HETATM   36  H   UNL     1      -9.606  15.828  65.205  1.00  0.00     0.000 HD 
HETATM   37  C   UNL     1     -11.229  12.979  65.270  1.00  0.00    -0.316 C  
HETATM   38  O   UNL     1      -9.103  12.535  66.350  1.00  0.00    -0.208 OA 
HETATM   39  O   UNL     1      -9.761  14.911  65.011  1.00  0.00    -0.163 OA 
HETATM   40  O   UNL     1     -11.707  11.428  63.502  1.00  0.00    -0.297 OA 
HETATM   41  C   UNL     1     -11.215  12.743  63.762  1.00  0.00    -0.443 C  
HETATM   42  C   UNL     1     -10.981  14.451  65.581  1.00  0.00    -0.314 C  
ENDBRANCH  20  32
ENDBRANCH   4  12
TORSDOF 9
ENDMDL
MODEL       85
REMARK 921   NORMALIZED FREE ENERGY PREDICTED BY IDOCK:   -2.28 KCAL/MOL
REMARK 922        TOTAL FREE ENERGY PREDICTED BY IDOCK:   -4.78 KCAL/MOL
REMARK 923 INTER-LIGAND FREE ENERGY PREDICTED BY IDOCK:   -8.67 KCAL/MOL
REMARK 924 INTRA-LIGAND FREE ENERGY PREDICTED BY IDOCK:    3.89 KCAL/MOL
REMARK 927      BINDING AFFINITY PREDICTED BY RF-SCORE:    0.00 PKD
ROOT
HETATM    1  C   UNL     1      -8.853  15.270  65.986  1.00  0.00     0.006 C  
HETATM    2  N   UNL     1      -9.923  14.538  66.661  1.00  0.00    -0.262 N  
HETATM    3  O   UNL     1      -8.374  13.702  68.163  1.00  0.00    -0.149 OA 
HETATM    4  C   UNL     1      -9.527  13.719  67.748  1.00  0.00    -0.216 C  
ENDROOT
BRANCH   2   5
HETATM    5  C   UNL     1     -11.299  14.942  66.315  1.00  0.00    -0.306 C  
BRANCH   5   6
HETATM    6  C   UNL     1     -11.950  14.364  65.059  1.00  0.00    -0.412 C  
HETATM    7  H   UNL     1     -13.431  13.129  64.627  1.00  0.00     0.000 HD 
HETATM    8  O   UNL     1     -13.027  13.488  65.407  1.00  0.00    -0.656 OA 
BRANCH   6   9
HETATM    9  C   UNL     1     -12.499  15.544  64.224  1.00  0.00     0.128 C  
HETATM   10  H   UNL     1     -11.841  17.230  63.392  1.00  0.00     0.000 HD 
HETATM   11  O   UNL     1     -11.504  16.505  63.905  1.00  0.00    -1.145 OA 
ENDBRANCH   6   9
ENDBRANCH   5   6
ENDBRANCH   2   5
BRANCH   4  12
HETATM   12  C   UNL     1     -10.516  12.852  68.473  1.00  0.00    -0.260 A  
HETATM   13  C   UNL     1     -10.704  11.538  68.033  1.00  0.00    -0.202 A  
HETATM   14  C   UNL     1     -11.336  13.317  69.551  1.00  0.00    -0.170 A  
HETATM   15  C   UNL     1     -12.129  12.410  70.322  1.00  0.00    -0.377 A  
HETATM   16  I   UNL     1     -11.379  15.440  69.951  1.00  0.00    -0.440 I  
HETATM   17  I   UNL     1     -10.286  11.056  65.970  1.00  0.00    -0.252 I  
HETATM   18  C   UNL     1     -11.957  11.031  70.055  1.00  0.00    -0.351 A  
HETATM   19  I   UNL     1     -12.169   9.619  71.674  1.00  0.00    -0.380 I  
HETATM   20  C   UNL     1     -11.334  10.586  68.855  1.00  0.00    -0.251 A  
BRANCH  15  21
HETATM   21  C   UNL     1     -13.014  12.928  71.446  1.00  0.00    -0.270 C  
HETATM   22  O   UNL     1     -13.162  12.210  72.439  1.00  0.00    -0.375 OA 
HETATM   23  N   UNL     1     -13.585  14.219  71.432  1.00  0.00    -0.346 N  
HETATM   24  C   UNL     1     -13.900  15.001  70.241  1.00  0.00     0.780 C  
BRANCH  23  25
HETATM   25  C   UNL     1     -14.146  14.745  72.702  1.00  0.00    -0.225 C  
BRANCH  25  26
HETATM   26  C   UNL     1     -13.118  15.283  73.720  1.00  0.00    -0.175 C  
HETATM   27  H   UNL     1     -11.412  14.693  74.588  1.00  0.00     0.000 HD 
HETATM   28  O   UNL     1     -12.044  14.362  73.962  1.00  0.00    -0.256 OA 
BRANCH  26  29
HETATM   29  C   UNL     1     -12.460  16.584  73.228  1.00  0.00    -0.272 C  
HETATM   30  H   UNL     1     -11.652  18.184  74.044  1.00  0.00     0.000 HD 
HETATM   31  O   UNL     1     -12.058  17.380  74.348  1.00  0.00    -0.361 OA 
ENDBRANCH  26  29
ENDBRANCH  25  26
ENDBRANCH  23  25
ENDBRANCH  15  21
BRANCH  20  32
HETATM   32  N   UNL     1     -11.226   9.214  68.485  1.00  0.00    -0.396 N  
HETATM   33  C   UNL     1     -10.016   8.532  68.516  1.00  0.00    -0.184 C  
HETATM   34  H   UNL     1     -12.065   8.716  68.188  1.00  0.00     0.000 HD 
HETATM   35  H   UNL     1     -12.493   6.290  70.347  1.00  0.00     0.000 HD 
HETATM   36  H   UNL     1      -7.067   6.067  68.756  1.00  0.00     0.000 HD 
HETATM   37  C   UNL     1     -10.160   7.031  68.242  1.00  0.00    -0.185 C  
HETATM   38  O   UNL     1      -8.939   9.051  68.803  1.00  0.00    -0.135 OA 
HETATM   39  O   UNL     1      -7.908   6.448  68.981  1.00  0.00    -0.106 OA 
HETATM   40  O   UNL     1     -12.119   6.733  69.595  1.00  0.00    -0.048 OA 
HETATM   41  C   UNL     1     -10.761   6.319  69.451  1.00  0.00    -0.303 C  
HETATM   42  C   UNL     1      -8.810   6.420  67.880  1.00  0.00    -0.113 C  
ENDBRANCH  20  32
ENDBRANCH   4  12
TORSDOF 9
ENDMDL
MODEL       86
REMARK 921   NORMALIZED FREE ENERGY PREDICTED BY IDOCK:   -2.17 KCAL/MOL
REMARK 922        TOTAL FREE ENERGY PREDICTED BY IDOCK:   -4.61 KCAL/MOL
REMARK 923 INTER-LIGAND FREE ENERGY PREDICTED BY IDOCK:   -4.73 KCAL/MOL
REMARK 924 INTRA-LIGAND FREE ENERGY PREDICTED BY IDOCK:    0.12 KCAL/MOL
REMARK 927      BINDING AFFINITY PREDICTED BY RF-SCORE:    0.00 PKD
ROOT
HETATM    1  C   UNL     1      -5.232  15.461  68.104  1.00  0.00    -0.121 C  
HETATM    2  N   UNL     1      -6.305  14.507  68.378  1.00  0.00    -0.092 N  
HETATM    3  O   UNL     1      -5.239  12.954  67.033  1.00  0.00    -0.334 OA 
HETATM    4  C   UNL     1      -6.211  13.258  67.716  1.00  0.00    -0.158 C  
ENDROOT
BRANCH   2   5
HETATM    5  C   UNL     1      -7.197  14.846  69.503  1.00  0.00    -0.184 C  
BRANCH   5   6
HETATM    6  C   UNL     1      -8.135  16.045  69.373  1.00  0.00    -0.139 C  
HETATM    7  H   UNL     1      -8.431  17.528  68.100  1.00  0.00     0.000 HD 
HETATM    8  O   UNL     1      -7.848  16.782  68.181  1.00  0.00    -0.172 OA 
BRANCH   6   9
HETATM    9  C   UNL     1      -9.584  15.507  69.306  1.00  0.00    -0.266 C  
HETATM   10  H   UNL     1     -11.431  16.198  69.026  1.00  0.00     0.000 HD 
HETATM   11  O   UNL     1     -10.542  16.528  69.067  1.00  0.00    -0.280 OA 
ENDBRANCH   6   9
ENDBRANCH   5   6
ENDBRANCH   2   5
BRANCH   4  12
HETATM   12  C   UNL     1      -7.290  12.221  67.846  1.00  0.00    -0.111 A  
HETATM   13  C   UNL     1      -8.378  12.272  66.968  1.00  0.00    -0.168 A  
HETATM   14  C   UNL     1      -7.307  11.220  68.870  1.00  0.00    -0.115 A  
HETATM   15  C   UNL     1      -8.258  10.152  68.844  1.00  0.00    -0.124 A  
HETATM   16  I   UNL     1      -5.883  11.396  70.486  1.00  0.00     0.115 I  
HETATM   17  I   UNL     1      -8.922  14.167  66.087  1.00  0.00     0.766 I  
HETATM   18  C   UNL     1      -9.080  10.061  67.696  1.00  0.00    -0.134 A  
HETATM   19  I   UNL     1      -9.709   8.112  67.013  1.00  0.00    -0.355 I  
HETATM   20  C   UNL     1      -9.226  11.161  66.806  1.00  0.00    -0.171 A  
BRANCH  15  21
HETATM   21  C   UNL     1      -8.276   9.113  69.956  1.00  0.00    -0.143 C  
HETATM   22  O   UNL     1      -7.357   8.290  69.988  1.00  0.00    -0.061 OA 
HETATM   23  N   UNL     1      -9.239   9.119  70.988  1.00  0.00    -0.258 N  
HETATM   24  C   UNL     1     -10.585   9.676  70.897  1.00  0.00    -0.316 C  
BRANCH  23  25
HETATM   25  C   UNL     1      -8.979   8.285  72.187  1.00  0.00    -0.209 C  
BRANCH  25  26
HETATM   26  C   UNL     1     -10.154   7.403  72.662  1.00  0.00    -0.208 C  
HETATM   27  H   UNL     1     -11.255   5.873  71.982  1.00  0.00     0.000 HD 
HETATM   28  O   UNL     1     -10.533   6.417  71.691  1.00  0.00    -0.210 OA 
BRANCH  26  29
HETATM   29  C   UNL     1      -9.798   6.625  73.941  1.00  0.00    -0.267 C  
HETATM   30  H   UNL     1      -8.453   5.294  74.486  1.00  0.00     0.000 HD 
HETATM   31  O   UNL     1      -8.673   5.774  73.696  1.00  0.00    -0.122 OA 
ENDBRANCH  26  29
ENDBRANCH  25  26
ENDBRANCH  23  25
ENDBRANCH  15  21
BRANCH  20  32
HETATM   32  N   UNL     1     -10.117  11.164  65.694  1.00  0.00    -0.242 N  
HETATM   33  C   UNL     1     -11.324  11.850  65.714  1.00  0.00    -0.299 C  
HETATM   34  H   UNL     1      -9.860  10.643  64.855  1.00  0.00     0.000 HD 
HETATM   35  H   UNL     1      -9.639  12.855  62.449  1.00  0.00     0.000 HD 
HETATM   36  H   UNL     1     -14.561  13.834  65.064  1.00  0.00     0.000 HD 
HETATM   37  C   UNL     1     -12.041  11.855  64.360  1.00  0.00    -0.305 C  
HETATM   38  O   UNL     1     -11.755  12.459  66.692  1.00  0.00    -0.397 OA 
HETATM   39  O   UNL     1     -13.648  13.592  64.958  1.00  0.00    -0.108 OA 
HETATM   40  O   UNL     1     -10.070  12.263  63.054  1.00  0.00    -0.300 OA 
HETATM   41  C   UNL     1     -11.347  12.806  63.388  1.00  0.00    -0.337 C  
HETATM   42  C   UNL     1     -13.507  12.242  64.529  1.00  0.00     1.097 C  
ENDBRANCH  20  32
ENDBRANCH   4  12
TORSDOF 9
ENDMDL
MODEL       87
REMARK 921   NORMALIZED FREE ENERGY PREDICTED BY IDOCK:   -2.12 KCAL/MOL
REMARK 922        TOTAL FREE ENERGY PREDICTED BY IDOCK:   -4.54 KCAL/MOL
REMARK 923 INTER-LIGAND FREE ENERGY PREDICTED BY IDOCK:   -4.50 KCAL/MOL
REMARK 924 INTRA-LIGAND FREE ENERGY PREDICTED BY IDOCK:   -0.04 KCAL/MOL
REMARK 927      BINDING AFFINITY PREDICTED BY RF-SCORE:    0.00 PKD
ROOT
HETATM    1  C   UNL     1      -7.610   7.380  64.852  1.00  0.00    -0.105 C  
HETATM    2  N   UNL     1      -7.896   8.008  66.141  1.00  0.00    -0.090 N  
HETATM    3  O   UNL     1     -10.036   8.495  65.407  1.00  0.00     0.444 OA 
HETATM    4  C   UNL     1      -9.179   8.594  66.278  1.00  0.00    -0.202 C  
ENDROOT
BRANCH   2   5
HETATM    5  C   UNL     1      -6.935   7.722  67.224  1.00  0.00    -0.078 C  
BRANCH   5   6
HETATM    6  C   UNL     1      -6.030   6.496  67.110  1.00  0.00    -0.021 C  
HETATM    7  H   UNL     1      -4.601   5.640  68.173  1.00  0.00     0.000 HD 
HETATM    8  O   UNL     1      -5.164   6.402  68.244  1.00  0.00    -0.007 OA 
BRANCH   6   9
HETATM    9  C   UNL     1      -6.936   5.243  67.052  1.00  0.00    -0.065 C  
HETATM   10  H   UNL     1      -7.105   3.559  66.003  1.00  0.00     0.000 HD 
HETATM   11  O   UNL     1      -6.549   4.328  66.038  1.00  0.00    -0.040 OA 
ENDBRANCH   6   9
ENDBRANCH   5   6
ENDBRANCH   2   5
BRANCH   4  12
HETATM   12  C   UNL     1      -9.567   9.342  67.521  1.00  0.00    -0.174 A  
HETATM   13  C   UNL     1      -9.310  10.716  67.584  1.00  0.00    -0.146 A  
HETATM   14  C   UNL     1     -10.124   8.714  68.681  1.00  0.00    -0.190 A  
HETATM   15  C   UNL     1     -10.640   9.490  69.766  1.00  0.00    -0.257 A  
HETATM   16  I   UNL     1     -10.118   6.555  68.769  1.00  0.00    -0.248 I  
HETATM   17  I   UNL     1      -7.707  11.535  66.392  1.00  0.00     0.285 I  
HETATM   18  C   UNL     1     -10.696  10.891  69.575  1.00  0.00    -0.206 A  
HETATM   19  I   UNL     1     -12.294  12.009  70.502  1.00  0.00    -0.022 I  
HETATM   20  C   UNL     1      -9.946  11.524  68.545  1.00  0.00    -0.204 A  
BRANCH  15  21
HETATM   21  C   UNL     1     -11.203   8.803  71.003  1.00  0.00    -0.273 C  
HETATM   22  O   UNL     1     -12.429   8.703  71.096  1.00  0.00    -0.276 OA 
HETATM   23  N   UNL     1     -10.381   8.205  71.981  1.00  0.00    -0.232 N  
HETATM   24  C   UNL     1      -9.005   8.580  72.287  1.00  0.00    -0.229 C  
BRANCH  23  25
HETATM   25  C   UNL     1     -11.018   7.286  72.957  1.00  0.00    -0.344 C  
BRANCH  25  26
HETATM   26  C   UNL     1     -10.148   6.105  73.439  1.00  0.00    -0.198 C  
HETATM   27  H   UNL     1     -10.251   4.603  74.760  1.00  0.00     0.000 HD 
HETATM   28  O   UNL     1     -10.786   5.330  74.464  1.00  0.00    -0.323 OA 
BRANCH  26  29
HETATM   29  C   UNL     1      -9.839   5.125  72.294  1.00  0.00    -0.171 C  
HETATM   30  H   UNL     1      -8.233   4.348  71.461  1.00  0.00     0.000 HD 
HETATM   31  O   UNL     1      -8.424   4.954  72.168  1.00  0.00    -0.120 OA 
ENDBRANCH  26  29
ENDBRANCH  25  26
ENDBRANCH  23  25
ENDBRANCH  15  21
BRANCH  20  32
HETATM   32  N   UNL     1      -9.882  12.937  68.370  1.00  0.00    -0.288 N  
HETATM   33  C   UNL     1      -8.773  13.680  68.751  1.00  0.00     0.070 C  
HETATM   34  H   UNL     1     -10.678  13.418  67.950  1.00  0.00     0.000 HD 
HETATM   35  H   UNL     1      -9.561  14.783  65.190  1.00  0.00     0.000 HD 
HETATM   36  H   UNL     1      -5.877  16.169  69.256  1.00  0.00     0.000 HD 
HETATM   37  C   UNL     1      -8.850  15.149  68.318  1.00  0.00    -0.173 C  
HETATM   38  O   UNL     1      -7.787  13.209  69.315  1.00  0.00     0.270 OA 
HETATM   39  O   UNL     1      -6.504  15.644  68.771  1.00  0.00    -0.105 OA 
HETATM   40  O   UNL     1      -9.713  14.701  66.125  1.00  0.00    -0.290 OA 
HETATM   41  C   UNL     1      -8.607  15.280  66.817  1.00  0.00    -0.265 C  
HETATM   42  C   UNL     1      -7.845  15.991  69.097  1.00  0.00    -0.233 C  
ENDBRANCH  20  32
ENDBRANCH   4  12
TORSDOF 9
ENDMDL
MODEL       88
REMARK 921   NORMALIZED FREE ENERGY PREDICTED BY IDOCK:   -2.12 KCAL/MOL
REMARK 922        TOTAL FREE ENERGY PREDICTED BY IDOCK:   -4.54 KCAL/MOL
REMARK 923 INTER-LIGAND FREE ENERGY PREDICTED BY IDOCK:   -4.32 KCAL/MOL
REMARK 924 INTRA-LIGAND FREE ENERGY PREDICTED BY IDOCK:   -0.21 KCAL/MOL
REMARK 927      BINDING AFFINITY PREDICTED BY RF-SCORE:    0.00 PKD
ROOT
HETATM    1  C   UNL     1     -13.869  14.786  70.209  1.00  0.00     0.925 C  
HETATM    2  N   UNL     1     -12.544  14.173  70.287  1.00  0.00    -0.339 N  
HETATM    3  O   UNL     1     -12.679  13.643  68.039  1.00  0.00     0.376 OA 
HETATM    4  C   UNL     1     -12.066  13.570  69.098  1.00  0.00    -0.288 C  
ENDROOT
BRANCH   2   5
HETATM    5  C   UNL     1     -11.758  14.490  71.495  1.00  0.00    -0.119 C  
BRANCH   5   6
HETATM    6  C   UNL     1     -12.455  15.156  72.682  1.00  0.00    -0.376 C  
HETATM    7  H   UNL     1     -12.734  14.780  74.602  1.00  0.00     0.000 HD 
HETATM    8  O   UNL     1     -12.301  14.366  73.865  1.00  0.00    -0.314 OA 
BRANCH   6   9
HETATM    9  C   UNL     1     -11.798  16.539  72.900  1.00  0.00    -0.321 C  
HETATM   10  H   UNL     1     -11.871  18.049  74.197  1.00  0.00     0.000 HD 
HETATM   11  O   UNL     1     -12.275  17.200  74.063  1.00  0.00    -0.309 OA 
ENDBRANCH   6   9
ENDBRANCH   5   6
ENDBRANCH   2   5
BRANCH   4  12
HETATM   12  C   UNL     1     -10.757  12.835  69.067  1.00  0.00    -0.136 A  
HETATM   13  C   UNL     1     -10.731  11.495  69.467  1.00  0.00    -0.000 A  
HETATM   14  C   UNL     1      -9.512  13.449  68.717  1.00  0.00     0.068 A  
HETATM   15  C   UNL     1      -8.328  12.669  68.530  1.00  0.00    -0.060 A  
HETATM   16  I   UNL     1      -9.460  15.601  68.526  1.00  0.00    -0.231 I  
HETATM   17  I   UNL     1     -12.235  10.786  70.845  1.00  0.00    -0.444 I  
HETATM   18  C   UNL     1      -8.481  11.262  68.575  1.00  0.00    -0.156 A  
HETATM   19  I   UNL     1      -7.207  10.034  67.338  1.00  0.00    -0.085 I  
HETATM   20  C   UNL     1      -9.642  10.666  69.141  1.00  0.00    -0.177 A  
BRANCH  15  21
HETATM   21  C   UNL     1      -7.008  13.344  68.185  1.00  0.00    -0.116 C  
HETATM   22  O   UNL     1      -6.684  13.398  66.996  1.00  0.00    -0.063 OA 
HETATM   23  N   UNL     1      -6.204  13.983  69.154  1.00  0.00    -0.097 N  
HETATM   24  C   UNL     1      -6.165  13.664  70.577  1.00  0.00    -0.028 C  
BRANCH  23  25
HETATM   25  C   UNL     1      -5.126  14.885  68.677  1.00  0.00    -0.095 C  
BRANCH  25  26
HETATM   26  C   UNL     1      -5.551  16.336  68.363  1.00  0.00    -0.104 C  
HETATM   27  H   UNL     1      -6.980  17.295  67.337  1.00  0.00     0.000 HD 
HETATM   28  O   UNL     1      -6.718  16.402  67.531  1.00  0.00    -0.124 OA 
BRANCH  26  29
HETATM   29  C   UNL     1      -5.898  17.115  69.644  1.00  0.00    -0.229 C  
HETATM   30  H   UNL     1      -6.479  18.939  70.103  1.00  0.00     0.000 HD 
HETATM   31  O   UNL     1      -6.265  18.458  69.312  1.00  0.00    -0.235 OA 
ENDBRANCH  26  29
ENDBRANCH  25  26
ENDBRANCH  23  25
ENDBRANCH  15  21
BRANCH  20  32
HETATM   32  N   UNL     1      -9.805   9.260  69.305  1.00  0.00    -0.167 N  
HETATM   33  C   UNL     1     -10.347   8.456  68.311  1.00  0.00    -0.199 C  
HETATM   34  H   UNL     1      -9.515   8.830  70.184  1.00  0.00     0.000 HD 
HETATM   35  H   UNL     1      -7.151   6.698  69.410  1.00  0.00     0.000 HD 
HETATM   36  H   UNL     1     -11.415   5.719  65.821  1.00  0.00     0.000 HD 
HETATM   37  C   UNL     1     -10.274   6.960  68.634  1.00  0.00    -0.181 C  
HETATM   38  O   UNL     1     -10.780   8.880  67.241  1.00  0.00    -0.273 OA 
HETATM   39  O   UNL     1     -10.822   6.211  66.377  1.00  0.00    -0.164 OA 
HETATM   40  O   UNL     1      -8.040   7.018  69.508  1.00  0.00    -0.125 OA 
HETATM   41  C   UNL     1      -8.845   6.445  68.478  1.00  0.00    -0.119 C  
HETATM   42  C   UNL     1     -11.225   6.170  67.741  1.00  0.00    -0.017 C  
ENDBRANCH  20  32
ENDBRANCH   4  12
TORSDOF 9
ENDMDL
MODEL       89
REMARK 921   NORMALIZED FREE ENERGY PREDICTED BY IDOCK:   -2.10 KCAL/MOL
REMARK 922        TOTAL FREE ENERGY PREDICTED BY IDOCK:   -4.50 KCAL/MOL
REMARK 923 INTER-LIGAND FREE ENERGY PREDICTED BY IDOCK:   -3.43 KCAL/MOL
REMARK 924 INTRA-LIGAND FREE ENERGY PREDICTED BY IDOCK:   -1.07 KCAL/MOL
REMARK 927      BINDING AFFINITY PREDICTED BY RF-SCORE:    0.00 PKD
ROOT
HETATM    1  C   UNL     1     -10.731  11.906  69.679  1.00  0.00     0.279 C  
HETATM    2  N   UNL     1     -10.302  10.545  69.359  1.00  0.00    -0.231 N  
HETATM    3  O   UNL     1      -8.126  11.303  69.149  1.00  0.00    -0.093 OA 
HETATM    4  C   UNL     1      -8.929  10.382  69.054  1.00  0.00    -0.179 C  
ENDROOT
BRANCH   2   5
HETATM    5  C   UNL     1     -11.275   9.477  69.656  1.00  0.00    -0.108 C  
BRANCH   5   6
HETATM    6  C   UNL     1     -12.126   9.577  70.923  1.00  0.00    -0.278 C  
HETATM    7  H   UNL     1     -13.840  10.399  71.461  1.00  0.00     0.000 HD 
HETATM    8  O   UNL     1     -13.312  10.337  70.674  1.00  0.00    -0.311 OA 
BRANCH   6   9
HETATM    9  C   UNL     1     -12.517   8.141  71.344  1.00  0.00    -0.292 C  
HETATM   10  H   UNL     1     -12.146   6.854  72.818  1.00  0.00     0.000 HD 
HETATM   11  O   UNL     1     -11.905   7.736  72.560  1.00  0.00    -0.335 OA 
ENDBRANCH   6   9
ENDBRANCH   5   6
ENDBRANCH   2   5
BRANCH   4  12
HETATM   12  C   UNL     1      -8.377   9.051  68.628  1.00  0.00    -0.123 A  
HETATM   13  C   UNL     1      -8.407   8.716  67.271  1.00  0.00    -0.108 A  
HETATM   14  C   UNL     1      -7.884   8.069  69.546  1.00  0.00    -0.105 A  
HETATM   15  C   UNL     1      -7.207   6.897  69.083  1.00  0.00    -0.090 A  
HETATM   16  I   UNL     1      -8.233   8.383  71.656  1.00  0.00    -0.196 I  
HETATM   17  I   UNL     1      -9.902   9.621  66.003  1.00  0.00    -0.237 I  
HETATM   18  C   UNL     1      -6.934   6.828  67.696  1.00  0.00    -0.083 A  
HETATM   19  I   UNL     1      -5.143   5.822  67.033  1.00  0.00    -0.005 I  
HETATM   20  C   UNL     1      -7.612   7.669  66.770  1.00  0.00    -0.098 A  
BRANCH  15  21
HETATM   21  C   UNL     1      -6.715   5.851  70.073  1.00  0.00    -0.052 C  
HETATM   22  O   UNL     1      -5.599   6.016  70.574  1.00  0.00    -0.013 OA 
HETATM   23  N   UNL     1      -7.516   4.771  70.501  1.00  0.00    -0.056 N  
HETATM   24  C   UNL     1      -8.610   4.167  69.747  1.00  0.00    -0.064 C  
BRANCH  23  25
HETATM   25  C   UNL     1      -7.077   4.011  71.698  1.00  0.00    -0.045 C  
BRANCH  25  26
HETATM   26  C   UNL     1      -8.170   3.718  72.748  1.00  0.00    -0.090 C  
HETATM   27  H   UNL     1      -9.149   2.140  73.499  1.00  0.00     0.000 HD 
HETATM   28  O   UNL     1      -8.477   2.320  72.852  1.00  0.00    -0.061 OA 
BRANCH  26  29
HETATM   29  C   UNL     1      -7.738   4.165  74.156  1.00  0.00    -0.084 C  
HETATM   30  H   UNL     1      -7.051   5.809  74.994  1.00  0.00     0.000 HD 
HETATM   31  O   UNL     1      -7.318   5.533  74.125  1.00  0.00    -0.088 OA 
ENDBRANCH  26  29
ENDBRANCH  25  26
ENDBRANCH  23  25
ENDBRANCH  15  21
BRANCH  20  32
HETATM   32  N   UNL     1      -7.454   7.573  65.356  1.00  0.00    -0.078 N  
HETATM   33  C   UNL     1      -8.079   6.585  64.607  1.00  0.00    -0.092 C  
HETATM   34  H   UNL     1      -6.863   8.254  64.880  1.00  0.00     0.000 HD 
HETATM   35  H   UNL     1      -8.820   9.854  62.796  1.00  0.00     0.000 HD 
HETATM   36  H   UNL     1      -9.821   4.340  62.007  1.00  0.00     0.000 HD 
HETATM   37  C   UNL     1      -7.907   6.771  63.096  1.00  0.00    -0.105 C  
HETATM   38  O   UNL     1      -8.764   5.684  65.088  1.00  0.00    -0.150 OA 
HETATM   39  O   UNL     1      -9.615   5.145  62.469  1.00  0.00     0.119 OA 
HETATM   40  O   UNL     1      -8.274   9.142  63.110  1.00  0.00    -0.156 OA 
HETATM   41  C   UNL     1      -8.785   7.914  62.592  1.00  0.00     0.280 C  
HETATM   42  C   UNL     1      -8.237   5.480  62.354  1.00  0.00    -0.105 C  
ENDBRANCH  20  32
ENDBRANCH   4  12
TORSDOF 9
ENDMDL
MODEL       90
REMARK 921   NORMALIZED FREE ENERGY PREDICTED BY IDOCK:   -2.02 KCAL/MOL
REMARK 922        TOTAL FREE ENERGY PREDICTED BY IDOCK:   -4.38 KCAL/MOL
REMARK 923 INTER-LIGAND FREE ENERGY PREDICTED BY IDOCK:   -5.74 KCAL/MOL
REMARK 924 INTRA-LIGAND FREE ENERGY PREDICTED BY IDOCK:    1.35 KCAL/MOL
REMARK 927      BINDING AFFINITY PREDICTED BY RF-SCORE:    0.00 PKD
ROOT
HETATM    1  C   UNL     1      -8.151   8.225  64.217  1.00  0.00    -0.147 C  
HETATM    2  N   UNL     1      -8.415   8.392  65.645  1.00  0.00    -0.156 N  
HETATM    3  O   UNL     1     -10.426   9.416  65.132  1.00  0.00     0.636 OA 
HETATM    4  C   UNL     1      -9.611   9.074  65.981  1.00  0.00    -0.272 C  
ENDROOT
BRANCH   2   5
HETATM    5  C   UNL     1      -7.562   7.604  66.554  1.00  0.00    -0.096 C  
BRANCH   5   6
HETATM    6  C   UNL     1      -6.169   8.127  66.907  1.00  0.00    -0.055 C  
HETATM    7  H   UNL     1      -5.204   8.713  68.529  1.00  0.00     0.000 HD 
HETATM    8  O   UNL     1      -6.069   8.388  68.310  1.00  0.00    -0.044 OA 
BRANCH   6   9
HETATM    9  C   UNL     1      -5.142   7.040  66.513  1.00  0.00    -0.021 C  
HETATM   10  H   UNL     1      -4.521   5.259  67.153  1.00  0.00     0.000 HD 
HETATM   11  O   UNL     1      -5.151   5.927  67.395  1.00  0.00    -0.004 OA 
ENDBRANCH   6   9
ENDBRANCH   5   6
ENDBRANCH   2   5
BRANCH   4  12
HETATM   12  C   UNL     1      -9.958   9.384  67.409  1.00  0.00    -0.252 A  
HETATM   13  C   UNL     1      -9.669  10.659  67.908  1.00  0.00    -0.161 A  
HETATM   14  C   UNL     1     -10.506   8.422  68.317  1.00  0.00    -0.163 A  
HETATM   15  C   UNL     1     -10.983   8.812  69.608  1.00  0.00    -0.114 A  
HETATM   16  I   UNL     1     -10.547   6.352  67.700  1.00  0.00    -0.473 I  
HETATM   17  I   UNL     1      -8.071  11.797  67.005  1.00  0.00    -0.095 I  
HETATM   18  C   UNL     1     -11.011  10.200  69.883  1.00  0.00    -0.293 A  
HETATM   19  I   UNL     1     -12.565  10.980  71.163  1.00  0.00    -0.377 I  
HETATM   20  C   UNL     1     -10.268  11.121  69.094  1.00  0.00    -0.141 A  
BRANCH  15  21
HETATM   21  C   UNL     1     -11.537   7.769  70.569  1.00  0.00    -0.158 C  
HETATM   22  O   UNL     1     -12.737   7.493  70.488  1.00  0.00     0.086 OA 
HETATM   23  N   UNL     1     -10.719   7.054  71.469  1.00  0.00    -0.221 N  
HETATM   24  C   UNL     1      -9.448   7.513  72.019  1.00  0.00    -0.140 C  
BRANCH  23  25
HETATM   25  C   UNL     1     -11.288   5.845  72.116  1.00  0.00    -0.288 C  
BRANCH  25  26
HETATM   26  C   UNL     1     -10.332   5.062  73.042  1.00  0.00    -0.189 C  
HETATM   27  H   UNL     1     -10.355   4.217  74.858  1.00  0.00     0.000 HD 
HETATM   28  O   UNL     1     -10.943   4.699  74.288  1.00  0.00    -0.314 OA 
BRANCH  26  29
HETATM   29  C   UNL     1      -9.869   3.746  72.395  1.00  0.00    -0.158 C  
HETATM   30  H   UNL     1     -10.168   1.820  72.683  1.00  0.00     0.000 HD 
HETATM   31  O   UNL     1     -10.454   2.634  73.082  1.00  0.00    -0.139 OA 
ENDBRANCH  26  29
ENDBRANCH  25  26
ENDBRANCH  23  25
ENDBRANCH  15  21
BRANCH  20  32
HETATM   32  N   UNL     1     -10.175  12.513  69.385  1.00  0.00    -0.167 N  
HETATM   33  C   UNL     1     -10.313  13.485  68.402  1.00  0.00    -0.248 C  
HETATM   34  H   UNL     1     -10.002  12.805  70.347  1.00  0.00     0.000 HD 
HETATM   35  H   UNL     1     -12.610  14.575  71.239  1.00  0.00     0.000 HD 
HETATM   36  H   UNL     1     -10.970  16.582  66.209  1.00  0.00     0.000 HD 
HETATM   37  C   UNL     1     -10.347  14.912  68.962  1.00  0.00    -0.245 C  
HETATM   38  O   UNL     1     -10.466  13.241  67.207  1.00  0.00    -0.245 OA 
HETATM   39  O   UNL     1     -11.135  15.948  66.898  1.00  0.00    -0.228 OA 
HETATM   40  O   UNL     1     -11.776  14.400  70.820  1.00  0.00    -0.293 OA 
HETATM   41  C   UNL     1     -11.687  15.193  69.636  1.00  0.00    -0.327 C  
HETATM   42  C   UNL     1     -10.083  15.929  67.856  1.00  0.00    -0.235 C  
ENDBRANCH  20  32
ENDBRANCH   4  12
TORSDOF 9
ENDMDL
MODEL       91
REMARK 921   NORMALIZED FREE ENERGY PREDICTED BY IDOCK:   -1.95 KCAL/MOL
REMARK 922        TOTAL FREE ENERGY PREDICTED BY IDOCK:   -4.27 KCAL/MOL
REMARK 923 INTER-LIGAND FREE ENERGY PREDICTED BY IDOCK:   -4.88 KCAL/MOL
REMARK 924 INTRA-LIGAND FREE ENERGY PREDICTED BY IDOCK:    0.61 KCAL/MOL
REMARK 927      BINDING AFFINITY PREDICTED BY RF-SCORE:    0.00 PKD
ROOT
HETATM    1  C   UNL     1      -8.991  13.155  66.157  1.00  0.00     0.220 C  
HETATM    2  N   UNL     1      -8.995  11.701  66.312  1.00  0.00    -0.204 N  
HETATM    3  O   UNL     1      -6.760  11.779  66.906  1.00  0.00    -0.140 OA 
HETATM    4  C   UNL     1      -7.755  11.108  66.655  1.00  0.00    -0.155 C  
ENDROOT
BRANCH   2   5
HETATM    5  C   UNL     1     -10.324  11.063  66.363  1.00  0.00    -0.250 C  
BRANCH   5   6
HETATM    6  C   UNL     1     -11.388  11.635  67.300  1.00  0.00    -0.305 C  
HETATM    7  H   UNL     1     -11.476  12.325  69.149  1.00  0.00     0.000 HD 
HETATM    8  O   UNL     1     -10.815  11.970  68.567  1.00  0.00    -0.213 OA 
BRANCH   6   9
HETATM    9  C   UNL     1     -11.960  12.912  66.643  1.00  0.00    -0.366 C  
HETATM   10  H   UNL     1     -12.490  14.761  67.162  1.00  0.00     0.000 HD 
HETATM   11  O   UNL     1     -12.138  13.976  67.566  1.00  0.00    -0.391 OA 
ENDBRANCH   6   9
ENDBRANCH   5   6
ENDBRANCH   2   5
BRANCH   4  12
HETATM   12  C   UNL     1      -7.606   9.618  66.763  1.00  0.00    -0.098 A  
HETATM   13  C   UNL     1      -7.785   9.015  68.013  1.00  0.00    -0.097 A  
HETATM   14  C   UNL     1      -7.216   8.780  65.669  1.00  0.00    -0.084 A  
HETATM   15  C   UNL     1      -7.261   7.354  65.777  1.00  0.00    -0.066 A  
HETATM   16  I   UNL     1      -6.511   9.732  63.862  1.00  0.00    -0.128 I  
HETATM   17  I   UNL     1      -7.432  10.181  69.796  1.00  0.00    -0.110 I  
HETATM   18  C   UNL     1      -7.832   6.824  66.958  1.00  0.00    -0.104 A  
HETATM   19  I   UNL     1      -8.911   4.957  66.850  1.00  0.00    -0.128 I  
HETATM   20  C   UNL     1      -8.001   7.629  68.119  1.00  0.00    -0.123 A  
BRANCH  15  21
HETATM   21  C   UNL     1      -6.817   6.481  64.612  1.00  0.00    -0.046 C  
HETATM   22  O   UNL     1      -5.822   5.770  64.774  1.00  0.00    -0.023 OA 
HETATM   23  N   UNL     1      -7.547   6.390  63.408  1.00  0.00    -0.081 N  
HETATM   24  C   UNL     1      -8.429   7.417  62.864  1.00  0.00     0.218 C  
BRANCH  23  25
HETATM   25  C   UNL     1      -7.221   5.279  62.479  1.00  0.00    -0.038 C  
BRANCH  25  26
HETATM   26  C   UNL     1      -8.104   4.019  62.601  1.00  0.00    -0.075 C  
HETATM   27  H   UNL     1      -8.588   2.650  63.982  1.00  0.00     0.000 HD 
HETATM   28  O   UNL     1      -8.044   3.426  63.906  1.00  0.00    -0.087 OA 
BRANCH  26  29
HETATM   29  C   UNL     1      -9.587   4.339  62.346  1.00  0.00    -0.131 C  
HETATM   30  H   UNL     1     -11.312   3.942  63.210  1.00  0.00     0.000 HD 
HETATM   31  O   UNL     1     -10.395   3.745  63.367  1.00  0.00    -0.195 OA 
ENDBRANCH  26  29
ENDBRANCH  25  26
ENDBRANCH  23  25
ENDBRANCH  15  21
BRANCH  20  32
HETATM   32  N   UNL     1      -8.474   7.125  69.366  1.00  0.00    -0.133 N  
HETATM   33  C   UNL     1      -9.765   7.363  69.819  1.00  0.00    -0.170 C  
HETATM   34  H   UNL     1      -7.842   6.571  69.945  1.00  0.00     0.000 HD 
HETATM   35  H   UNL     1      -9.223   3.613  70.218  1.00  0.00     0.000 HD 
HETATM   36  H   UNL     1     -13.281   7.380  71.390  1.00  0.00     0.000 HD 
HETATM   37  C   UNL     1     -10.111   6.591  71.096  1.00  0.00    -0.206 C  
HETATM   38  O   UNL     1     -10.585   8.064  69.228  1.00  0.00    -0.222 OA 
HETATM   39  O   UNL     1     -12.512   7.009  70.972  1.00  0.00    -0.376 OA 
HETATM   40  O   UNL     1      -9.084   4.533  70.411  1.00  0.00    -0.099 OA 
HETATM   41  C   UNL     1     -10.333   5.113  70.787  1.00  0.00    -0.224 C  
HETATM   42  C   UNL     1     -11.345   7.187  71.767  1.00  0.00    -0.252 C  
ENDBRANCH  20  32
ENDBRANCH   4  12
TORSDOF 9
ENDMDL
MODEL       92
REMARK 921   NORMALIZED FREE ENERGY PREDICTED BY IDOCK:   -1.93 KCAL/MOL
REMARK 922        TOTAL FREE ENERGY PREDICTED BY IDOCK:   -4.24 KCAL/MOL
REMARK 923 INTER-LIGAND FREE ENERGY PREDICTED BY IDOCK:   -5.03 KCAL/MOL
REMARK 924 INTRA-LIGAND FREE ENERGY PREDICTED BY IDOCK:    0.79 KCAL/MOL
REMARK 927      BINDING AFFINITY PREDICTED BY RF-SCORE:    0.00 PKD
ROOT
HETATM    1  C   UNL     1     -11.685   6.843  72.272  1.00  0.00    -0.257 C  
HETATM    2  N   UNL     1     -10.960   7.725  71.359  1.00  0.00    -0.233 N  
HETATM    3  O   UNL     1     -12.938   8.833  70.893  1.00  0.00    -0.047 OA 
HETATM    4  C   UNL     1     -11.742   8.683  70.667  1.00  0.00    -0.155 C  
ENDROOT
BRANCH   2   5
HETATM    5  C   UNL     1      -9.489   7.699  71.471  1.00  0.00    -0.143 C  
BRANCH   5   6
HETATM    6  C   UNL     1      -8.845   6.952  72.639  1.00  0.00    -0.124 C  
HETATM    7  H   UNL     1      -7.947   5.218  72.937  1.00  0.00     0.000 HD 
HETATM    8  O   UNL     1      -8.347   5.682  72.211  1.00  0.00    -0.117 OA 
BRANCH   6   9
HETATM    9  C   UNL     1      -7.672   7.814  73.161  1.00  0.00    -0.119 C  
HETATM   10  H   UNL     1      -6.038   8.711  72.458  1.00  0.00     0.000 HD 
HETATM   11  O   UNL     1      -6.759   8.182  72.137  1.00  0.00    -0.063 OA 
ENDBRANCH   6   9
ENDBRANCH   5   6
ENDBRANCH   2   5
BRANCH   4  12
HETATM   12  C   UNL     1     -11.133   9.594  69.640  1.00  0.00    -0.223 A  
HETATM   13  C   UNL     1     -11.163  10.974  69.866  1.00  0.00    -0.252 A  
HETATM   14  C   UNL     1     -10.584   9.133  68.401  1.00  0.00    -0.172 A  
HETATM   15  C   UNL     1      -9.859  10.016  67.539  1.00  0.00    -0.211 A  
HETATM   16  I   UNL     1     -10.924   7.074  67.841  1.00  0.00     0.031 I  
HETATM   17  I   UNL     1     -12.714  11.794  71.125  1.00  0.00    -0.022 I  
HETATM   18  C   UNL     1      -9.599  11.316  68.036  1.00  0.00    -0.180 A  
HETATM   19  I   UNL     1      -7.769  12.307  67.459  1.00  0.00    -0.167 I  
HETATM   20  C   UNL     1     -10.326  11.841  69.140  1.00  0.00     0.024 A  
BRANCH  15  21
HETATM   21  C   UNL     1      -9.306   9.513  66.213  1.00  0.00    -0.188 C  
HETATM   22  O   UNL     1      -9.984   9.706  65.199  1.00  0.00    -0.263 OA 
HETATM   23  N   UNL     1      -8.027   8.930  66.093  1.00  0.00    -0.105 N  
HETATM   24  C   UNL     1      -7.303   8.234  67.152  1.00  0.00    -0.088 C  
BRANCH  23  25
HETATM   25  C   UNL     1      -7.455   8.781  64.732  1.00  0.00    -0.100 C  
BRANCH  25  26
HETATM   26  C   UNL     1      -7.038   7.351  64.329  1.00  0.00    -0.066 C  
HETATM   27  H   UNL     1      -6.084   5.781  65.129  1.00  0.00     0.000 HD 
HETATM   28  O   UNL     1      -6.340   6.662  65.376  1.00  0.00    -0.040 OA 
BRANCH  26  29
HETATM   29  C   UNL     1      -8.259   6.479  63.987  1.00  0.00     0.043 C  
HETATM   30  H   UNL     1      -9.378   5.147  64.911  1.00  0.00     0.000 HD 
HETATM   31  O   UNL     1      -8.624   5.686  65.121  1.00  0.00    -0.152 OA 
ENDBRANCH  26  29
ENDBRANCH  25  26
ENDBRANCH  23  25
ENDBRANCH  15  21
BRANCH  20  32
HETATM   32  N   UNL     1     -10.180  13.176  69.617  1.00  0.00     0.186 N  
HETATM   33  C   UNL     1     -10.452  14.280  68.820  1.00  0.00    -0.249 C  
HETATM   34  H   UNL     1      -9.866  13.325  70.576  1.00  0.00     0.000 HD 
HETATM   35  H   UNL     1     -12.299  14.909  72.092  1.00  0.00     0.000 HD 
HETATM   36  H   UNL     1     -11.395  17.658  67.228  1.00  0.00     0.000 HD 
HETATM   37  C   UNL     1     -10.390  15.608  69.583  1.00  0.00    -0.287 C  
HETATM   38  O   UNL     1     -10.780  14.213  67.637  1.00  0.00    -0.254 OA 
HETATM   39  O   UNL     1     -11.463  16.927  67.832  1.00  0.00    -0.033 OA 
HETATM   40  O   UNL     1     -11.537  14.809  71.533  1.00  0.00    -0.332 OA 
HETATM   41  C   UNL     1     -11.615  15.769  70.480  1.00  0.00    -0.375 C  
HETATM   42  C   UNL     1     -10.282  16.780  68.613  1.00  0.00    -0.298 C  
ENDBRANCH  20  32
ENDBRANCH   4  12
TORSDOF 9
ENDMDL
MODEL       93
REMARK 921   NORMALIZED FREE ENERGY PREDICTED BY IDOCK:   -1.85 KCAL/MOL
REMARK 922        TOTAL FREE ENERGY PREDICTED BY IDOCK:   -4.12 KCAL/MOL
REMARK 923 INTER-LIGAND FREE ENERGY PREDICTED BY IDOCK:   -4.13 KCAL/MOL
REMARK 924 INTRA-LIGAND FREE ENERGY PREDICTED BY IDOCK:    0.00 KCAL/MOL
REMARK 927      BINDING AFFINITY PREDICTED BY RF-SCORE:    0.00 PKD
ROOT
HETATM    1  C   UNL     1      -5.265  16.844  66.582  1.00  0.00    -0.049 C  
HETATM    2  N   UNL     1      -6.452  16.017  66.798  1.00  0.00     0.117 N  
HETATM    3  O   UNL     1      -5.278  14.775  68.358  1.00  0.00    -0.097 OA 
HETATM    4  C   UNL     1      -6.305  14.943  67.710  1.00  0.00    -0.155 C  
ENDROOT
BRANCH   2   5
HETATM    5  C   UNL     1      -7.717  16.554  66.260  1.00  0.00    -0.180 C  
BRANCH   5   6
HETATM    6  C   UNL     1      -8.177  17.946  66.692  1.00  0.00    -0.258 C  
HETATM    7  H   UNL     1      -8.078  19.792  65.992  1.00  0.00     0.000 HD 
HETATM    8  O   UNL     1      -7.791  18.926  65.724  1.00  0.00    -0.471 OA 
BRANCH   6   9
HETATM    9  C   UNL     1      -9.719  17.920  66.808  1.00  0.00    -0.314 C  
HETATM   10  H   UNL     1     -11.316  18.389  65.714  1.00  0.00     0.000 HD 
HETATM   11  O   UNL     1     -10.369  18.406  65.643  1.00  0.00    -0.605 OA 
ENDBRANCH   6   9
ENDBRANCH   5   6
ENDBRANCH   2   5
BRANCH   4  12
HETATM   12  C   UNL     1      -7.422  13.970  67.957  1.00  0.00    -0.141 A  
HETATM   13  C   UNL     1      -8.548  14.407  68.664  1.00  0.00    -0.161 A  
HETATM   14  C   UNL     1      -7.371  12.592  67.572  1.00  0.00    -0.151 A  
HETATM   15  C   UNL     1      -8.525  11.753  67.670  1.00  0.00    -0.149 A  
HETATM   16  I   UNL     1      -5.482  11.799  66.884  1.00  0.00     0.075 I  
HETATM   17  I   UNL     1      -8.340  16.053  70.046  1.00  0.00     1.811 I  
HETATM   18  C   UNL     1      -9.739  12.384  68.032  1.00  0.00    -0.210 A  
HETATM   19  I   UNL     1     -11.592  11.624  67.226  1.00  0.00     0.044 I  
HETATM   20  C   UNL     1      -9.748  13.675  68.629  1.00  0.00    -0.116 A  
BRANCH  15  21
HETATM   21  C   UNL     1      -8.443  10.284  67.281  1.00  0.00    -0.125 C  
HETATM   22  O   UNL     1      -8.155   9.472  68.165  1.00  0.00    -0.101 OA 
HETATM   23  N   UNL     1      -8.770   9.819  65.990  1.00  0.00    -0.138 N  
HETATM   24  C   UNL     1      -8.691  10.594  64.757  1.00  0.00    -0.160 C  
BRANCH  23  25
HETATM   25  C   UNL     1      -8.977   8.360  65.808  1.00  0.00    -0.159 C  
BRANCH  25  26
HETATM   26  C   UNL     1      -7.705   7.527  65.541  1.00  0.00    -0.103 C  
HETATM   27  H   UNL     1      -7.031   5.668  65.860  1.00  0.00     0.000 HD 
HETATM   28  O   UNL     1      -7.813   6.181  66.025  1.00  0.00    -0.100 OA 
BRANCH  26  29
HETATM   29  C   UNL     1      -7.407   7.415  64.036  1.00  0.00    -0.088 C  
HETATM   30  H   UNL     1      -5.884   7.777  62.841  1.00  0.00     0.000 HD 
HETATM   31  O   UNL     1      -6.068   7.846  63.770  1.00  0.00    -0.057 OA 
ENDBRANCH  26  29
ENDBRANCH  25  26
ENDBRANCH  23  25
ENDBRANCH  15  21
BRANCH  20  32
HETATM   32  N   UNL     1     -10.929  14.314  69.108  1.00  0.00    -0.259 N  
HETATM   33  C   UNL     1     -11.741  13.740  70.077  1.00  0.00    -0.257 C  
HETATM   34  H   UNL     1     -11.186  15.225  68.725  1.00  0.00     0.000 HD 
HETATM   35  H   UNL     1     -11.136  17.314  71.248  1.00  0.00     0.000 HD 
HETATM   36  H   UNL     1     -14.129  12.826  72.956  1.00  0.00     0.000 HD 
HETATM   37  C   UNL     1     -12.858  14.670  70.561  1.00  0.00    -0.371 C  
HETATM   38  O   UNL     1     -11.554  12.624  70.560  1.00  0.00    -0.037 OA 
HETATM   39  O   UNL     1     -13.455  13.319  72.503  1.00  0.00    -0.573 OA 
HETATM   40  O   UNL     1     -11.487  16.636  70.683  1.00  0.00    -0.172 OA 
HETATM   41  C   UNL     1     -12.293  15.760  71.470  1.00  0.00    -0.455 C  
HETATM   42  C   UNL     1     -13.940  13.878  71.288  1.00  0.00     0.035 C  
ENDBRANCH  20  32
ENDBRANCH   4  12
TORSDOF 9
ENDMDL
MODEL       94
REMARK 921   NORMALIZED FREE ENERGY PREDICTED BY IDOCK:   -1.82 KCAL/MOL
REMARK 922        TOTAL FREE ENERGY PREDICTED BY IDOCK:   -4.07 KCAL/MOL
REMARK 923 INTER-LIGAND FREE ENERGY PREDICTED BY IDOCK:   -3.44 KCAL/MOL
REMARK 924 INTRA-LIGAND FREE ENERGY PREDICTED BY IDOCK:   -0.64 KCAL/MOL
REMARK 927      BINDING AFFINITY PREDICTED BY RF-SCORE:    0.00 PKD
ROOT
HETATM    1  C   UNL     1      -9.595  13.063  65.923  1.00  0.00    -0.114 C  
HETATM    2  N   UNL     1      -9.232  11.723  66.378  1.00  0.00    -0.214 N  
HETATM    3  O   UNL     1      -7.058  12.445  66.706  1.00  0.00     0.026 OA 
HETATM    4  C   UNL     1      -7.868  11.525  66.707  1.00  0.00    -0.146 C  
ENDROOT
BRANCH   2   5
HETATM    5  C   UNL     1     -10.358  10.825  66.701  1.00  0.00    -0.241 C  
BRANCH   5   6
HETATM    6  C   UNL     1     -10.946  10.847  68.112  1.00  0.00    -0.249 C  
HETATM    7  H   UNL     1     -10.269  10.925  69.967  1.00  0.00     0.000 HD 
HETATM    8  O   UNL     1      -9.904  10.911  69.090  1.00  0.00    -0.205 OA 
BRANCH   6   9
HETATM    9  C   UNL     1     -11.839  12.104  68.232  1.00  0.00    -0.301 C  
HETATM   10  H   UNL     1     -13.071  12.951  69.549  1.00  0.00     0.000 HD 
HETATM   11  O   UNL     1     -12.522  12.179  69.475  1.00  0.00    -0.033 OA 
ENDBRANCH   6   9
ENDBRANCH   5   6
ENDBRANCH   2   5
BRANCH   4  12
HETATM   12  C   UNL     1      -7.349  10.174  67.108  1.00  0.00    -0.091 A  
HETATM   13  C   UNL     1      -6.977   9.968  68.441  1.00  0.00    -0.067 A  
HETATM   14  C   UNL     1      -7.143   9.099  66.186  1.00  0.00    -0.087 A  
HETATM   15  C   UNL     1      -6.818   7.783  66.643  1.00  0.00    -0.070 A  
HETATM   16  I   UNL     1      -7.291   9.531  64.073  1.00  0.00    -0.132 I  
HETATM   17  I   UNL     1      -6.358  11.663  69.628  1.00  0.00    -0.048 I  
HETATM   18  C   UNL     1      -6.845   7.573  68.043  1.00  0.00    -0.067 A  
HETATM   19  I   UNL     1      -7.437   5.638  68.797  1.00  0.00    -0.086 I  
HETATM   20  C   UNL     1      -6.819   8.667  68.952  1.00  0.00    -0.061 A  
BRANCH  15  21
HETATM   21  C   UNL     1      -6.577   6.660  65.645  1.00  0.00    -0.050 C  
HETATM   22  O   UNL     1      -5.424   6.491  65.238  1.00  0.00    -0.020 OA 
HETATM   23  N   UNL     1      -7.591   5.763  65.248  1.00  0.00    -0.081 N  
HETATM   24  C   UNL     1      -9.024   6.040  65.246  1.00  0.00     0.082 C  
BRANCH  23  25
HETATM   25  C   UNL     1      -7.185   4.522  64.543  1.00  0.00    -0.066 C  
BRANCH  25  26
HETATM   26  C   UNL     1      -7.264   3.220  65.369  1.00  0.00    -0.067 C  
HETATM   27  H   UNL     1      -7.641   1.274  65.077  1.00  0.00     0.000 HD 
HETATM   28  O   UNL     1      -7.592   2.075  64.568  1.00  0.00    -0.061 OA 
BRANCH  26  29
HETATM   29  C   UNL     1      -5.921   2.895  66.045  1.00  0.00    -0.023 C  
HETATM   30  H   UNL     1      -4.724   1.338  66.191  1.00  0.00     0.000 HD 
HETATM   31  O   UNL     1      -5.554   1.539  65.773  1.00  0.00    -0.012 OA 
ENDBRANCH  26  29
ENDBRANCH  25  26
ENDBRANCH  23  25
ENDBRANCH  15  21
BRANCH  20  32
HETATM   32  N   UNL     1      -6.741   8.514  70.366  1.00  0.00    -0.036 N  
HETATM   33  C   UNL     1      -7.871   8.352  71.157  1.00  0.00    -0.106 C  
HETATM   34  H   UNL     1      -5.824   8.525  70.813  1.00  0.00     0.000 HD 
HETATM   35  H   UNL     1      -5.473   5.594  72.234  1.00  0.00     0.000 HD 
HETATM   36  H   UNL     1     -10.572   7.508  73.769  1.00  0.00     0.000 HD 
HETATM   37  C   UNL     1      -7.546   8.039  72.622  1.00  0.00    -0.149 C  
HETATM   38  O   UNL     1      -9.023   8.382  70.728  1.00  0.00    -0.140 OA 
HETATM   39  O   UNL     1      -9.812   7.358  73.218  1.00  0.00    -0.216 OA 
HETATM   40  O   UNL     1      -5.778   6.489  72.142  1.00  0.00    -0.036 OA 
HETATM   41  C   UNL     1      -7.056   6.601  72.768  1.00  0.00    -0.080 C  
HETATM   42  C   UNL     1      -8.766   8.279  73.506  1.00  0.00    -0.189 C  
ENDBRANCH  20  32
ENDBRANCH   4  12
TORSDOF 9
ENDMDL
MODEL       95
REMARK 921   NORMALIZED FREE ENERGY PREDICTED BY IDOCK:   -1.77 KCAL/MOL
REMARK 922        TOTAL FREE ENERGY PREDICTED BY IDOCK:   -4.00 KCAL/MOL
REMARK 923 INTER-LIGAND FREE ENERGY PREDICTED BY IDOCK:   -7.34 KCAL/MOL
REMARK 924 INTRA-LIGAND FREE ENERGY PREDICTED BY IDOCK:    3.34 KCAL/MOL
REMARK 927      BINDING AFFINITY PREDICTED BY RF-SCORE:    0.00 PKD
ROOT
HETATM    1  C   UNL     1      -8.295  16.235  66.269  1.00  0.00    -0.308 C  
HETATM    2  N   UNL     1      -8.744  15.002  66.912  1.00  0.00    -0.242 N  
HETATM    3  O   UNL     1     -10.897  15.429  66.179  1.00  0.00    -0.321 OA 
HETATM    4  C   UNL     1     -10.132  14.729  66.832  1.00  0.00    -0.246 C  
ENDROOT
BRANCH   2   5
HETATM    5  C   UNL     1      -7.681  14.065  67.322  1.00  0.00    -0.098 C  
BRANCH   5   6
HETATM    6  C   UNL     1      -6.809  14.412  68.528  1.00  0.00    -0.098 C  
HETATM    7  H   UNL     1      -5.053  15.257  68.857  1.00  0.00     0.000 HD 
HETATM    8  O   UNL     1      -5.595  15.041  68.107  1.00  0.00    -0.110 OA 
BRANCH   6   9
HETATM    9  C   UNL     1      -7.607  15.387  69.424  1.00  0.00    -0.224 C  
HETATM   10  H   UNL     1      -7.566  17.303  69.968  1.00  0.00     0.000 HD 
HETATM   11  O   UNL     1      -7.076  16.704  69.418  1.00  0.00    -0.232 OA 
ENDBRANCH   6   9
ENDBRANCH   5   6
ENDBRANCH   2   5
BRANCH   4  12
HETATM   12  C   UNL     1     -10.735  13.538  67.521  1.00  0.00    -0.266 A  
HETATM   13  C   UNL     1     -10.752  12.312  66.848  1.00  0.00    -0.232 A  
HETATM   14  C   UNL     1     -11.362  13.601  68.807  1.00  0.00    -0.289 A  
HETATM   15  C   UNL     1     -11.760  12.411  69.495  1.00  0.00    -0.388 A  
HETATM   16  I   UNL     1     -11.736  15.550  69.660  1.00  0.00    -0.371 I  
HETATM   17  I   UNL     1     -10.730  12.304  64.689  1.00  0.00    -0.431 I  
HETATM   18  C   UNL     1     -11.382  11.181  68.907  1.00  0.00    -0.278 A  
HETATM   19  I   UNL     1     -10.931   9.504  70.190  1.00  0.00    -0.322 I  
HETATM   20  C   UNL     1     -10.974  11.110  67.545  1.00  0.00    -0.275 A  
BRANCH  15  21
HETATM   21  C   UNL     1     -12.450  12.501  70.849  1.00  0.00    -0.269 C  
HETATM   22  O   UNL     1     -12.254  11.587  71.654  1.00  0.00    -0.027 OA 
HETATM   23  N   UNL     1     -13.215  13.620  71.240  1.00  0.00    -0.277 N  
HETATM   24  C   UNL     1     -13.910  14.537  70.342  1.00  0.00     0.806 C  
BRANCH  23  25
HETATM   25  C   UNL     1     -13.562  13.757  72.676  1.00  0.00    -0.507 C  
BRANCH  25  26
HETATM   26  C   UNL     1     -12.628  14.658  73.512  1.00  0.00    -0.332 C  
HETATM   27  H   UNL     1     -10.728  15.292  73.481  1.00  0.00     0.000 HD 
HETATM   28  O   UNL     1     -11.303  14.737  72.967  1.00  0.00     0.040 OA 
BRANCH  26  29
HETATM   29  C   UNL     1     -13.147  16.105  73.580  1.00  0.00    -0.491 C  
HETATM   30  H   UNL     1     -12.392  17.888  73.940  1.00  0.00     0.000 HD 
HETATM   31  O   UNL     1     -12.072  16.994  73.898  1.00  0.00    -0.292 OA 
ENDBRANCH  26  29
ENDBRANCH  25  26
ENDBRANCH  23  25
ENDBRANCH  15  21
BRANCH  20  32
HETATM   32  N   UNL     1     -10.682   9.889  66.872  1.00  0.00    -0.171 N  
HETATM   33  C   UNL     1      -9.380   9.444  66.678  1.00  0.00    -0.163 C  
HETATM   34  H   UNL     1     -11.454   9.322  66.521  1.00  0.00     0.000 HD 
HETATM   35  H   UNL     1     -11.271   6.460  68.105  1.00  0.00     0.000 HD 
HETATM   36  H   UNL     1      -6.062   7.554  66.184  1.00  0.00     0.000 HD 
HETATM   37  C   UNL     1      -9.305   8.033  66.084  1.00  0.00    -0.212 C  
HETATM   38  O   UNL     1      -8.379  10.076  67.009  1.00  0.00    -0.120 OA 
HETATM   39  O   UNL     1      -6.927   7.722  66.538  1.00  0.00    -0.064 OA 
HETATM   40  O   UNL     1     -11.049   7.111  67.450  1.00  0.00    -0.247 OA 
HETATM   41  C   UNL     1      -9.662   6.987  67.137  1.00  0.00    -0.161 C  
HETATM   42  C   UNL     1      -7.916   7.764  65.515  1.00  0.00    -0.121 C  
ENDBRANCH  20  32
ENDBRANCH   4  12
TORSDOF 9
ENDMDL
MODEL       96
REMARK 921   NORMALIZED FREE ENERGY PREDICTED BY IDOCK:   -1.76 KCAL/MOL
REMARK 922        TOTAL FREE ENERGY PREDICTED BY IDOCK:   -3.98 KCAL/MOL
REMARK 923 INTER-LIGAND FREE ENERGY PREDICTED BY IDOCK:   -5.18 KCAL/MOL
REMARK 924 INTRA-LIGAND FREE ENERGY PREDICTED BY IDOCK:    1.20 KCAL/MOL
REMARK 927      BINDING AFFINITY PREDICTED BY RF-SCORE:    0.00 PKD
ROOT
HETATM    1  C   UNL     1     -12.904  12.665  65.668  1.00  0.00     0.502 C  
HETATM    2  N   UNL     1     -11.588  12.242  66.145  1.00  0.00    -0.386 N  
HETATM    3  O   UNL     1     -12.233  12.749  68.309  1.00  0.00    -0.197 OA 
HETATM    4  C   UNL     1     -11.354  12.386  67.535  1.00  0.00    -0.315 C  
ENDROOT
BRANCH   2   5
HETATM    5  C   UNL     1     -10.773  11.472  65.187  1.00  0.00    -0.289 C  
BRANCH   5   6
HETATM    6  C   UNL     1     -10.271  12.160  63.917  1.00  0.00    -0.400 C  
HETATM    7  H   UNL     1      -8.977  11.779  62.473  1.00  0.00     0.000 HD 
HETATM    8  O   UNL     1      -9.289  11.352  63.262  1.00  0.00    -0.280 OA 
BRANCH   6   9
HETATM    9  C   UNL     1     -11.482  12.359  62.976  1.00  0.00     0.051 C  
HETATM   10  H   UNL     1     -12.977  13.646  62.703  1.00  0.00     0.000 HD 
HETATM   11  O   UNL     1     -12.233  13.524  63.281  1.00  0.00    -0.619 OA 
ENDBRANCH   6   9
ENDBRANCH   5   6
ENDBRANCH   2   5
BRANCH   4  12
HETATM   12  C   UNL     1     -10.017  12.067  68.139  1.00  0.00    -0.203 A  
HETATM   13  C   UNL     1      -9.881  10.888  68.880  1.00  0.00    -0.192 A  
HETATM   14  C   UNL     1      -8.884  12.939  68.061  1.00  0.00    -0.195 A  
HETATM   15  C   UNL     1      -7.590  12.512  68.496  1.00  0.00    -0.119 A  
HETATM   16  I   UNL     1      -9.194  14.941  67.309  1.00  0.00    -0.254 I  
HETATM   17  I   UNL     1     -11.626  10.042  69.829  1.00  0.00    -0.032 I  
HETATM   18  C   UNL     1      -7.463  11.154  68.875  1.00  0.00    -0.125 A  
HETATM   19  I   UNL     1      -5.592  10.139  68.514  1.00  0.00    -0.036 I  
HETATM   20  C   UNL     1      -8.608  10.363  69.171  1.00  0.00    -0.164 A  
BRANCH  15  21
HETATM   21  C   UNL     1      -6.404  13.464  68.429  1.00  0.00    -0.088 C  
HETATM   22  O   UNL     1      -5.755  13.500  67.380  1.00  0.00    -0.351 OA 
HETATM   23  N   UNL     1      -6.086  14.357  69.474  1.00  0.00    -0.106 N  
HETATM   24  C   UNL     1      -6.410  14.173  70.884  1.00  0.00     0.037 C  
BRANCH  23  25
HETATM   25  C   UNL     1      -5.133  15.457  69.182  1.00  0.00    -0.095 C  
BRANCH  25  26
HETATM   26  C   UNL     1      -5.764  16.833  68.881  1.00  0.00    -0.145 C  
HETATM   27  H   UNL     1      -7.223  17.601  67.742  1.00  0.00     0.000 HD 
HETATM   28  O   UNL     1      -6.834  16.754  67.928  1.00  0.00    -0.137 OA 
BRANCH  26  29
HETATM   29  C   UNL     1      -6.367  17.469  70.145  1.00  0.00     0.229 C  
HETATM   30  H   UNL     1      -5.762  17.889  71.972  1.00  0.00     0.000 HD 
HETATM   31  O   UNL     1      -5.390  17.496  71.191  1.00  0.00    -0.232 OA 
ENDBRANCH  26  29
ENDBRANCH  25  26
ENDBRANCH  23  25
ENDBRANCH  15  21
BRANCH  20  32
HETATM   32  N   UNL     1      -8.538   9.025  69.656  1.00  0.00    -0.131 N  
HETATM   33  C   UNL     1      -8.179   8.729  70.964  1.00  0.00    -0.160 C  
HETATM   34  H   UNL     1      -8.758   8.258  69.020  1.00  0.00     0.000 HD 
HETATM   35  H   UNL     1     -11.356   6.732  70.306  1.00  0.00     0.000 HD 
HETATM   36  H   UNL     1      -7.623   7.345  74.515  1.00  0.00     0.000 HD 
HETATM   37  C   UNL     1      -8.332   7.245  71.314  1.00  0.00    -0.111 C  
HETATM   38  O   UNL     1      -7.840   9.572  71.793  1.00  0.00    -0.063 OA 
HETATM   39  O   UNL     1      -8.108   7.554  73.724  1.00  0.00    -0.119 OA 
HETATM   40  O   UNL     1     -10.439   6.959  70.203  1.00  0.00    -0.199 OA 
HETATM   41  C   UNL     1      -9.805   6.880  71.479  1.00  0.00    -0.169 C  
HETATM   42  C   UNL     1      -7.554   6.909  72.583  1.00  0.00    -0.090 C  
ENDBRANCH  20  32
ENDBRANCH   4  12
TORSDOF 9
ENDMDL
MODEL       97
REMARK 921   NORMALIZED FREE ENERGY PREDICTED BY IDOCK:   -1.71 KCAL/MOL
REMARK 922        TOTAL FREE ENERGY PREDICTED BY IDOCK:   -3.92 KCAL/MOL
REMARK 923 INTER-LIGAND FREE ENERGY PREDICTED BY IDOCK:   -3.16 KCAL/MOL
REMARK 924 INTRA-LIGAND FREE ENERGY PREDICTED BY IDOCK:   -0.76 KCAL/MOL
REMARK 927      BINDING AFFINITY PREDICTED BY RF-SCORE:    0.00 PKD
ROOT
HETATM    1  C   UNL     1     -10.548   4.798  65.455  1.00  0.00    -0.067 C  
HETATM    2  N   UNL     1      -9.720   5.535  66.408  1.00  0.00    -0.157 N  
HETATM    3  O   UNL     1     -11.601   6.674  67.130  1.00  0.00    -0.035 OA 
HETATM    4  C   UNL     1     -10.386   6.518  67.182  1.00  0.00    -0.247 C  
ENDROOT
BRANCH   2   5
HETATM    5  C   UNL     1      -8.370   4.989  66.645  1.00  0.00    -0.107 C  
BRANCH   5   6
HETATM    6  C   UNL     1      -7.167   5.673  65.996  1.00  0.00    -0.073 C  
HETATM    7  H   UNL     1      -5.682   6.847  66.562  1.00  0.00     0.000 HD 
HETATM    8  O   UNL     1      -6.430   6.423  66.966  1.00  0.00    -0.042 OA 
BRANCH   6   9
HETATM    9  C   UNL     1      -6.259   4.570  65.403  1.00  0.00    -0.031 C  
HETATM   10  H   UNL     1      -4.687   3.470  65.938  1.00  0.00     0.000 HD 
HETATM   11  O   UNL     1      -5.244   4.147  66.302  1.00  0.00    -0.008 OA 
ENDBRANCH   6   9
ENDBRANCH   5   6
ENDBRANCH   2   5
BRANCH   4  12
HETATM   12  C   UNL     1      -9.635   7.400  68.138  1.00  0.00    -0.148 A  
HETATM   13  C   UNL     1      -9.613   7.054  69.493  1.00  0.00    -0.153 A  
HETATM   14  C   UNL     1      -8.997   8.622  67.752  1.00  0.00    -0.136 A  
HETATM   15  C   UNL     1      -8.148   9.332  68.659  1.00  0.00    -0.105 A  
HETATM   16  I   UNL     1      -9.391   9.393  65.772  1.00  0.00    -0.301 I  
HETATM   17  I   UNL     1     -11.230   5.869  70.296  1.00  0.00     0.242 I  
HETATM   18  C   UNL     1      -7.867   8.699  69.893  1.00  0.00    -0.093 A  
HETATM   19  I   UNL     1      -5.942   9.018  70.817  1.00  0.00    -0.060 I  
HETATM   20  C   UNL     1      -8.666   7.621  70.366  1.00  0.00    -0.143 A  
BRANCH  15  21
HETATM   21  C   UNL     1      -7.500  10.643  68.238  1.00  0.00    -0.091 C  
HETATM   22  O   UNL     1      -6.325  10.609  67.864  1.00  0.00    -0.057 OA 
HETATM   23  N   UNL     1      -8.215  11.858  68.173  1.00  0.00    -0.151 N  
HETATM   24  C   UNL     1      -9.400  12.195  68.954  1.00  0.00     0.210 C  
BRANCH  23  25
HETATM   25  C   UNL     1      -7.593  12.993  67.445  1.00  0.00    -0.137 C  
BRANCH  25  26
HETATM   26  C   UNL     1      -6.258  13.512  68.020  1.00  0.00    -0.136 C  
HETATM   27  H   UNL     1      -4.343  13.681  67.456  1.00  0.00     0.000 HD 
HETATM   28  O   UNL     1      -5.165  13.362  67.102  1.00  0.00    -0.313 OA 
BRANCH  26  29
HETATM   29  C   UNL     1      -6.330  15.012  68.354  1.00  0.00    -0.107 C  
HETATM   30  H   UNL     1      -5.547  16.225  69.693  1.00  0.00     0.000 HD 
HETATM   31  O   UNL     1      -5.503  15.299  69.487  1.00  0.00    -0.094 OA 
ENDBRANCH  26  29
ENDBRANCH  25  26
ENDBRANCH  23  25
ENDBRANCH  15  21
BRANCH  20  32
HETATM   32  N   UNL     1      -8.496   7.015  71.644  1.00  0.00    -0.115 N  
HETATM   33  C   UNL     1      -7.678   5.908  71.835  1.00  0.00    -0.102 C  
HETATM   34  H   UNL     1      -8.991   7.406  72.445  1.00  0.00     0.000 HD 
HETATM   35  H   UNL     1      -6.678   8.390  74.546  1.00  0.00     0.000 HD 
HETATM   36  H   UNL     1      -5.304   3.117  73.020  1.00  0.00     0.000 HD 
HETATM   37  C   UNL     1      -7.510   5.526  73.310  1.00  0.00    -0.096 C  
HETATM   38  O   UNL     1      -7.084   5.325  70.930  1.00  0.00    -0.056 OA 
HETATM   39  O   UNL     1      -5.641   4.002  72.940  1.00  0.00     0.000 OA 
HETATM   40  O   UNL     1      -7.252   7.775  74.105  1.00  0.00    -0.117 OA 
HETATM   41  C   UNL     1      -6.588   6.515  74.019  1.00  0.00    -0.073 C  
HETATM   42  C   UNL     1      -6.969   4.106  73.439  1.00  0.00    -0.063 C  
ENDBRANCH  20  32
ENDBRANCH   4  12
TORSDOF 9
ENDMDL
MODEL       98
REMARK 921   NORMALIZED FREE ENERGY PREDICTED BY IDOCK:   -1.62 KCAL/MOL
REMARK 922        TOTAL FREE ENERGY PREDICTED BY IDOCK:   -3.78 KCAL/MOL
REMARK 923 INTER-LIGAND FREE ENERGY PREDICTED BY IDOCK:   -3.84 KCAL/MOL
REMARK 924 INTRA-LIGAND FREE ENERGY PREDICTED BY IDOCK:    0.07 KCAL/MOL
REMARK 927      BINDING AFFINITY PREDICTED BY RF-SCORE:    0.00 PKD
ROOT
HETATM    1  C   UNL     1      -7.180  17.747  69.183  1.00  0.00    -0.147 C  
HETATM    2  N   UNL     1      -7.760  16.430  68.923  1.00  0.00    -0.219 N  
HETATM    3  O   UNL     1      -6.154  16.066  67.297  1.00  0.00    -0.226 OA 
HETATM    4  C   UNL     1      -7.161  15.681  67.881  1.00  0.00    -0.137 C  
ENDROOT
BRANCH   2   5
HETATM    5  C   UNL     1      -8.706  15.932  69.939  1.00  0.00     0.402 C  
BRANCH   5   6
HETATM    6  C   UNL     1     -10.154  15.652  69.534  1.00  0.00    -0.277 C  
HETATM    7  H   UNL     1     -11.340  14.080  69.376  1.00  0.00     0.000 HD 
HETATM    8  O   UNL     1     -10.441  14.254  69.628  1.00  0.00    -0.043 OA 
BRANCH   6   9
HETATM    9  C   UNL     1     -11.074  16.430  70.503  1.00  0.00    -0.198 C  
HETATM   10  H   UNL     1     -12.932  16.332  71.214  1.00  0.00     0.000 HD 
HETATM   11  O   UNL     1     -12.367  15.854  70.619  1.00  0.00    -0.395 OA 
ENDBRANCH   6   9
ENDBRANCH   5   6
ENDBRANCH   2   5
BRANCH   4  12
HETATM   12  C   UNL     1      -7.714  14.349  67.459  1.00  0.00    -0.210 A  
HETATM   13  C   UNL     1      -8.752  14.321  66.521  1.00  0.00     0.023 A  
HETATM   14  C   UNL     1      -7.287  13.102  68.018  1.00  0.00    -0.125 A  
HETATM   15  C   UNL     1      -7.713  11.856  67.459  1.00  0.00    -0.151 A  
HETATM   16  I   UNL     1      -6.015  13.154  69.764  1.00  0.00    -0.081 I  
HETATM   17  I   UNL     1     -10.053  16.036  66.350  1.00  0.00    -0.379 I  
HETATM   18  C   UNL     1      -8.459  11.921  66.258  1.00  0.00     0.031 A  
HETATM   19  I   UNL     1      -8.249  10.332  64.811  1.00  0.00    -0.072 I  
HETATM   20  C   UNL     1      -9.071  13.134  65.837  1.00  0.00     0.320 A  
BRANCH  15  21
HETATM   21  C   UNL     1      -7.270  10.541  68.085  1.00  0.00    -0.087 C  
HETATM   22  O   UNL     1      -6.173  10.087  67.749  1.00  0.00    -0.054 OA 
HETATM   23  N   UNL     1      -8.015   9.886  69.088  1.00  0.00    -0.102 N  
HETATM   24  C   UNL     1      -9.457   9.994  69.289  1.00  0.00    -0.217 C  
BRANCH  23  25
HETATM   25  C   UNL     1      -7.347   8.808  69.858  1.00  0.00    -0.052 C  
BRANCH  25  26
HETATM   26  C   UNL     1      -7.885   7.380  69.623  1.00  0.00    -0.117 C  
HETATM   27  H   UNL     1      -7.624   5.869  68.333  1.00  0.00     0.000 HD 
HETATM   28  O   UNL     1      -7.293   6.748  68.478  1.00  0.00    -0.082 OA 
BRANCH  26  29
HETATM   29  C   UNL     1      -7.589   6.458  70.818  1.00  0.00    -0.096 C  
HETATM   30  H   UNL     1      -8.285   4.759  71.531  1.00  0.00     0.000 HD 
HETATM   31  O   UNL     1      -8.467   5.328  70.792  1.00  0.00    -0.117 OA 
ENDBRANCH  26  29
ENDBRANCH  25  26
ENDBRANCH  23  25
ENDBRANCH  15  21
BRANCH  20  32
HETATM   32  N   UNL     1      -9.917  13.235  64.694  1.00  0.00    -0.616 N  
HETATM   33  C   UNL     1     -11.069  12.472  64.556  1.00  0.00    -0.317 C  
HETATM   34  H   UNL     1      -9.667  13.890  63.952  1.00  0.00     0.000 HD 
HETATM   35  H   UNL     1     -12.122  16.052  63.787  1.00  0.00     0.000 HD 
HETATM   36  H   UNL     1     -14.515  10.923  63.807  1.00  0.00     0.000 HD 
HETATM   37  C   UNL     1     -11.911  12.862  63.336  1.00  0.00    -0.612 C  
HETATM   38  O   UNL     1     -11.429  11.615  65.361  1.00  0.00    -0.231 OA 
HETATM   39  O   UNL     1     -13.892  11.610  64.017  1.00  0.00     0.122 OA 
HETATM   40  O   UNL     1     -11.670  15.231  63.633  1.00  0.00    -0.006 OA 
HETATM   41  C   UNL     1     -12.637  14.182  63.583  1.00  0.00     0.357 C  
HETATM   42  C   UNL     1     -12.910  11.759  62.998  1.00  0.00     0.266 C  
ENDBRANCH  20  32
ENDBRANCH   4  12
TORSDOF 9
ENDMDL
MODEL       99
REMARK 921   NORMALIZED FREE ENERGY PREDICTED BY IDOCK:   -1.53 KCAL/MOL
REMARK 922        TOTAL FREE ENERGY PREDICTED BY IDOCK:   -3.63 KCAL/MOL
REMARK 923 INTER-LIGAND FREE ENERGY PREDICTED BY IDOCK:   -4.24 KCAL/MOL
REMARK 924 INTRA-LIGAND FREE ENERGY PREDICTED BY IDOCK:    0.61 KCAL/MOL
REMARK 927      BINDING AFFINITY PREDICTED BY RF-SCORE:    0.00 PKD
ROOT
HETATM    1  C   UNL     1     -11.416  12.816  69.659  1.00  0.00    -0.185 C  
HETATM    2  N   UNL     1     -11.253  11.434  69.210  1.00  0.00    -0.258 N  
HETATM    3  O   UNL     1      -8.960  11.740  69.167  1.00  0.00     0.174 OA 
HETATM    4  C   UNL     1      -9.925  11.019  68.941  1.00  0.00    -0.188 C  
ENDROOT
BRANCH   2   5
HETATM    5  C   UNL     1     -12.438  10.567  69.350  1.00  0.00     0.220 C  
BRANCH   5   6
HETATM    6  C   UNL     1     -13.316  10.704  70.595  1.00  0.00     0.124 C  
HETATM    7  H   UNL     1     -14.075   9.512  71.976  1.00  0.00     0.000 HD 
HETATM    8  O   UNL     1     -13.530   9.427  71.203  1.00  0.00    -0.314 OA 
BRANCH   6   9
HETATM    9  C   UNL     1     -12.581  11.630  71.592  1.00  0.00    -0.173 C  
HETATM   10  H   UNL     1     -13.015  13.031  72.940  1.00  0.00     0.000 HD 
HETATM   11  O   UNL     1     -13.466  12.462  72.328  1.00  0.00    -0.541 OA 
ENDBRANCH   6   9
ENDBRANCH   5   6
ENDBRANCH   2   5
BRANCH   4  12
HETATM   12  C   UNL     1      -9.630   9.652  68.394  1.00  0.00    -0.154 A  
HETATM   13  C   UNL     1      -9.619   9.473  67.007  1.00  0.00    -0.164 A  
HETATM   14  C   UNL     1      -9.428   8.497  69.217  1.00  0.00    -0.158 A  
HETATM   15  C   UNL     1      -8.976   7.261  68.658  1.00  0.00    -0.128 A  
HETATM   16  I   UNL     1      -9.875   8.661  71.325  1.00  0.00    -0.383 I  
HETATM   17  I   UNL     1     -10.785  10.806  65.771  1.00  0.00     0.133 I  
HETATM   18  C   UNL     1      -8.612   7.278  67.290  1.00  0.00    -0.121 A  
HETATM   19  I   UNL     1      -7.021   5.982  66.617  1.00  0.00    -0.071 I  
HETATM   20  C   UNL     1      -9.022   8.336  66.432  1.00  0.00    -0.166 A  
BRANCH  15  21
HETATM   21  C   UNL     1      -8.794   6.037  69.545  1.00  0.00    -0.125 C  
HETATM   22  O   UNL     1      -9.664   5.163  69.502  1.00  0.00    -0.157 OA 
HETATM   23  N   UNL     1      -7.640   5.831  70.330  1.00  0.00    -0.087 N  
HETATM   24  C   UNL     1      -6.763   6.874  70.852  1.00  0.00    -0.054 C  
BRANCH  23  25
HETATM   25  C   UNL     1      -7.413   4.475  70.889  1.00  0.00    -0.052 C  
BRANCH  25  26
HETATM   26  C   UNL     1      -8.308   4.081  72.084  1.00  0.00    -0.100 C  
HETATM   27  H   UNL     1      -9.398   2.514  72.693  1.00  0.00     0.000 HD 
HETATM   28  O   UNL     1      -8.847   2.758  71.958  1.00  0.00    -0.072 OA 
BRANCH  26  29
HETATM   29  C   UNL     1      -7.525   4.096  73.408  1.00  0.00    -0.076 C  
HETATM   30  H   UNL     1      -7.952   4.138  75.330  1.00  0.00     0.000 HD 
HETATM   31  O   UNL     1      -8.435   4.128  74.512  1.00  0.00    -0.092 OA 
ENDBRANCH  26  29
ENDBRANCH  25  26
ENDBRANCH  23  25
ENDBRANCH  15  21
BRANCH  20  32
HETATM   32  N   UNL     1      -8.773   8.355  65.029  1.00  0.00    -0.377 N  
HETATM   33  C   UNL     1      -7.757   9.117  64.468  1.00  0.00    -0.114 C  
HETATM   34  H   UNL     1      -9.361   7.789  64.417  1.00  0.00     0.000 HD 
HETATM   35  H   UNL     1      -7.359   5.635  62.973  1.00  0.00     0.000 HD 
HETATM   36  H   UNL     1      -4.910  10.707  62.419  1.00  0.00     0.000 HD 
HETATM   37  C   UNL     1      -7.562   8.858  62.970  1.00  0.00    -0.108 C  
HETATM   38  O   UNL     1      -7.030   9.875  65.107  1.00  0.00    -0.114 OA 
HETATM   39  O   UNL     1      -5.415  10.007  62.817  1.00  0.00    -0.089 OA 
HETATM   40  O   UNL     1      -7.784   6.473  63.115  1.00  0.00    -0.081 OA 
HETATM   41  C   UNL     1      -6.879   7.512  62.742  1.00  0.00    -0.071 C  
HETATM   42  C   UNL     1      -6.752   9.981  62.331  1.00  0.00    -0.116 C  
ENDBRANCH  20  32
ENDBRANCH   4  12
TORSDOF 9
ENDMDL
MODEL      100
REMARK 921   NORMALIZED FREE ENERGY PREDICTED BY IDOCK:   -1.51 KCAL/MOL
REMARK 922        TOTAL FREE ENERGY PREDICTED BY IDOCK:   -3.60 KCAL/MOL
REMARK 923 INTER-LIGAND FREE ENERGY PREDICTED BY IDOCK:   -3.99 KCAL/MOL
REMARK 924 INTRA-LIGAND FREE ENERGY PREDICTED BY IDOCK:    0.38 KCAL/MOL
REMARK 927      BINDING AFFINITY PREDICTED BY RF-SCORE:    0.00 PKD
ROOT
HETATM    1  C   UNL     1     -12.239  15.376  69.430  1.00  0.00    -0.219 C  
HETATM    2  N   UNL     1     -11.259  14.319  69.186  1.00  0.00    -0.260 N  
HETATM    3  O   UNL     1     -12.893  13.081  68.112  1.00  0.00     0.785 OA 
HETATM    4  C   UNL     1     -11.745  13.158  68.536  1.00  0.00    -0.352 C  
ENDROOT
BRANCH   2   5
HETATM    5  C   UNL     1      -9.846  14.690  69.393  1.00  0.00     0.005 C  
BRANCH   5   6
HETATM    6  C   UNL     1      -9.220  15.759  68.497  1.00  0.00    -0.198 C  
HETATM    7  H   UNL     1      -9.332  17.719  68.278  1.00  0.00     0.000 HD 
HETATM    8  O   UNL     1      -9.722  17.055  68.834  1.00  0.00    -0.264 OA 
BRANCH   6   9
HETATM    9  C   UNL     1      -7.690  15.727  68.723  1.00  0.00    -0.177 C  
HETATM   10  H   UNL     1      -6.368  16.228  70.127  1.00  0.00     0.000 HD 
HETATM   11  O   UNL     1      -7.308  16.247  69.988  1.00  0.00     0.257 OA 
ENDBRANCH   6   9
ENDBRANCH   5   6
ENDBRANCH   2   5
BRANCH   4  12
HETATM   12  C   UNL     1     -10.862  11.966  68.301  1.00  0.00    -0.261 A  
HETATM   13  C   UNL     1     -10.363  11.746  67.013  1.00  0.00    -0.214 A  
HETATM   14  C   UNL     1     -10.557  10.996  69.309  1.00  0.00    -0.201 A  
HETATM   15  C   UNL     1      -9.572   9.982  69.086  1.00  0.00    -0.217 A  
HETATM   16  I   UNL     1     -11.662  11.076  71.164  1.00  0.00     0.985 I  
HETATM   17  I   UNL     1     -11.459  12.518  65.320  1.00  0.00    -0.418 I  
HETATM   18  C   UNL     1      -8.829  10.072  67.885  1.00  0.00    -0.125 A  
HETATM   19  I   UNL     1      -6.775   9.407  67.875  1.00  0.00    -0.067 I  
HETATM   20  C   UNL     1      -9.278  10.876  66.800  1.00  0.00    -0.158 A  
BRANCH  15  21
HETATM   21  C   UNL     1      -9.282   8.944  70.160  1.00  0.00    -0.180 C  
HETATM   22  O   UNL     1      -8.256   9.084  70.832  1.00  0.00    -0.157 OA 
HETATM   23  N   UNL     1     -10.178   7.899  70.470  1.00  0.00    -0.197 N  
HETATM   24  C   UNL     1     -11.157   7.314  69.560  1.00  0.00    -0.107 C  
BRANCH  23  25
HETATM   25  C   UNL     1      -9.964   7.151  71.735  1.00  0.00    -0.175 C  
BRANCH  25  26
HETATM   26  C   UNL     1      -9.166   5.835  71.613  1.00  0.00    -0.146 C  
HETATM   27  H   UNL     1      -7.847   4.773  72.682  1.00  0.00     0.000 HD 
HETATM   28  O   UNL     1      -8.338   5.583  72.757  1.00  0.00    -0.113 OA 
BRANCH  26  29
HETATM   29  C   UNL     1     -10.098   4.618  71.484  1.00  0.00    -0.185 C  
HETATM   30  H   UNL     1      -9.910   2.703  71.061  1.00  0.00     0.000 HD 
HETATM   31  O   UNL     1      -9.335   3.456  71.141  1.00  0.00    -0.113 OA 
ENDBRANCH  26  29
ENDBRANCH  25  26
ENDBRANCH  23  25
ENDBRANCH  15  21
BRANCH  20  32
HETATM   32  N   UNL     1      -8.627  10.924  65.533  1.00  0.00    -0.257 N  
HETATM   33  C   UNL     1      -8.429   9.789  64.759  1.00  0.00    -0.164 C  
HETATM   34  H   UNL     1      -8.296  11.824  65.183  1.00  0.00     0.000 HD 
HETATM   35  H   UNL     1      -9.937  12.374  62.402  1.00  0.00     0.000 HD 
HETATM   36  H   UNL     1      -7.942   7.090  62.054  1.00  0.00     0.000 HD 
HETATM   37  C   UNL     1      -7.864  10.095  63.367  1.00  0.00    -0.155 C  
HETATM   38  O   UNL     1      -8.737   8.651  65.111  1.00  0.00    -0.184 OA 
HETATM   39  O   UNL     1      -8.302   7.876  62.450  1.00  0.00    -0.162 OA 
HETATM   40  O   UNL     1      -9.266  11.999  62.960  1.00  0.00    -0.207 OA 
HETATM   41  C   UNL     1      -8.942  10.698  62.470  1.00  0.00    -0.290 C  
HETATM   42  C   UNL     1      -7.287   8.834  62.732  1.00  0.00    -0.098 C  
ENDBRANCH  20  32
ENDBRANCH   4  12
TORSDOF 9
ENDMDL
MODEL      101
REMARK 921   NORMALIZED FREE ENERGY PREDICTED BY IDOCK:   -1.49 KCAL/MOL
REMARK 922        TOTAL FREE ENERGY PREDICTED BY IDOCK:   -3.57 KCAL/MOL
REMARK 923 INTER-LIGAND FREE ENERGY PREDICTED BY IDOCK:   -2.81 KCAL/MOL
REMARK 924 INTRA-LIGAND FREE ENERGY PREDICTED BY IDOCK:   -0.76 KCAL/MOL
REMARK 927      BINDING AFFINITY PREDICTED BY RF-SCORE:    0.00 PKD
ROOT
HETATM    1  C   UNL     1     -10.668   4.504  64.846  1.00  0.00    -0.002 C  
HETATM    2  N   UNL     1      -9.680   5.187  65.679  1.00  0.00    -0.108 N  
HETATM    3  O   UNL     1     -11.399   6.215  66.838  1.00  0.00    -0.199 OA 
HETATM    4  C   UNL     1     -10.195   6.088  66.643  1.00  0.00    -0.189 C  
ENDROOT
BRANCH   2   5
HETATM    5  C   UNL     1      -8.303   4.662  65.608  1.00  0.00    -0.116 C  
BRANCH   5   6
HETATM    6  C   UNL     1      -8.041   3.208  65.998  1.00  0.00    -0.089 C  
HETATM    7  H   UNL     1      -7.664   1.500  65.077  1.00  0.00     0.000 HD 
HETATM    8  O   UNL     1      -7.827   2.404  64.834  1.00  0.00    -0.075 OA 
BRANCH   6   9
HETATM    9  C   UNL     1      -6.772   3.177  66.882  1.00  0.00    -0.045 C  
HETATM   10  H   UNL     1      -5.586   4.449  67.852  1.00  0.00     0.000 HD 
HETATM   11  O   UNL     1      -6.365   4.469  67.309  1.00  0.00    -0.038 OA 
ENDBRANCH   6   9
ENDBRANCH   5   6
ENDBRANCH   2   5
BRANCH   4  12
HETATM   12  C   UNL     1      -9.285   6.915  67.505  1.00  0.00    -0.124 A  
HETATM   13  C   UNL     1      -8.690   6.315  68.620  1.00  0.00    -0.120 A  
HETATM   14  C   UNL     1      -9.045   8.310  67.293  1.00  0.00    -0.137 A  
HETATM   15  C   UNL     1      -8.037   9.008  68.030  1.00  0.00    -0.105 A  
HETATM   16  I   UNL     1     -10.285   9.348  65.859  1.00  0.00     0.627 I  
HETATM   17  I   UNL     1      -9.667   4.623  69.542  1.00  0.00    -0.209 I  
HETATM   18  C   UNL     1      -7.208   8.226  68.870  1.00  0.00    -0.078 A  
HETATM   19  I   UNL     1      -5.152   8.821  69.155  1.00  0.00    -0.037 I  
HETATM   20  C   UNL     1      -7.584   6.909  69.254  1.00  0.00    -0.096 A  
BRANCH  15  21
HETATM   21  C   UNL     1      -7.816  10.498  67.809  1.00  0.00    -0.104 C  
HETATM   22  O   UNL     1      -6.807  10.843  67.188  1.00  0.00    -0.082 OA 
HETATM   23  N   UNL     1      -8.758  11.473  68.200  1.00  0.00    -0.151 N  
HETATM   24  C   UNL     1      -9.729  11.338  69.281  1.00  0.00     0.137 C  
BRANCH  23  25
HETATM   25  C   UNL     1      -8.609  12.844  67.651  1.00  0.00    -0.182 C  
BRANCH  25  26
HETATM   26  C   UNL     1      -9.804  13.794  67.878  1.00  0.00    -0.232 C  
HETATM   27  H   UNL     1     -10.279  15.366  69.026  1.00  0.00     0.000 HD 
HETATM   28  O   UNL     1      -9.543  14.780  68.887  1.00  0.00    -0.216 OA 
BRANCH  26  29
HETATM   29  C   UNL     1     -10.156  14.576  66.600  1.00  0.00    -0.272 C  
HETATM   30  H   UNL     1      -9.843  14.384  64.665  1.00  0.00     0.000 HD 
HETATM   31  O   UNL     1      -9.626  13.902  65.455  1.00  0.00    -0.108 OA 
ENDBRANCH  26  29
ENDBRANCH  25  26
ENDBRANCH  23  25
ENDBRANCH  15  21
BRANCH  20  32
HETATM   32  N   UNL     1      -6.843   6.115  70.177  1.00  0.00    -0.055 N  
HETATM   33  C   UNL     1      -6.855   6.363  71.543  1.00  0.00    -0.067 C  
HETATM   34  H   UNL     1      -6.284   5.339  69.821  1.00  0.00     0.000 HD 
HETATM   35  H   UNL     1      -7.527   2.630  71.181  1.00  0.00     0.000 HD 
HETATM   36  H   UNL     1      -6.801   6.338  75.394  1.00  0.00     0.000 HD 
HETATM   37  C   UNL     1      -6.127   5.290  72.360  1.00  0.00    -0.030 C  
HETATM   38  O   UNL     1      -7.447   7.305  72.068  1.00  0.00    -0.079 OA 
HETATM   39  O   UNL     1      -6.997   6.018  74.521  1.00  0.00    -0.089 OA 
HETATM   40  O   UNL     1      -7.008   3.425  71.135  1.00  0.00    -0.031 OA 
HETATM   41  C   UNL     1      -6.960   4.013  72.434  1.00  0.00    -0.047 C  
HETATM   42  C   UNL     1      -5.812   5.804  73.761  1.00  0.00    -0.055 C  
ENDBRANCH  20  32
ENDBRANCH   4  12
TORSDOF 9
ENDMDL
MODEL      102
REMARK 921   NORMALIZED FREE ENERGY PREDICTED BY IDOCK:   -1.29 KCAL/MOL
REMARK 922        TOTAL FREE ENERGY PREDICTED BY IDOCK:   -3.27 KCAL/MOL
REMARK 923 INTER-LIGAND FREE ENERGY PREDICTED BY IDOCK:   -3.65 KCAL/MOL
REMARK 924 INTRA-LIGAND FREE ENERGY PREDICTED BY IDOCK:    0.39 KCAL/MOL
REMARK 927      BINDING AFFINITY PREDICTED BY RF-SCORE:    0.00 PKD
ROOT
HETATM    1  C   UNL     1     -13.564  13.664  70.543  1.00  0.00     0.748 C  
HETATM    2  N   UNL     1     -12.148  13.936  70.299  1.00  0.00    -0.333 N  
HETATM    3  O   UNL     1     -12.530  13.767  68.023  1.00  0.00    -0.091 OA 
HETATM    4  C   UNL     1     -11.734  13.909  68.944  1.00  0.00    -0.337 C  
ENDROOT
BRANCH   2   5
HETATM    5  C   UNL     1     -11.387  14.468  71.445  1.00  0.00     0.250 C  
BRANCH   5   6
HETATM    6  C   UNL     1     -11.667  15.892  71.927  1.00  0.00    -0.499 C  
HETATM    7  H   UNL     1     -11.853  17.687  71.123  1.00  0.00     0.000 HD 
HETATM    8  O   UNL     1     -11.679  16.803  70.824  1.00  0.00     0.169 OA 
BRANCH   6   9
HETATM    9  C   UNL     1     -13.054  15.896  72.610  1.00  0.00    -0.472 C  
HETATM   10  H   UNL     1     -14.248  14.641  73.595  1.00  0.00     0.000 HD 
HETATM   11  O   UNL     1     -13.396  14.639  73.176  1.00  0.00    -0.560 OA 
ENDBRANCH   6   9
ENDBRANCH   5   6
ENDBRANCH   2   5
BRANCH   4  12
HETATM   12  C   UNL     1     -10.293  14.091  68.564  1.00  0.00    -0.247 A  
HETATM   13  C   UNL     1      -9.837  15.377  68.258  1.00  0.00    -0.213 A  
HETATM   14  C   UNL     1      -9.368  13.006  68.426  1.00  0.00    -0.149 A  
HETATM   15  C   UNL     1      -7.970  13.245  68.238  1.00  0.00    -0.144 A  
HETATM   16  I   UNL     1     -10.152  10.993  68.462  1.00  0.00    -0.232 I  
HETATM   17  I   UNL     1     -11.248  16.840  67.528  1.00  0.00     0.581 I  
HETATM   18  C   UNL     1      -7.538  14.589  68.331  1.00  0.00    -0.122 A  
HETATM   19  I   UNL     1      -5.571  15.001  69.121  1.00  0.00    -0.104 I  
HETATM   20  C   UNL     1      -8.461  15.668  68.236  1.00  0.00    -0.156 A  
BRANCH  15  21
HETATM   21  C   UNL     1      -7.008  12.079  68.066  1.00  0.00    -0.084 C  
HETATM   22  O   UNL     1      -6.771  11.694  66.917  1.00  0.00    -0.134 OA 
HETATM   23  N   UNL     1      -6.318  11.495  69.150  1.00  0.00    -0.069 N  
HETATM   24  C   UNL     1      -6.762  11.484  70.539  1.00  0.00     0.866 C  
BRANCH  23  25
HETATM   25  C   UNL     1      -5.171  10.603  68.845  1.00  0.00    -0.041 C  
BRANCH  25  26
HETATM   26  C   UNL     1      -5.462   9.088  68.905  1.00  0.00    -0.037 C  
HETATM   27  H   UNL     1      -5.323   7.581  70.218  1.00  0.00     0.000 HD 
HETATM   28  O   UNL     1      -5.144   8.513  70.180  1.00  0.00    -0.022 OA 
BRANCH  26  29
HETATM   29  C   UNL     1      -6.951   8.786  68.662  1.00  0.00    -0.064 C  
HETATM   30  H   UNL     1      -8.047   8.031  67.211  1.00  0.00     0.000 HD 
HETATM   31  O   UNL     1      -7.127   8.217  67.361  1.00  0.00    -0.079 OA 
ENDBRANCH  26  29
ENDBRANCH  25  26
ENDBRANCH  23  25
ENDBRANCH  15  21
BRANCH  20  32
HETATM   32  N   UNL     1      -8.072  17.039  68.220  1.00  0.00    -0.219 N  
HETATM   33  C   UNL     1      -7.780  17.712  67.041  1.00  0.00    -0.209 C  
HETATM   34  H   UNL     1      -8.007  17.543  69.105  1.00  0.00     0.000 HD 
HETATM   35  H   UNL     1     -10.197  19.973  68.928  1.00  0.00     0.000 HD 
HETATM   36  H   UNL     1      -7.224  20.155  64.116  1.00  0.00     0.000 HD 
HETATM   37  C   UNL     1      -7.550  19.214  67.241  1.00  0.00    -0.252 C  
HETATM   38  O   UNL     1      -7.772  17.184  65.930  1.00  0.00    -0.446 OA 
HETATM   39  O   UNL     1      -7.665  19.780  64.870  1.00  0.00     0.012 OA 
HETATM   40  O   UNL     1      -9.373  19.526  68.770  1.00  0.00    -0.375 OA 
HETATM   41  C   UNL     1      -8.874  19.930  67.495  1.00  0.00    -0.338 C  
HETATM   42  C   UNL     1      -6.843  19.815  66.031  1.00  0.00    -0.253 C  
ENDBRANCH  20  32
ENDBRANCH   4  12
TORSDOF 9
ENDMDL
MODEL      103
REMARK 921   NORMALIZED FREE ENERGY PREDICTED BY IDOCK:   -1.28 KCAL/MOL
REMARK 922        TOTAL FREE ENERGY PREDICTED BY IDOCK:   -3.25 KCAL/MOL
REMARK 923 INTER-LIGAND FREE ENERGY PREDICTED BY IDOCK:   -3.09 KCAL/MOL
REMARK 924 INTRA-LIGAND FREE ENERGY PREDICTED BY IDOCK:   -0.16 KCAL/MOL
REMARK 927      BINDING AFFINITY PREDICTED BY RF-SCORE:    0.00 PKD
ROOT
HETATM    1  C   UNL     1      -8.345   3.770  63.713  1.00  0.00    -0.091 C  
HETATM    2  N   UNL     1      -8.394   4.847  64.701  1.00  0.00    -0.128 N  
HETATM    3  O   UNL     1      -7.014   6.121  63.349  1.00  0.00    -0.042 OA 
HETATM    4  C   UNL     1      -7.614   5.994  64.410  1.00  0.00    -0.093 C  
ENDROOT
BRANCH   2   5
HETATM    5  C   UNL     1      -9.445   4.730  65.729  1.00  0.00    -0.167 C  
BRANCH   5   6
HETATM    6  C   UNL     1     -10.760   5.485  65.537  1.00  0.00     0.718 C  
HETATM    7  H   UNL     1     -12.547   5.121  64.777  1.00  0.00     0.000 HD 
HETATM    8  O   UNL     1     -11.730   4.652  64.896  1.00  0.00     0.125 OA 
BRANCH   6   9
HETATM    9  C   UNL     1     -11.280   5.892  66.936  1.00  0.00     0.107 C  
HETATM   10  H   UNL     1     -11.030   7.356  68.263  1.00  0.00     0.000 HD 
HETATM   11  O   UNL     1     -10.711   7.106  67.404  1.00  0.00    -0.265 OA 
ENDBRANCH   6   9
ENDBRANCH   5   6
ENDBRANCH   2   5
BRANCH   4  12
HETATM   12  C   UNL     1      -7.513   7.135  65.381  1.00  0.00    -0.087 A  
HETATM   13  C   UNL     1      -7.759   8.432  64.919  1.00  0.00    -0.106 A  
HETATM   14  C   UNL     1      -7.105   6.980  66.745  1.00  0.00    -0.082 A  
HETATM   15  C   UNL     1      -7.195   8.066  67.672  1.00  0.00    -0.091 A  
HETATM   16  I   UNL     1      -6.302   5.069  67.354  1.00  0.00    -0.043 I  
HETATM   17  I   UNL     1      -7.443   8.875  62.829  1.00  0.00    -0.117 I  
HETATM   18  C   UNL     1      -7.828   9.245  67.210  1.00  0.00    -0.099 A  
HETATM   19  I   UNL     1      -8.956  10.442  68.609  1.00  0.00    -0.169 I  
HETATM   20  C   UNL     1      -8.019   9.481  65.820  1.00  0.00    -0.111 A  
BRANCH  15  21
HETATM   21  C   UNL     1      -6.731   7.888  69.111  1.00  0.00    -0.048 C  
HETATM   22  O   UNL     1      -5.605   8.298  69.405  1.00  0.00    -0.030 OA 
HETATM   23  N   UNL     1      -7.567   7.367  70.121  1.00  0.00    -0.087 N  
HETATM   24  C   UNL     1      -8.690   6.459  69.917  1.00  0.00    -0.142 C  
BRANCH  23  25
HETATM   25  C   UNL     1      -7.143   7.542  71.533  1.00  0.00    -0.062 C  
BRANCH  25  26
HETATM   26  C   UNL     1      -6.748   6.252  72.283  1.00  0.00    -0.068 C  
HETATM   27  H   UNL     1      -5.152   5.487  73.221  1.00  0.00     0.000 HD 
HETATM   28  O   UNL     1      -5.395   6.281  72.759  1.00  0.00    -0.034 OA 
BRANCH  26  29
HETATM   29  C   UNL     1      -7.630   6.025  73.523  1.00  0.00    -0.096 C  
HETATM   30  H   UNL     1      -8.912   4.666  74.146  1.00  0.00     0.000 HD 
HETATM   31  O   UNL     1      -8.367   4.806  73.380  1.00  0.00    -0.103 OA 
ENDBRANCH  26  29
ENDBRANCH  25  26
ENDBRANCH  23  25
ENDBRANCH  15  21
BRANCH  20  32
HETATM   32  N   UNL     1      -8.555  10.691  65.293  1.00  0.00    -0.176 N  
HETATM   33  C   UNL     1      -9.919  10.876  65.102  1.00  0.00    -0.284 C  
HETATM   34  H   UNL     1      -7.916  11.447  65.047  1.00  0.00     0.000 HD 
HETATM   35  H   UNL     1      -8.724  13.977  66.965  1.00  0.00     0.000 HD 
HETATM   36  H   UNL     1     -13.556  12.080  64.713  1.00  0.00     0.000 HD 
HETATM   37  C   UNL     1     -10.284  12.305  64.686  1.00  0.00    -0.311 C  
HETATM   38  O   UNL     1     -10.768  10.011  65.312  1.00  0.00     0.141 OA 
HETATM   39  O   UNL     1     -12.679  12.051  65.079  1.00  0.00    -0.381 OA 
HETATM   40  O   UNL     1      -8.794  13.385  66.225  1.00  0.00     0.026 OA 
HETATM   41  C   UNL     1     -10.171  13.256  65.874  1.00  0.00    -0.293 C  
HETATM   42  C   UNL     1     -11.691  12.350  64.099  1.00  0.00    -0.400 C  
ENDBRANCH  20  32
ENDBRANCH   4  12
TORSDOF 9
ENDMDL
MODEL      104
REMARK 921   NORMALIZED FREE ENERGY PREDICTED BY IDOCK:   -1.26 KCAL/MOL
REMARK 922        TOTAL FREE ENERGY PREDICTED BY IDOCK:   -3.23 KCAL/MOL
REMARK 923 INTER-LIGAND FREE ENERGY PREDICTED BY IDOCK:   -5.64 KCAL/MOL
REMARK 924 INTRA-LIGAND FREE ENERGY PREDICTED BY IDOCK:    2.41 KCAL/MOL
REMARK 927      BINDING AFFINITY PREDICTED BY RF-SCORE:    0.00 PKD
ROOT
HETATM    1  C   UNL     1     -12.904  12.666  65.669  1.00  0.00     0.502 C  
HETATM    2  N   UNL     1     -11.583  12.263  66.148  1.00  0.00    -0.386 N  
HETATM    3  O   UNL     1     -12.220  12.810  68.304  1.00  0.00    -0.197 OA 
HETATM    4  C   UNL     1     -11.343  12.438  67.533  1.00  0.00    -0.315 C  
ENDROOT
BRANCH   2   5
HETATM    5  C   UNL     1     -10.767  11.478  65.201  1.00  0.00    -0.289 C  
BRANCH   5   6
HETATM    6  C   UNL     1     -10.235  12.156  63.939  1.00  0.00    -0.400 C  
HETATM    7  H   UNL     1      -8.925  11.754  62.515  1.00  0.00     0.000 HD 
HETATM    8  O   UNL     1      -9.256  11.333  63.299  1.00  0.00    -0.253 OA 
BRANCH   6   9
HETATM    9  C   UNL     1     -11.429  12.372  62.979  1.00  0.00     0.051 C  
HETATM   10  H   UNL     1     -12.899  13.682  62.681  1.00  0.00     0.000 HD 
HETATM   11  O   UNL     1     -12.166  13.550  63.270  1.00  0.00    -0.619 OA 
ENDBRANCH   6   9
ENDBRANCH   5   6
ENDBRANCH   2   5
BRANCH   4  12
HETATM   12  C   UNL     1     -10.000  12.140  68.137  1.00  0.00    -0.201 A  
HETATM   13  C   UNL     1      -9.852  10.978  68.902  1.00  0.00    -0.177 A  
HETATM   14  C   UNL     1      -8.874  13.019  68.035  1.00  0.00    -0.191 A  
HETATM   15  C   UNL     1      -7.575  12.610  68.472  1.00  0.00    -0.121 A  
HETATM   16  I   UNL     1      -9.202  15.003  67.244  1.00  0.00    -0.251 I  
HETATM   17  I   UNL     1     -11.587  10.140  69.876  1.00  0.00    -0.197 I  
HETATM   18  C   UNL     1      -7.437  11.262  68.879  1.00  0.00    -0.123 A  
HETATM   19  I   UNL     1      -5.560  10.253  68.530  1.00  0.00    -0.035 I  
HETATM   20  C   UNL     1      -8.575  10.469  69.197  1.00  0.00    -0.150 A  
BRANCH  15  21
HETATM   21  C   UNL     1      -6.397  13.569  68.381  1.00  0.00    -0.093 C  
HETATM   22  O   UNL     1      -5.753  13.589  67.328  1.00  0.00    -0.346 OA 
HETATM   23  N   UNL     1      -6.080  14.486  69.406  1.00  0.00    -0.100 N  
HETATM   24  C   UNL     1      -6.396  14.328  70.821  1.00  0.00    -0.031 C  
BRANCH  23  25
HETATM   25  C   UNL     1      -5.136  15.586  69.087  1.00  0.00    -0.096 C  
BRANCH  25  26
HETATM   26  C   UNL     1      -5.577  16.546  67.960  1.00  0.00    -0.112 C  
HETATM   27  H   UNL     1      -6.574  16.469  66.225  1.00  0.00     0.000 HD 
HETATM   28  O   UNL     1      -6.303  15.879  66.918  1.00  0.00    -0.301 OA 
BRANCH  26  29
HETATM   29  C   UNL     1      -6.508  17.650  68.489  1.00  0.00    -0.196 C  
HETATM   30  H   UNL     1      -7.793  18.933  67.726  1.00  0.00     0.000 HD 
HETATM   31  O   UNL     1      -7.218  18.251  67.400  1.00  0.00    -0.198 OA 
ENDBRANCH  26  29
ENDBRANCH  25  26
ENDBRANCH  23  25
ENDBRANCH  15  21
BRANCH  20  32
HETATM   32  N   UNL     1      -8.492   9.141  69.709  1.00  0.00    -0.128 N  
HETATM   33  C   UNL     1      -8.616   8.024  68.892  1.00  0.00    -0.131 C  
HETATM   34  H   UNL     1      -8.337   9.007  70.708  1.00  0.00     0.000 HD 
HETATM   35  H   UNL     1      -5.485   7.417  70.976  1.00  0.00     0.000 HD 
HETATM   36  H   UNL     1      -8.511   4.618  67.099  1.00  0.00     0.000 HD 
HETATM   37  C   UNL     1      -8.328   6.707  69.620  1.00  0.00    -0.132 C  
HETATM   38  O   UNL     1      -8.861   8.074  67.688  1.00  0.00    -0.125 OA 
HETATM   39  O   UNL     1      -8.173   5.355  67.595  1.00  0.00    -0.101 OA 
HETATM   40  O   UNL     1      -6.418   7.518  70.824  1.00  0.00    -0.038 OA 
HETATM   41  C   UNL     1      -6.830   6.544  69.866  1.00  0.00    -0.055 C  
HETATM   42  C   UNL     1      -8.869   5.524  68.825  1.00  0.00    -0.107 C  
ENDBRANCH  20  32
ENDBRANCH   4  12
TORSDOF 9
ENDMDL
MODEL      105
REMARK 921   NORMALIZED FREE ENERGY PREDICTED BY IDOCK:   -1.17 KCAL/MOL
REMARK 922        TOTAL FREE ENERGY PREDICTED BY IDOCK:   -3.09 KCAL/MOL
REMARK 923 INTER-LIGAND FREE ENERGY PREDICTED BY IDOCK:   -2.57 KCAL/MOL
REMARK 924 INTRA-LIGAND FREE ENERGY PREDICTED BY IDOCK:   -0.51 KCAL/MOL
REMARK 927      BINDING AFFINITY PREDICTED BY RF-SCORE:    0.00 PKD
ROOT
HETATM    1  C   UNL     1      -6.931   8.644  73.593  1.00  0.00     0.043 C  
HETATM    2  N   UNL     1      -7.272   8.806  72.180  1.00  0.00    -0.021 N  
HETATM    3  O   UNL     1      -5.125   9.568  71.771  1.00  0.00    -0.057 OA 
HETATM    4  C   UNL     1      -6.256   9.344  71.353  1.00  0.00    -0.042 C  
ENDROOT
BRANCH   2   5
HETATM    5  C   UNL     1      -8.514   8.145  71.738  1.00  0.00    -0.144 C  
BRANCH   5   6
HETATM    6  C   UNL     1      -8.807   6.721  72.209  1.00  0.00    -0.131 C  
HETATM    7  H   UNL     1      -8.941   5.757  73.929  1.00  0.00     0.000 HD 
HETATM    8  O   UNL     1      -8.759   6.642  73.636  1.00  0.00    -0.121 OA 
BRANCH   6   9
HETATM    9  C   UNL     1     -10.227   6.345  71.723  1.00  0.00    -0.197 C  
HETATM   10  H   UNL     1     -12.123   6.618  72.270  1.00  0.00     0.000 HD 
HETATM   11  O   UNL     1     -11.251   6.849  72.568  1.00  0.00    -0.253 OA 
ENDBRANCH   6   9
ENDBRANCH   5   6
ENDBRANCH   2   5
BRANCH   4  12
HETATM   12  C   UNL     1      -6.504   9.637  69.901  1.00  0.00    -0.057 A  
HETATM   13  C   UNL     1      -6.530   8.571  68.996  1.00  0.00    -0.048 A  
HETATM   14  C   UNL     1      -6.646  10.961  69.374  1.00  0.00    -0.095 A  
HETATM   15  C   UNL     1      -7.057  11.179  68.021  1.00  0.00    -0.073 A  
HETATM   16  I   UNL     1      -6.173  12.626  70.668  1.00  0.00     1.240 I  
HETATM   17  I   UNL     1      -5.439   6.769  69.473  1.00  0.00    -0.015 I  
HETATM   18  C   UNL     1      -7.443  10.034  67.283  1.00  0.00    -0.091 A  
HETATM   19  I   UNL     1      -8.991  10.228  65.790  1.00  0.00    -0.243 I  
HETATM   20  C   UNL     1      -7.090   8.726  67.715  1.00  0.00    -0.083 A  
BRANCH  15  21
HETATM   21  C   UNL     1      -7.175  12.593  67.471  1.00  0.00    -0.155 C  
HETATM   22  O   UNL     1      -6.205  13.056  66.865  1.00  0.00    -0.090 OA 
HETATM   23  N   UNL     1      -8.368  13.343  67.550  1.00  0.00    -0.178 N  
HETATM   24  C   UNL     1      -9.413  13.184  68.555  1.00  0.00    -0.103 C  
BRANCH  23  25
HETATM   25  C   UNL     1      -8.482  14.558  66.705  1.00  0.00    -0.074 C  
BRANCH  25  26
HETATM   26  C   UNL     1      -9.319  15.713  67.296  1.00  0.00    -0.215 C  
HETATM   27  H   UNL     1      -9.026  17.411  68.319  1.00  0.00     0.000 HD 
HETATM   28  O   UNL     1      -8.511  16.700  67.955  1.00  0.00    -0.184 OA 
BRANCH  26  29
HETATM   29  C   UNL     1     -10.100  16.463  66.204  1.00  0.00    -0.346 C  
HETATM   30  H   UNL     1     -10.628  16.140  64.335  1.00  0.00     0.000 HD 
HETATM   31  O   UNL     1     -10.145  15.676  65.010  1.00  0.00    -0.398 OA 
ENDBRANCH  26  29
ENDBRANCH  25  26
ENDBRANCH  23  25
ENDBRANCH  15  21
BRANCH  20  32
HETATM   32  N   UNL     1      -7.361   7.547  66.962  1.00  0.00    -0.091 N  
HETATM   33  C   UNL     1      -8.565   6.862  67.068  1.00  0.00    -0.121 C  
HETATM   34  H   UNL     1      -6.647   7.194  66.325  1.00  0.00     0.000 HD 
HETATM   35  H   UNL     1      -7.971   7.304  63.331  1.00  0.00     0.000 HD 
HETATM   36  H   UNL     1     -11.790   4.794  66.669  1.00  0.00     0.000 HD 
HETATM   37  C   UNL     1      -8.706   5.725  66.050  1.00  0.00    -0.146 C  
HETATM   38  O   UNL     1      -9.467   7.168  67.846  1.00  0.00    -0.130 OA 
HETATM   39  O   UNL     1     -11.097   5.391  66.411  1.00  0.00    -0.162 OA 
HETATM   40  O   UNL     1      -7.803   6.956  64.199  1.00  0.00    -0.109 OA 
HETATM   41  C   UNL     1      -8.976   6.284  64.655  1.00  0.00     0.540 C  
HETATM   42  C   UNL     1      -9.818   4.768  66.465  1.00  0.00    -0.217 C  
ENDBRANCH  20  32
ENDBRANCH   4  12
TORSDOF 9
ENDMDL
MODEL      106
REMARK 921   NORMALIZED FREE ENERGY PREDICTED BY IDOCK:   -0.99 KCAL/MOL
REMARK 922        TOTAL FREE ENERGY PREDICTED BY IDOCK:   -2.82 KCAL/MOL
REMARK 923 INTER-LIGAND FREE ENERGY PREDICTED BY IDOCK:   -2.20 KCAL/MOL
REMARK 924 INTRA-LIGAND FREE ENERGY PREDICTED BY IDOCK:   -0.62 KCAL/MOL
REMARK 927      BINDING AFFINITY PREDICTED BY RF-SCORE:    0.00 PKD
ROOT
HETATM    1  C   UNL     1     -13.523  11.976  69.802  1.00  0.00     2.710 C  
HETATM    2  N   UNL     1     -12.072  11.969  69.982  1.00  0.00    -0.303 N  
HETATM    3  O   UNL     1     -11.858  10.733  68.038  1.00  0.00    -0.546 OA 
HETATM    4  C   UNL     1     -11.329  11.243  69.020  1.00  0.00    -0.278 C  
ENDROOT
BRANCH   2   5
HETATM    5  C   UNL     1     -11.541  12.931  70.967  1.00  0.00     1.184 C  
BRANCH   5   6
HETATM    6  C   UNL     1     -12.324  14.212  71.252  1.00  0.00    -0.369 C  
HETATM    7  H   UNL     1     -13.841  14.766  72.392  1.00  0.00     0.000 HD 
HETATM    8  O   UNL     1     -13.354  13.970  72.215  1.00  0.00    -0.395 OA 
BRANCH   6   9
HETATM    9  C   UNL     1     -11.332  15.257  71.816  1.00  0.00    -0.371 C  
HETATM   10  H   UNL     1     -11.352  16.869  72.986  1.00  0.00     0.000 HD 
HETATM   11  O   UNL     1     -11.962  16.228  72.639  1.00  0.00    -0.514 OA 
ENDBRANCH   6   9
ENDBRANCH   5   6
ENDBRANCH   2   5
BRANCH   4  12
HETATM   12  C   UNL     1      -9.840  11.088  69.137  1.00  0.00    -0.117 A  
HETATM   13  C   UNL     1      -9.332   9.961  69.791  1.00  0.00    -0.221 A  
HETATM   14  C   UNL     1      -8.904  12.070  68.678  1.00  0.00    -0.021 A  
HETATM   15  C   UNL     1      -7.500  11.798  68.651  1.00  0.00    -0.120 A  
HETATM   16  I   UNL     1      -9.670  13.998  68.072  1.00  0.00    -0.233 I  
HETATM   17  I   UNL     1     -10.552   8.976  71.275  1.00  0.00    -0.424 I  
HETATM   18  C   UNL     1      -7.103  10.477  68.968  1.00  0.00    -0.081 A  
HETATM   19  I   UNL     1      -5.360   9.650  67.998  1.00  0.00    -0.039 I  
HETATM   20  C   UNL     1      -7.985   9.584  69.635  1.00  0.00    -0.120 A  
BRANCH  15  21
HETATM   21  C   UNL     1      -6.519  12.866  68.185  1.00  0.00    -0.096 C  
HETATM   22  O   UNL     1      -6.222  12.889  66.988  1.00  0.00    -0.242 OA 
HETATM   23  N   UNL     1      -6.021  13.868  69.044  1.00  0.00    -0.082 N  
HETATM   24  C   UNL     1      -5.885  13.762  70.493  1.00  0.00    -0.169 C  
BRANCH  23  25
HETATM   25  C   UNL     1      -5.347  15.039  68.430  1.00  0.00    -0.109 C  
BRANCH  25  26
HETATM   26  C   UNL     1      -6.017  16.408  68.675  1.00  0.00    -0.121 C  
HETATM   27  H   UNL     1      -7.831  17.137  69.111  1.00  0.00     0.000 HD 
HETATM   28  O   UNL     1      -7.419  16.295  68.960  1.00  0.00    -0.197 OA 
BRANCH  26  29
HETATM   29  C   UNL     1      -5.396  17.135  69.880  1.00  0.00    -0.200 C  
HETATM   30  H   UNL     1      -5.725  18.798  70.881  1.00  0.00     0.000 HD 
HETATM   31  O   UNL     1      -6.109  18.349  70.137  1.00  0.00    -0.190 OA 
ENDBRANCH  26  29
ENDBRANCH  25  26
ENDBRANCH  23  25
ENDBRANCH  15  21
BRANCH  20  32
HETATM   32  N   UNL     1      -7.607   8.280  70.070  1.00  0.00    -0.071 N  
HETATM   33  C   UNL     1      -7.783   7.155  69.275  1.00  0.00    -0.108 C  
HETATM   34  H   UNL     1      -7.194   8.170  70.996  1.00  0.00     0.000 HD 
HETATM   35  H   UNL     1      -4.183   6.976  70.510  1.00  0.00     0.000 HD 
HETATM   36  H   UNL     1      -7.680   3.789  67.406  1.00  0.00     0.000 HD 
HETATM   37  C   UNL     1      -7.155   5.889  69.870  1.00  0.00    -0.068 C  
HETATM   38  O   UNL     1      -8.321   7.168  68.170  1.00  0.00    -0.122 OA 
HETATM   39  O   UNL     1      -7.330   4.566  67.827  1.00  0.00    -0.068 OA 
HETATM   40  O   UNL     1      -5.129   6.951  70.594  1.00  0.00    -0.018 OA 
HETATM   41  C   UNL     1      -5.635   5.929  69.736  1.00  0.00    -0.012 C  
HETATM   42  C   UNL     1      -7.717   4.643  69.194  1.00  0.00    -0.067 C  
ENDBRANCH  20  32
ENDBRANCH   4  12
TORSDOF 9
ENDMDL
MODEL      107
REMARK 921   NORMALIZED FREE ENERGY PREDICTED BY IDOCK:   -0.80 KCAL/MOL
REMARK 922        TOTAL FREE ENERGY PREDICTED BY IDOCK:   -2.53 KCAL/MOL
REMARK 923 INTER-LIGAND FREE ENERGY PREDICTED BY IDOCK:   -3.56 KCAL/MOL
REMARK 924 INTRA-LIGAND FREE ENERGY PREDICTED BY IDOCK:    1.03 KCAL/MOL
REMARK 927      BINDING AFFINITY PREDICTED BY RF-SCORE:    0.00 PKD
ROOT
HETATM    1  C   UNL     1     -12.306  12.062  63.311  1.00  0.00    -0.438 C  
HETATM    2  N   UNL     1     -11.174  12.139  64.233  1.00  0.00    -0.325 N  
HETATM    3  O   UNL     1     -12.650  12.464  65.986  1.00  0.00    -0.414 OA 
HETATM    4  C   UNL     1     -11.492  12.403  65.588  1.00  0.00    -0.367 C  
ENDROOT
BRANCH   2   5
HETATM    5  C   UNL     1      -9.880  11.667  63.704  1.00  0.00    -0.345 C  
BRANCH   5   6
HETATM    6  C   UNL     1      -9.600  10.165  63.655  1.00  0.00    -0.207 C  
HETATM    7  H   UNL     1      -8.493   8.928  62.583  1.00  0.00     0.000 HD 
HETATM    8  O   UNL     1      -8.667   9.861  62.614  1.00  0.00    -0.168 OA 
BRANCH   6   9
HETATM    9  C   UNL     1      -8.999   9.751  65.018  1.00  0.00    -0.207 C  
HETATM   10  H   UNL     1      -7.412  10.166  66.149  1.00  0.00     0.000 HD 
HETATM   11  O   UNL     1      -7.781  10.420  65.311  1.00  0.00    -0.145 OA 
ENDBRANCH   6   9
ENDBRANCH   5   6
ENDBRANCH   2   5
BRANCH   4  12
HETATM   12  C   UNL     1     -10.417  12.588  66.621  1.00  0.00    -0.252 A  
HETATM   13  C   UNL     1     -10.318  11.657  67.660  1.00  0.00    -0.189 A  
HETATM   14  C   UNL     1      -9.527  13.710  66.644  1.00  0.00    -0.277 A  
HETATM   15  C   UNL     1      -8.411  13.750  67.538  1.00  0.00    -0.197 A  
HETATM   16  I   UNL     1      -9.945  15.366  65.321  1.00  0.00     0.144 I  
HETATM   17  I   UNL     1     -12.080  10.556  68.247  1.00  0.00     2.220 I  
HETATM   18  C   UNL     1      -8.158  12.578  68.291  1.00  0.00    -0.165 A  
HETATM   19  I   UNL     1      -6.118  12.074  68.785  1.00  0.00    -0.076 I  
HETATM   20  C   UNL     1      -9.152  11.572  68.442  1.00  0.00    -0.185 A  
BRANCH  15  21
HETATM   21  C   UNL     1      -7.492  14.963  67.567  1.00  0.00    -0.200 C  
HETATM   22  O   UNL     1      -6.451  14.910  66.906  1.00  0.00    -0.001 OA 
HETATM   23  N   UNL     1      -7.831  16.159  68.235  1.00  0.00    -0.149 N  
HETATM   24  C   UNL     1      -8.730  16.274  69.378  1.00  0.00    -0.044 C  
BRANCH  23  25
HETATM   25  C   UNL     1      -7.037  17.375  67.929  1.00  0.00    -0.173 C  
BRANCH  25  26
HETATM   26  C   UNL     1      -7.797  18.515  67.217  1.00  0.00    -0.235 C  
HETATM   27  H   UNL     1      -9.658  18.923  66.599  1.00  0.00     0.000 HD 
HETATM   28  O   UNL     1      -9.190  18.222  67.037  1.00  0.00    -0.262 OA 
BRANCH  26  29
HETATM   29  C   UNL     1      -7.739  19.824  68.022  1.00  0.00    -0.304 C  
HETATM   30  H   UNL     1      -7.979  21.745  67.661  1.00  0.00     0.000 HD 
HETATM   31  O   UNL     1      -8.015  20.936  67.164  1.00  0.00    -0.280 OA 
ENDBRANCH  26  29
ENDBRANCH  25  26
ENDBRANCH  23  25
ENDBRANCH  15  21
BRANCH  20  32
HETATM   32  N   UNL     1      -8.991  10.423  69.270  1.00  0.00    -0.245 N  
HETATM   33  C   UNL     1      -9.790  10.196  70.384  1.00  0.00     0.137 C  
HETATM   34  H   UNL     1      -8.266   9.745  69.037  1.00  0.00     0.000 HD 
HETATM   35  H   UNL     1      -9.820   6.927  68.428  1.00  0.00     0.000 HD 
HETATM   36  H   UNL     1     -11.904   8.870  73.317  1.00  0.00     0.000 HD 
HETATM   37  C   UNL     1      -9.557   8.824  71.027  1.00  0.00    -0.290 C  
HETATM   38  O   UNL     1     -10.652  10.975  70.785  1.00  0.00     0.913 OA 
HETATM   39  O   UNL     1     -11.548   8.891  72.436  1.00  0.00    -0.324 OA 
HETATM   40  O   UNL     1      -9.435   7.614  68.958  1.00  0.00    -0.150 OA 
HETATM   41  C   UNL     1     -10.175   7.719  70.174  1.00  0.00    -0.205 C  
HETATM   42  C   UNL     1     -10.128   8.790  72.440  1.00  0.00    -0.152 C  
ENDBRANCH  20  32
ENDBRANCH   4  12
TORSDOF 9
ENDMDL
MODEL      108
REMARK 921   NORMALIZED FREE ENERGY PREDICTED BY IDOCK:   -0.72 KCAL/MOL
REMARK 922        TOTAL FREE ENERGY PREDICTED BY IDOCK:   -2.40 KCAL/MOL
REMARK 923 INTER-LIGAND FREE ENERGY PREDICTED BY IDOCK:   -5.49 KCAL/MOL
REMARK 924 INTRA-LIGAND FREE ENERGY PREDICTED BY IDOCK:    3.08 KCAL/MOL
REMARK 927      BINDING AFFINITY PREDICTED BY RF-SCORE:    0.00 PKD
ROOT
HETATM    1  C   UNL     1     -12.971  14.132  65.624  1.00  0.00    -0.251 C  
HETATM    2  N   UNL     1     -11.554  13.985  65.952  1.00  0.00    -0.337 N  
HETATM    3  O   UNL     1     -12.117  13.746  68.184  1.00  0.00    -0.364 OA 
HETATM    4  C   UNL     1     -11.245  13.842  67.327  1.00  0.00    -0.312 C  
ENDROOT
BRANCH   2   5
HETATM    5  C   UNL     1     -10.652  13.731  64.813  1.00  0.00    -0.428 C  
BRANCH   5   6
HETATM    6  C   UNL     1     -11.132  12.837  63.669  1.00  0.00    -0.393 C  
HETATM    7  H   UNL     1     -10.623  11.105  62.866  1.00  0.00     0.000 HD 
HETATM    8  O   UNL     1     -10.324  11.660  63.576  1.00  0.00    -0.360 OA 
BRANCH   6   9
HETATM    9  C   UNL     1     -12.595  12.432  63.968  1.00  0.00    -0.412 C  
HETATM   10  H   UNL     1     -13.962  11.144  63.305  1.00  0.00     0.000 HD 
HETATM   11  O   UNL     1     -13.064  11.393  63.122  1.00  0.00    -0.137 OA 
ENDBRANCH   6   9
ENDBRANCH   5   6
ENDBRANCH   2   5
BRANCH   4  12
HETATM   12  C   UNL     1      -9.823  13.766  67.805  1.00  0.00    -0.234 A  
HETATM   13  C   UNL     1      -9.122  14.958  68.015  1.00  0.00    -0.180 A  
HETATM   14  C   UNL     1      -9.115  12.535  67.990  1.00  0.00    -0.200 A  
HETATM   15  C   UNL     1      -7.828  12.509  68.613  1.00  0.00    -0.048 A  
HETATM   16  I   UNL     1     -10.027  10.719  67.255  1.00  0.00    -0.254 I  
HETATM   17  I   UNL     1      -9.708  16.723  66.918  1.00  0.00    -0.312 I  
HETATM   18  C   UNL     1      -7.359  13.730  69.154  1.00  0.00     0.019 A  
HETATM   19  I   UNL     1      -6.120  13.682  70.921  1.00  0.00     0.549 I  
HETATM   20  C   UNL     1      -7.938  14.973  68.775  1.00  0.00    -0.162 A  
BRANCH  15  21
HETATM   21  C   UNL     1      -7.080  11.193  68.776  1.00  0.00    -0.093 C  
HETATM   22  O   UNL     1      -5.941  11.119  68.308  1.00  0.00    -0.046 OA 
HETATM   23  N   UNL     1      -7.601  10.108  69.513  1.00  0.00    -0.123 N  
HETATM   24  C   UNL     1      -9.015   9.829  69.740  1.00  0.00    -0.221 C  
BRANCH  23  25
HETATM   25  C   UNL     1      -6.672   9.013  69.888  1.00  0.00    -0.046 C  
BRANCH  25  26
HETATM   26  C   UNL     1      -6.406   8.843  71.399  1.00  0.00    -0.073 C  
HETATM   27  H   UNL     1      -7.364   8.181  73.029  1.00  0.00     0.000 HD 
HETATM   28  O   UNL     1      -7.527   8.285  72.099  1.00  0.00    -0.104 OA 
BRANCH  26  29
HETATM   29  C   UNL     1      -5.224   7.894  71.664  1.00  0.00    -0.034 C  
HETATM   30  H   UNL     1      -4.619   6.727  73.130  1.00  0.00     0.000 HD 
HETATM   31  O   UNL     1      -5.349   7.313  72.966  1.00  0.00    -0.037 OA 
ENDBRANCH  26  29
ENDBRANCH  25  26
ENDBRANCH  23  25
ENDBRANCH  15  21
BRANCH  20  32
HETATM   32  N   UNL     1      -7.442  16.237  69.205  1.00  0.00    -0.235 N  
HETATM   33  C   UNL     1      -6.666  17.046  68.385  1.00  0.00    -0.170 C  
HETATM   34  H   UNL     1      -7.664  16.559  70.148  1.00  0.00     0.000 HD 
HETATM   35  H   UNL     1      -9.384  19.323  69.780  1.00  0.00     0.000 HD 
HETATM   36  H   UNL     1      -4.823  19.832  66.468  1.00  0.00     0.000 HD 
HETATM   37  C   UNL     1      -6.385  18.427  68.987  1.00  0.00    -0.248 C  
HETATM   38  O   UNL     1      -6.294  16.729  67.257  1.00  0.00    -0.145 OA 
HETATM   39  O   UNL     1      -5.548  19.413  66.917  1.00  0.00    -0.168 OA 
HETATM   40  O   UNL     1      -8.608  18.776  69.820  1.00  0.00     0.605 OA 
HETATM   41  C   UNL     1      -7.632  19.306  68.923  1.00  0.00    -0.349 C  
HETATM   42  C   UNL     1      -5.221  19.101  68.267  1.00  0.00    -0.180 C  
ENDBRANCH  20  32
ENDBRANCH   4  12
TORSDOF 9
ENDMDL
MODEL      109
REMARK 921   NORMALIZED FREE ENERGY PREDICTED BY IDOCK:   -0.61 KCAL/MOL
REMARK 922        TOTAL FREE ENERGY PREDICTED BY IDOCK:   -2.24 KCAL/MOL
REMARK 923 INTER-LIGAND FREE ENERGY PREDICTED BY IDOCK:   -1.74 KCAL/MOL
REMARK 924 INTRA-LIGAND FREE ENERGY PREDICTED BY IDOCK:   -0.50 KCAL/MOL
REMARK 927      BINDING AFFINITY PREDICTED BY RF-SCORE:    0.00 PKD
ROOT
HETATM    1  C   UNL     1     -11.230   5.024  65.347  1.00  0.00     0.518 C  
HETATM    2  N   UNL     1     -10.124   5.647  66.072  1.00  0.00    -0.037 N  
HETATM    3  O   UNL     1     -11.569   6.142  67.810  1.00  0.00     0.214 OA 
HETATM    4  C   UNL     1     -10.450   6.235  67.318  1.00  0.00    -0.254 C  
ENDROOT
BRANCH   2   5
HETATM    5  C   UNL     1      -8.772   5.353  65.559  1.00  0.00    -0.154 C  
BRANCH   5   6
HETATM    6  C   UNL     1      -7.809   6.511  65.297  1.00  0.00    -0.109 C  
HETATM    7  H   UNL     1      -5.924   6.951  65.694  1.00  0.00     0.000 HD 
HETATM    8  O   UNL     1      -6.522   6.232  65.857  1.00  0.00    -0.043 OA 
BRANCH   6   9
HETATM    9  C   UNL     1      -7.676   6.678  63.765  1.00  0.00    -0.111 C  
HETATM   10  H   UNL     1      -8.005   8.061  62.370  1.00  0.00     0.000 HD 
HETATM   11  O   UNL     1      -8.087   7.959  63.311  1.00  0.00    -0.149 OA 
ENDBRANCH   6   9
ENDBRANCH   5   6
ENDBRANCH   2   5
BRANCH   4  12
HETATM   12  C   UNL     1      -9.423   6.979  68.123  1.00  0.00    -0.123 A  
HETATM   13  C   UNL     1      -8.594   6.254  68.986  1.00  0.00    -0.123 A  
HETATM   14  C   UNL     1      -9.290   8.405  68.113  1.00  0.00    -0.133 A  
HETATM   15  C   UNL     1      -8.186   9.049  68.756  1.00  0.00    -0.117 A  
HETATM   16  I   UNL     1     -10.832   9.562  67.138  1.00  0.00     0.369 I  
HETATM   17  I   UNL     1      -9.295   4.368  69.770  1.00  0.00    -0.269 I  
HETATM   18  C   UNL     1      -7.175   8.207  69.277  1.00  0.00    -0.072 A  
HETATM   19  I   UNL     1      -5.131   8.902  69.269  1.00  0.00    -0.036 I  
HETATM   20  C   UNL     1      -7.410   6.821  69.493  1.00  0.00    -0.091 A  
BRANCH  15  21
HETATM   21  C   UNL     1      -8.078  10.568  68.757  1.00  0.00    -0.131 C  
HETATM   22  O   UNL     1      -8.727  11.189  69.603  1.00  0.00     0.328 OA 
HETATM   23  N   UNL     1      -7.202  11.269  67.900  1.00  0.00    -0.084 N  
HETATM   24  C   UNL     1      -6.723  10.804  66.603  1.00  0.00    -0.120 C  
BRANCH  23  25
HETATM   25  C   UNL     1      -6.928  12.695  68.203  1.00  0.00    -0.096 C  
BRANCH  25  26
HETATM   26  C   UNL     1      -7.945  13.711  67.640  1.00  0.00    -0.177 C  
HETATM   27  H   UNL     1      -9.813  13.724  66.916  1.00  0.00     0.000 HD 
HETATM   28  O   UNL     1      -9.187  13.099  67.262  1.00  0.00    -0.204 OA 
BRANCH  26  29
HETATM   29  C   UNL     1      -8.302  14.790  68.677  1.00  0.00    -0.165 C  
HETATM   30  H   UNL     1      -7.450  16.400  69.426  1.00  0.00     0.000 HD 
HETATM   31  O   UNL     1      -7.231  15.734  68.786  1.00  0.00    -0.123 OA 
ENDBRANCH  26  29
ENDBRANCH  25  26
ENDBRANCH  23  25
ENDBRANCH  15  21
BRANCH  20  32
HETATM   32  N   UNL     1      -6.467   5.948  70.109  1.00  0.00    -0.037 N  
HETATM   33  C   UNL     1      -6.425   5.755  71.484  1.00  0.00    -0.049 C  
HETATM   34  H   UNL     1      -5.801   5.448  69.520  1.00  0.00     0.000 HD 
HETATM   35  H   UNL     1      -6.411   2.260  69.967  1.00  0.00     0.000 HD 
HETATM   36  H   UNL     1      -6.084   4.558  75.128  1.00  0.00     0.000 HD 
HETATM   37  C   UNL     1      -5.451   4.652  71.912  1.00  0.00    -0.004 C  
HETATM   38  O   UNL     1      -7.143   6.351  72.286  1.00  0.00    -0.079 OA 
HETATM   39  O   UNL     1      -6.280   4.490  74.201  1.00  0.00    -0.039 OA 
HETATM   40  O   UNL     1      -6.056   3.118  70.169  1.00  0.00    -0.022 OA 
HETATM   41  C   UNL     1      -6.023   3.275  71.587  1.00  0.00    -0.013 C  
HETATM   42  C   UNL     1      -5.136   4.762  73.400  1.00  0.00    -0.008 C  
ENDBRANCH  20  32
ENDBRANCH   4  12
TORSDOF 9
ENDMDL
MODEL      110
REMARK 921   NORMALIZED FREE ENERGY PREDICTED BY IDOCK:   -0.49 KCAL/MOL
REMARK 922        TOTAL FREE ENERGY PREDICTED BY IDOCK:   -2.06 KCAL/MOL
REMARK 923 INTER-LIGAND FREE ENERGY PREDICTED BY IDOCK:   -2.83 KCAL/MOL
REMARK 924 INTRA-LIGAND FREE ENERGY PREDICTED BY IDOCK:    0.77 KCAL/MOL
REMARK 927      BINDING AFFINITY PREDICTED BY RF-SCORE:    0.00 PKD
ROOT
HETATM    1  C   UNL     1     -13.175  14.267  65.817  1.00  0.00     0.332 C  
HETATM    2  N   UNL     1     -11.946  14.050  66.577  1.00  0.00    -0.424 N  
HETATM    3  O   UNL     1     -10.712  14.550  64.685  1.00  0.00    -0.399 OA 
HETATM    4  C   UNL     1     -10.735  14.180  65.853  1.00  0.00    -0.298 C  
ENDROOT
BRANCH   2   5
HETATM    5  C   UNL     1     -12.097  13.994  68.044  1.00  0.00    -0.277 C  
BRANCH   5   6
HETATM    6  C   UNL     1     -11.427  15.067  68.902  1.00  0.00    -0.314 C  
HETATM    7  H   UNL     1     -11.343  17.041  68.957  1.00  0.00     0.000 HD 
HETATM    8  O   UNL     1     -11.759  16.374  68.424  1.00  0.00    -0.205 OA 
BRANCH   6   9
HETATM    9  C   UNL     1     -11.944  14.905  70.351  1.00  0.00    -0.314 C  
HETATM   10  H   UNL     1     -11.825  15.846  72.102  1.00  0.00     0.000 HD 
HETATM   11  O   UNL     1     -11.508  15.946  71.213  1.00  0.00    -0.387 OA 
ENDBRANCH   6   9
ENDBRANCH   5   6
ENDBRANCH   2   5
BRANCH   4  12
HETATM   12  C   UNL     1      -9.407  13.902  66.497  1.00  0.00    -0.264 A  
HETATM   13  C   UNL     1      -8.531  14.971  66.716  1.00  0.00    -0.204 A  
HETATM   14  C   UNL     1      -8.951  12.587  66.835  1.00  0.00    -0.212 A  
HETATM   15  C   UNL     1      -7.760  12.392  67.604  1.00  0.00    -0.151 A  
HETATM   16  I   UNL     1     -10.088  10.899  66.108  1.00  0.00    -0.303 I  
HETATM   17  I   UNL     1      -8.678  16.718  65.455  1.00  0.00     2.297 I  
HETATM   18  C   UNL     1      -7.141  13.555  68.122  1.00  0.00    -0.117 A  
HETATM   19  I   UNL     1      -6.121  13.437  70.021  1.00  0.00     0.025 I  
HETATM   20  C   UNL     1      -7.449  14.844  67.606  1.00  0.00    -0.185 A  
BRANCH  15  21
HETATM   21  C   UNL     1      -7.278  10.986  67.930  1.00  0.00    -0.086 C  
HETATM   22  O   UNL     1      -7.799  10.408  68.888  1.00  0.00    -0.098 OA 
HETATM   23  N   UNL     1      -6.340  10.299  67.131  1.00  0.00    -0.066 N  
HETATM   24  C   UNL     1      -5.325  10.915  66.283  1.00  0.00    -0.109 C  
BRANCH  23  25
HETATM   25  C   UNL     1      -6.189   8.837  67.337  1.00  0.00    -0.056 C  
BRANCH  25  26
HETATM   26  C   UNL     1      -7.166   7.940  66.547  1.00  0.00    -0.083 C  
HETATM   27  H   UNL     1      -7.162   6.162  65.624  1.00  0.00     0.000 HD 
HETATM   28  O   UNL     1      -6.561   6.714  66.110  1.00  0.00    -0.042 OA 
BRANCH  26  29
HETATM   29  C   UNL     1      -8.380   7.535  67.401  1.00  0.00    -0.112 C  
HETATM   30  H   UNL     1      -9.874   6.260  67.260  1.00  0.00     0.000 HD 
HETATM   31  O   UNL     1      -9.124   6.510  66.733  1.00  0.00    -0.134 OA 
ENDBRANCH  26  29
ENDBRANCH  25  26
ENDBRANCH  23  25
ENDBRANCH  15  21
BRANCH  20  32
HETATM   32  N   UNL     1      -6.784  16.037  68.016  1.00  0.00    -0.119 N  
HETATM   33  C   UNL     1      -7.478  17.162  68.440  1.00  0.00    -0.227 C  
HETATM   34  H   UNL     1      -5.765  16.064  67.997  1.00  0.00     0.000 HD 
HETATM   35  H   UNL     1      -4.813  16.552  71.093  1.00  0.00     0.000 HD 
HETATM   36  H   UNL     1      -8.829  20.397  70.035  1.00  0.00     0.000 HD 
HETATM   37  C   UNL     1      -6.567  18.264  68.991  1.00  0.00    -0.263 C  
HETATM   38  O   UNL     1      -8.704  17.255  68.446  1.00  0.00    -0.246 OA 
HETATM   39  O   UNL     1      -8.367  19.567  69.999  1.00  0.00     0.516 OA 
HETATM   40  O   UNL     1      -5.140  16.788  70.232  1.00  0.00    -0.168 OA 
HETATM   41  C   UNL     1      -6.041  17.886  70.373  1.00  0.00     0.195 C  
HETATM   42  C   UNL     1      -7.308  19.596  69.048  1.00  0.00    -0.328 C  
ENDBRANCH  20  32
ENDBRANCH   4  12
TORSDOF 9
ENDMDL
MODEL      111
REMARK 921   NORMALIZED FREE ENERGY PREDICTED BY IDOCK:   -0.48 KCAL/MOL
REMARK 922        TOTAL FREE ENERGY PREDICTED BY IDOCK:   -2.04 KCAL/MOL
REMARK 923 INTER-LIGAND FREE ENERGY PREDICTED BY IDOCK:   -3.37 KCAL/MOL
REMARK 924 INTRA-LIGAND FREE ENERGY PREDICTED BY IDOCK:    1.33 KCAL/MOL
REMARK 927      BINDING AFFINITY PREDICTED BY RF-SCORE:    0.00 PKD
ROOT
HETATM    1  C   UNL     1      -9.930   8.784  72.737  1.00  0.00     0.221 C  
HETATM    2  N   UNL     1      -9.791   8.747  71.282  1.00  0.00    -0.239 N  
HETATM    3  O   UNL     1      -7.637   9.568  71.488  1.00  0.00    -0.285 OA 
HETATM    4  C   UNL     1      -8.566   9.232  70.762  1.00  0.00    -0.203 C  
ENDROOT
BRANCH   2   5
HETATM    5  C   UNL     1     -10.814   7.969  70.557  1.00  0.00    -0.241 C  
BRANCH   5   6
HETATM    6  C   UNL     1     -11.108   6.536  70.998  1.00  0.00    -0.288 C  
HETATM    7  H   UNL     1     -12.552   5.574  71.945  1.00  0.00     0.000 HD 
HETATM    8  O   UNL     1     -12.369   6.465  71.671  1.00  0.00    -0.312 OA 
BRANCH   6   9
HETATM    9  C   UNL     1     -11.154   5.651  69.730  1.00  0.00    -0.100 C  
HETATM   10  H   UNL     1     -10.260   4.029  68.998  1.00  0.00     0.000 HD 
HETATM   11  O   UNL     1     -10.232   4.572  69.776  1.00  0.00    -0.201 OA 
ENDBRANCH   6   9
ENDBRANCH   5   6
ENDBRANCH   2   5
BRANCH   4  12
HETATM   12  C   UNL     1      -8.328   9.325  69.282  1.00  0.00    -0.124 A  
HETATM   13  C   UNL     1      -7.289   8.576  68.721  1.00  0.00    -0.090 A  
HETATM   14  C   UNL     1      -9.063  10.198  68.416  1.00  0.00    -0.133 A  
HETATM   15  C   UNL     1      -8.921  10.120  66.994  1.00  0.00    -0.148 A  
HETATM   16  I   UNL     1     -10.358  11.673  69.320  1.00  0.00     0.433 I  
HETATM   17  I   UNL     1      -5.611   8.022  69.962  1.00  0.00    -0.022 I  
HETATM   18  C   UNL     1      -8.132   9.059  66.492  1.00  0.00    -0.111 A  
HETATM   19  I   UNL     1      -8.653   8.180  64.589  1.00  0.00     0.389 I  
HETATM   20  C   UNL     1      -7.232   8.348  67.334  1.00  0.00    -0.088 A  
BRANCH  15  21
HETATM   21  C   UNL     1      -9.691  11.076  66.093  1.00  0.00    -0.217 C  
HETATM   22  O   UNL     1     -10.525  10.592  65.323  1.00  0.00    -0.262 OA 
HETATM   23  N   UNL     1      -9.551  12.477  66.174  1.00  0.00    -0.247 N  
HETATM   24  C   UNL     1      -8.372  13.192  66.651  1.00  0.00     0.209 C  
BRANCH  23  25
HETATM   25  C   UNL     1     -10.570  13.318  65.498  1.00  0.00    -0.287 C  
BRANCH  25  26
HETATM   26  C   UNL     1     -11.803  13.695  66.347  1.00  0.00    -0.398 C  
HETATM   27  H   UNL     1     -13.484  12.838  67.020  1.00  0.00     0.000 HD 
HETATM   28  O   UNL     1     -12.726  12.607  66.497  1.00  0.00    -0.048 OA 
BRANCH  26  29
HETATM   29  C   UNL     1     -11.403  14.113  67.773  1.00  0.00    -0.306 C  
HETATM   30  H   UNL     1     -12.313  14.804  69.377  1.00  0.00     0.000 HD 
HETATM   31  O   UNL     1     -12.560  14.546  68.496  1.00  0.00     0.071 OA 
ENDBRANCH  26  29
ENDBRANCH  25  26
ENDBRANCH  23  25
ENDBRANCH  15  21
BRANCH  20  32
HETATM   32  N   UNL     1      -6.340   7.341  66.863  1.00  0.00    -0.049 N  
HETATM   33  C   UNL     1      -6.701   6.002  66.802  1.00  0.00    -0.057 C  
HETATM   34  H   UNL     1      -5.405   7.614  66.560  1.00  0.00     0.000 HD 
HETATM   35  H   UNL     1      -5.206   6.806  63.392  1.00  0.00     0.000 HD 
HETATM   36  H   UNL     1      -7.258   2.262  66.068  1.00  0.00     0.000 HD 
HETATM   37  C   UNL     1      -5.654   5.123  66.110  1.00  0.00    -0.017 C  
HETATM   38  O   UNL     1      -7.780   5.560  67.194  1.00  0.00    -0.098 OA 
HETATM   39  O   UNL     1      -7.111   3.180  65.868  1.00  0.00    -0.062 OA 
HETATM   40  O   UNL     1      -5.193   6.666  64.331  1.00  0.00    -0.025 OA 
HETATM   41  C   UNL     1      -5.675   5.349  64.600  1.00  0.00    -0.017 C  
HETATM   42  C   UNL     1      -5.891   3.651  66.431  1.00  0.00    -0.023 C  
ENDBRANCH  20  32
ENDBRANCH   4  12
TORSDOF 9
ENDMDL
MODEL      112
REMARK 921   NORMALIZED FREE ENERGY PREDICTED BY IDOCK:   -0.27 KCAL/MOL
REMARK 922        TOTAL FREE ENERGY PREDICTED BY IDOCK:   -1.71 KCAL/MOL
REMARK 923 INTER-LIGAND FREE ENERGY PREDICTED BY IDOCK:   -5.18 KCAL/MOL
REMARK 924 INTRA-LIGAND FREE ENERGY PREDICTED BY IDOCK:    3.47 KCAL/MOL
REMARK 927      BINDING AFFINITY PREDICTED BY RF-SCORE:    0.00 PKD
ROOT
HETATM    1  C   UNL     1     -10.623  17.716  69.485  1.00  0.00     0.317 C  
HETATM    2  N   UNL     1     -10.289  16.292  69.467  1.00  0.00    -0.282 N  
HETATM    3  O   UNL     1      -8.802  16.684  67.738  1.00  0.00    -0.202 OA 
HETATM    4  C   UNL     1      -9.366  15.882  68.474  1.00  0.00    -0.206 C  
ENDROOT
BRANCH   2   5
HETATM    5  C   UNL     1     -10.733  15.512  70.638  1.00  0.00    -0.233 C  
BRANCH   5   6
HETATM    6  C   UNL     1     -12.209  15.539  71.034  1.00  0.00    -0.396 C  
HETATM    7  H   UNL     1     -13.676  14.234  71.263  1.00  0.00     0.000 HD 
HETATM    8  O   UNL     1     -12.759  14.218  71.018  1.00  0.00    -0.321 OA 
BRANCH   6   9
HETATM    9  C   UNL     1     -12.306  16.116  72.465  1.00  0.00    -0.480 C  
HETATM   10  H   UNL     1     -11.849  15.590  74.331  1.00  0.00     0.000 HD 
HETATM   11  O   UNL     1     -11.790  15.235  73.452  1.00  0.00    -0.434 OA 
ENDBRANCH   6   9
ENDBRANCH   5   6
ENDBRANCH   2   5
BRANCH   4  12
HETATM   12  C   UNL     1      -9.003  14.436  68.296  1.00  0.00    -0.187 A  
HETATM   13  C   UNL     1      -9.862  13.615  67.558  1.00  0.00    -0.227 A  
HETATM   14  C   UNL     1      -7.857  13.827  68.901  1.00  0.00     0.005 A  
HETATM   15  C   UNL     1      -7.457  12.497  68.558  1.00  0.00    -0.122 A  
HETATM   16  I   UNL     1      -6.772  14.959  70.389  1.00  0.00     0.527 I  
HETATM   17  I   UNL     1     -11.954  14.136  67.432  1.00  0.00    -0.179 I  
HETATM   18  C   UNL     1      -8.165  11.874  67.502  1.00  0.00    -0.155 A  
HETATM   19  I   UNL     1      -7.117  10.492  66.216  1.00  0.00    -0.123 I  
HETATM   20  C   UNL     1      -9.424  12.371  67.066  1.00  0.00    -0.211 A  
BRANCH  15  21
HETATM   21  C   UNL     1      -6.252  11.858  69.233  1.00  0.00    -0.094 C  
HETATM   22  O   UNL     1      -5.132  12.269  68.917  1.00  0.00    -0.055 OA 
HETATM   23  N   UNL     1      -6.375  10.896  70.258  1.00  0.00    -0.150 N  
HETATM   24  C   UNL     1      -7.505   9.993  70.451  1.00  0.00    -0.050 C  
BRANCH  23  25
HETATM   25  C   UNL     1      -5.172  10.586  71.069  1.00  0.00    -0.090 C  
BRANCH  25  26
HETATM   26  C   UNL     1      -5.197   9.241  71.826  1.00  0.00    -0.060 C  
HETATM   27  H   UNL     1      -6.279   8.337  73.249  1.00  0.00     0.000 HD 
HETATM   28  O   UNL     1      -6.263   9.165  72.784  1.00  0.00    -0.290 OA 
BRANCH  26  29
HETATM   29  C   UNL     1      -5.401   8.055  70.867  1.00  0.00    -0.026 C  
HETATM   30  H   UNL     1      -6.149   6.236  70.970  1.00  0.00     0.000 HD 
HETATM   31  O   UNL     1      -6.023   6.969  71.562  1.00  0.00    -0.036 OA 
ENDBRANCH  26  29
ENDBRANCH  25  26
ENDBRANCH  23  25
ENDBRANCH  15  21
BRANCH  20  32
HETATM   32  N   UNL     1     -10.228  11.728  66.081  1.00  0.00    -0.214 N  
HETATM   33  C   UNL     1     -10.961  12.442  65.141  1.00  0.00    -0.302 C  
HETATM   34  H   UNL     1     -10.266  10.708  66.065  1.00  0.00     0.000 HD 
HETATM   35  H   UNL     1      -9.063   9.801  63.156  1.00  0.00     0.000 HD 
HETATM   36  H   UNL     1     -12.871  13.854  62.110  1.00  0.00     0.000 HD 
HETATM   37  C   UNL     1     -11.614  11.552  64.079  1.00  0.00    -0.280 C  
HETATM   38  O   UNL     1     -11.030  13.669  65.109  1.00  0.00    -0.305 OA 
HETATM   39  O   UNL     1     -12.186  13.381  62.568  1.00  0.00     0.307 OA 
HETATM   40  O   UNL     1      -9.713  10.121  63.771  1.00  0.00    -0.291 OA 
HETATM   41  C   UNL     1     -10.570  11.038  63.091  1.00  0.00    -0.002 C  
HETATM   42  C   UNL     1     -12.714  12.311  63.344  1.00  0.00    -0.336 C  
ENDBRANCH  20  32
ENDBRANCH   4  12
TORSDOF 9
ENDMDL
MODEL      113
REMARK 921   NORMALIZED FREE ENERGY PREDICTED BY IDOCK:   -0.26 KCAL/MOL
REMARK 922        TOTAL FREE ENERGY PREDICTED BY IDOCK:   -1.70 KCAL/MOL
REMARK 923 INTER-LIGAND FREE ENERGY PREDICTED BY IDOCK:   -2.23 KCAL/MOL
REMARK 924 INTRA-LIGAND FREE ENERGY PREDICTED BY IDOCK:    0.53 KCAL/MOL
REMARK 927      BINDING AFFINITY PREDICTED BY RF-SCORE:    0.00 PKD
ROOT
HETATM    1  C   UNL     1      -5.670  11.656  70.821  1.00  0.00    -0.077 C  
HETATM    2  N   UNL     1      -6.069  12.435  69.650  1.00  0.00    -0.124 N  
HETATM    3  O   UNL     1      -7.407  13.750  71.005  1.00  0.00     1.653 OA 
HETATM    4  C   UNL     1      -7.017  13.463  69.879  1.00  0.00     0.408 C  
ENDROOT
BRANCH   2   5
HETATM    5  C   UNL     1      -5.247  12.245  68.440  1.00  0.00    -0.053 C  
BRANCH   5   6
HETATM    6  C   UNL     1      -5.234  10.878  67.757  1.00  0.00    -0.039 C  
HETATM    7  H   UNL     1      -5.861   9.047  68.157  1.00  0.00     0.000 HD 
HETATM    8  O   UNL     1      -5.869   9.897  68.582  1.00  0.00    -0.039 OA 
BRANCH   6   9
HETATM    9  C   UNL     1      -6.010  11.007  66.425  1.00  0.00    -0.143 C  
HETATM   10  H   UNL     1      -5.634  11.288  64.489  1.00  0.00     0.000 HD 
HETATM   11  O   UNL     1      -5.158  11.208  65.307  1.00  0.00    -0.260 OA 
ENDBRANCH   6   9
ENDBRANCH   5   6
ENDBRANCH   2   5
BRANCH   4  12
HETATM   12  C   UNL     1      -7.571  14.281  68.748  1.00  0.00    -0.130 A  
HETATM   13  C   UNL     1      -8.635  13.761  68.002  1.00  0.00    -0.177 A  
HETATM   14  C   UNL     1      -7.023  15.539  68.339  1.00  0.00    -0.115 A  
HETATM   15  C   UNL     1      -7.693  16.360  67.377  1.00  0.00    -0.180 A  
HETATM   16  I   UNL     1      -5.128  16.144  69.182  1.00  0.00    -0.113 I  
HETATM   17  I   UNL     1      -8.888  11.619  67.896  1.00  0.00    -0.172 I  
HETATM   18  C   UNL     1      -8.975  15.931  66.959  1.00  0.00    -0.217 A  
HETATM   19  I   UNL     1     -10.459  17.415  66.453  1.00  0.00    -0.032 I  
HETATM   20  C   UNL     1      -9.412  14.595  67.178  1.00  0.00    -0.229 A  
BRANCH  15  21
HETATM   21  C   UNL     1      -7.080  17.681  66.936  1.00  0.00    -0.185 C  
HETATM   22  O   UNL     1      -6.286  17.659  65.991  1.00  0.00    -0.226 OA 
HETATM   23  N   UNL     1      -7.455  18.920  67.499  1.00  0.00    -0.227 N  
HETATM   24  C   UNL     1      -7.990  19.121  68.841  1.00  0.00    -0.305 C  
BRANCH  23  25
HETATM   25  C   UNL     1      -7.055  20.158  66.784  1.00  0.00    -0.244 C  
BRANCH  25  26
HETATM   26  C   UNL     1      -7.533  20.276  65.321  1.00  0.00     0.056 C  
HETATM   27  H   UNL     1      -9.151  20.894  64.313  1.00  0.00     0.000 HD 
HETATM   28  O   UNL     1      -8.856  20.821  65.214  1.00  0.00     0.741 OA 
BRANCH  26  29
HETATM   29  C   UNL     1      -6.622  21.204  64.500  1.00  0.00     0.012 C  
HETATM   30  H   UNL     1      -4.729  21.747  64.522  1.00  0.00     0.000 HD 
HETATM   31  O   UNL     1      -5.292  21.173  65.029  1.00  0.00    -0.211 OA 
ENDBRANCH  26  29
ENDBRANCH  25  26
ENDBRANCH  23  25
ENDBRANCH  15  21
BRANCH  20  32
HETATM   32  N   UNL     1     -10.648  14.080  66.690  1.00  0.00    -0.273 N  
HETATM   33  C   UNL     1     -10.836  13.750  65.354  1.00  0.00    -0.312 C  
HETATM   34  H   UNL     1     -11.420  13.948  67.344  1.00  0.00     0.000 HD 
HETATM   35  H   UNL     1     -12.086  10.741  67.329  1.00  0.00     0.000 HD 
HETATM   36  H   UNL     1     -11.808  12.335  61.907  1.00  0.00     0.000 HD 
HETATM   37  C   UNL     1     -12.177  13.059  65.084  1.00  0.00    -0.507 C  
HETATM   38  O   UNL     1      -9.993  13.922  64.476  1.00  0.00    -0.251 OA 
HETATM   39  O   UNL     1     -11.600  12.312  62.834  1.00  0.00    -0.095 OA 
HETATM   40  O   UNL     1     -12.102  11.638  67.015  1.00  0.00    -0.547 OA 
HETATM   41  C   UNL     1     -12.152  11.619  65.589  1.00  0.00     0.670 C  
HETATM   42  C   UNL     1     -12.510  13.097  63.596  1.00  0.00    -0.292 C  
ENDBRANCH  20  32
ENDBRANCH   4  12
TORSDOF 9
ENDMDL
MODEL      114
REMARK 921   NORMALIZED FREE ENERGY PREDICTED BY IDOCK:   -0.21 KCAL/MOL
REMARK 922        TOTAL FREE ENERGY PREDICTED BY IDOCK:   -1.62 KCAL/MOL
REMARK 923 INTER-LIGAND FREE ENERGY PREDICTED BY IDOCK:   -3.28 KCAL/MOL
REMARK 924 INTRA-LIGAND FREE ENERGY PREDICTED BY IDOCK:    1.66 KCAL/MOL
REMARK 927      BINDING AFFINITY PREDICTED BY RF-SCORE:    0.00 PKD
ROOT
HETATM    1  C   UNL     1      -5.451  10.593  62.792  1.00  0.00    -0.162 C  
HETATM    2  N   UNL     1      -6.220  10.124  63.943  1.00  0.00    -0.133 N  
HETATM    3  O   UNL     1      -8.054   9.815  62.567  1.00  0.00    -0.121 OA 
HETATM    4  C   UNL     1      -7.576   9.800  63.696  1.00  0.00    -0.130 C  
ENDROOT
BRANCH   2   5
HETATM    5  C   UNL     1      -5.436   9.786  65.146  1.00  0.00    -0.052 C  
BRANCH   5   6
HETATM    6  C   UNL     1      -5.631  10.612  66.418  1.00  0.00    -0.080 C  
HETATM    7  H   UNL     1      -7.135  11.438  67.397  1.00  0.00     0.000 HD 
HETATM    8  O   UNL     1      -7.014  10.925  66.607  1.00  0.00    -0.118 OA 
BRANCH   6   9
HETATM    9  C   UNL     1      -5.129   9.767  67.612  1.00  0.00    -0.035 C  
HETATM   10  H   UNL     1      -5.857   8.510  68.975  1.00  0.00     0.000 HD 
HETATM   11  O   UNL     1      -6.166   9.029  68.241  1.00  0.00    -0.053 OA 
ENDBRANCH   6   9
ENDBRANCH   5   6
ENDBRANCH   2   5
BRANCH   4  12
HETATM   12  C   UNL     1      -8.496   9.385  64.808  1.00  0.00    -0.180 A  
HETATM   13  C   UNL     1      -8.571   8.030  65.146  1.00  0.00    -0.051 A  
HETATM   14  C   UNL     1      -9.361  10.293  65.500  1.00  0.00    -0.199 A  
HETATM   15  C   UNL     1     -10.083   9.884  66.666  1.00  0.00    -0.297 A  
HETATM   16  I   UNL     1      -9.584  12.290  64.705  1.00  0.00     0.423 I  
HETATM   17  I   UNL     1      -8.097   6.551  63.646  1.00  0.00     0.230 I  
HETATM   18  C   UNL     1      -9.795   8.594  67.171  1.00  0.00    -0.207 A  
HETATM   19  I   UNL     1      -9.904   8.257  69.300  1.00  0.00    -0.203 I  
HETATM   20  C   UNL     1      -9.128   7.623  66.372  1.00  0.00    -0.174 A  
BRANCH  15  21
HETATM   21  C   UNL     1     -11.018  10.856  67.371  1.00  0.00    -0.293 C  
HETATM   22  O   UNL     1     -12.196  10.888  67.004  1.00  0.00     0.681 OA 
HETATM   23  N   UNL     1     -10.612  11.639  68.473  1.00  0.00    -0.208 N  
HETATM   24  C   UNL     1      -9.248  12.071  68.758  1.00  0.00     0.069 C  
BRANCH  23  25
HETATM   25  C   UNL     1     -11.667  12.293  69.286  1.00  0.00    -0.330 C  
BRANCH  25  26
HETATM   26  C   UNL     1     -12.004  11.610  70.629  1.00  0.00    -0.257 C  
HETATM   27  H   UNL     1     -13.158  11.935  72.234  1.00  0.00     0.000 HD 
HETATM   28  O   UNL     1     -12.951  12.356  71.407  1.00  0.00    -0.361 OA 
BRANCH  26  29
HETATM   29  C   UNL     1     -12.628  10.220  70.417  1.00  0.00    -0.204 C  
HETATM   30  H   UNL     1     -12.714   8.517  71.402  1.00  0.00     0.000 HD 
HETATM   31  O   UNL     1     -12.329   9.376  71.533  1.00  0.00    -0.325 OA 
ENDBRANCH  26  29
ENDBRANCH  25  26
ENDBRANCH  23  25
ENDBRANCH  15  21
BRANCH  20  32
HETATM   32  N   UNL     1      -8.903   6.279  66.789  1.00  0.00    -0.123 N  
HETATM   33  C   UNL     1      -7.940   5.948  67.734  1.00  0.00    -0.098 C  
HETATM   34  H   UNL     1      -9.468   5.535  66.380  1.00  0.00     0.000 HD 
HETATM   35  H   UNL     1     -11.121   4.181  68.863  1.00  0.00     0.000 HD 
HETATM   36  H   UNL     1      -5.722   4.497  70.529  1.00  0.00     0.000 HD 
HETATM   37  C   UNL     1      -7.985   4.475  68.155  1.00  0.00    -0.080 C  
HETATM   38  O   UNL     1      -7.169   6.758  68.246  1.00  0.00    -0.083 OA 
HETATM   39  O   UNL     1      -6.531   4.747  70.095  1.00  0.00    -0.032 OA 
HETATM   40  O   UNL     1     -10.377   4.345  68.296  1.00  0.00     0.104 OA 
HETATM   41  C   UNL     1      -9.182   4.212  69.065  1.00  0.00    -0.150 C  
HETATM   42  C   UNL     1      -6.688   4.075  68.850  1.00  0.00    -0.046 C  
ENDBRANCH  20  32
ENDBRANCH   4  12
TORSDOF 9
ENDMDL
MODEL      115
REMARK 921   NORMALIZED FREE ENERGY PREDICTED BY IDOCK:   -0.13 KCAL/MOL
REMARK 922        TOTAL FREE ENERGY PREDICTED BY IDOCK:   -1.50 KCAL/MOL
REMARK 923 INTER-LIGAND FREE ENERGY PREDICTED BY IDOCK:   -1.53 KCAL/MOL
REMARK 924 INTRA-LIGAND FREE ENERGY PREDICTED BY IDOCK:    0.02 KCAL/MOL
REMARK 927      BINDING AFFINITY PREDICTED BY RF-SCORE:    0.00 PKD
ROOT
HETATM    1  C   UNL     1      -9.372  16.607  65.146  1.00  0.00     1.434 C  
HETATM    2  N   UNL     1      -9.894  15.561  66.024  1.00  0.00    -0.308 N  
HETATM    3  O   UNL     1      -8.193  16.005  67.529  1.00  0.00    -0.143 OA 
HETATM    4  C   UNL     1      -9.155  15.316  67.207  1.00  0.00    -0.198 C  
ENDROOT
BRANCH   2   5
HETATM    5  C   UNL     1     -11.255  15.082  65.716  1.00  0.00    -0.318 C  
BRANCH   5   6
HETATM    6  C   UNL     1     -11.429  13.882  64.785  1.00  0.00    -0.362 C  
HETATM    7  H   UNL     1     -10.305  12.829  63.547  1.00  0.00     0.000 HD 
HETATM    8  O   UNL     1     -10.197  13.575  64.125  1.00  0.00    -0.344 OA 
BRANCH   6   9
HETATM    9  C   UNL     1     -11.863  12.674  65.647  1.00  0.00    -0.437 C  
HETATM   10  H   UNL     1     -12.226  10.727  65.431  1.00  0.00     0.000 HD 
HETATM   11  O   UNL     1     -11.959  11.469  64.901  1.00  0.00    -0.015 OA 
ENDBRANCH   6   9
ENDBRANCH   5   6
ENDBRANCH   2   5
BRANCH   4  12
HETATM   12  C   UNL     1      -9.537  14.213  68.152  1.00  0.00    -0.218 A  
HETATM   13  C   UNL     1     -10.447  14.493  69.177  1.00  0.00    -0.216 A  
HETATM   14  C   UNL     1      -8.966  12.901  68.109  1.00  0.00    -0.202 A  
HETATM   15  C   UNL     1      -9.489  11.839  68.913  1.00  0.00     0.055 A  
HETATM   16  I   UNL     1      -7.254  12.579  66.830  1.00  0.00     0.722 I  
HETATM   17  I   UNL     1     -10.617  16.522  69.898  1.00  0.00     0.193 I  
HETATM   18  C   UNL     1     -10.672  12.116  69.639  1.00  0.00     0.378 A  
HETATM   19  I   UNL     1     -12.093  10.525  69.968  1.00  0.00    -0.236 I  
HETATM   20  C   UNL     1     -11.101  13.454  69.864  1.00  0.00     0.223 A  
BRANCH  15  21
HETATM   21  C   UNL     1      -8.850  10.458  68.873  1.00  0.00    -0.161 C  
HETATM   22  O   UNL     1      -8.044  10.173  69.763  1.00  0.00    -0.168 OA 
HETATM   23  N   UNL     1      -9.213   9.479  67.924  1.00  0.00    -0.126 N  
HETATM   24  C   UNL     1      -9.763   9.736  66.597  1.00  0.00    -0.201 C  
BRANCH  23  25
HETATM   25  C   UNL     1      -8.785   8.079  68.171  1.00  0.00    -0.126 C  
BRANCH  25  26
HETATM   26  C   UNL     1      -9.388   7.400  69.420  1.00  0.00    -0.155 C  
HETATM   27  H   UNL     1     -11.193   6.939  70.156  1.00  0.00     0.000 HD 
HETATM   28  O   UNL     1     -10.822   7.357  69.388  1.00  0.00    -0.232 OA 
BRANCH  26  29
HETATM   29  C   UNL     1      -8.922   5.940  69.552  1.00  0.00    -0.129 C  
HETATM   30  H   UNL     1      -9.768   4.164  69.649  1.00  0.00     0.000 HD 
HETATM   31  O   UNL     1     -10.056   5.066  69.567  1.00  0.00    -0.212 OA 
ENDBRANCH  26  29
ENDBRANCH  25  26
ENDBRANCH  23  25
ENDBRANCH  15  21
BRANCH  20  32
HETATM   32  N   UNL     1     -12.223  13.797  70.672  1.00  0.00    -0.352 N  
HETATM   33  C   UNL     1     -12.086  14.444  71.894  1.00  0.00    -0.161 C  
HETATM   34  H   UNL     1     -13.159  13.559  70.343  1.00  0.00     0.000 HD 
HETATM   35  H   UNL     1     -14.749  16.403  70.001  1.00  0.00     0.000 HD 
HETATM   36  H   UNL     1     -12.343  16.529  75.122  1.00  0.00     0.000 HD 
HETATM   37  C   UNL     1     -13.424  14.864  72.511  1.00  0.00    -0.548 C  
HETATM   38  O   UNL     1     -11.004  14.723  72.409  1.00  0.00     0.399 OA 
HETATM   39  O   UNL     1     -12.447  16.332  74.197  1.00  0.00    -0.585 OA 
HETATM   40  O   UNL     1     -14.389  15.654  70.461  1.00  0.00     0.071 OA 
HETATM   41  C   UNL     1     -14.003  16.067  71.772  1.00  0.00     0.486 C  
HETATM   42  C   UNL     1     -13.257  15.179  73.994  1.00  0.00     0.668 C  
ENDBRANCH  20  32
ENDBRANCH   4  12
TORSDOF 9
ENDMDL
MODEL      116
REMARK 921   NORMALIZED FREE ENERGY PREDICTED BY IDOCK:   -0.11 KCAL/MOL
REMARK 922        TOTAL FREE ENERGY PREDICTED BY IDOCK:   -1.47 KCAL/MOL
REMARK 923 INTER-LIGAND FREE ENERGY PREDICTED BY IDOCK:   -5.72 KCAL/MOL
REMARK 924 INTRA-LIGAND FREE ENERGY PREDICTED BY IDOCK:    4.24 KCAL/MOL
REMARK 927      BINDING AFFINITY PREDICTED BY RF-SCORE:    0.00 PKD
ROOT
HETATM    1  C   UNL     1      -5.777  11.238  66.189  1.00  0.00    -0.085 C  
HETATM    2  N   UNL     1      -6.845  10.868  67.116  1.00  0.00    -0.087 N  
HETATM    3  O   UNL     1      -8.406  11.364  65.481  1.00  0.00     0.040 OA 
HETATM    4  C   UNL     1      -8.169  11.030  66.636  1.00  0.00    -0.154 C  
ENDROOT
BRANCH   2   5
HETATM    5  C   UNL     1      -6.426  10.124  68.318  1.00  0.00    -0.053 C  
BRANCH   5   6
HETATM    6  C   UNL     1      -5.433   8.971  68.171  1.00  0.00    -0.038 C  
HETATM    7  H   UNL     1      -4.551   7.653  69.349  1.00  0.00     0.000 HD 
HETATM    8  O   UNL     1      -5.168   8.370  69.441  1.00  0.00    -0.029 OA 
BRANCH   6   9
HETATM    9  C   UNL     1      -6.066   7.920  67.229  1.00  0.00    -0.053 C  
HETATM   10  H   UNL     1      -6.062   7.440  65.295  1.00  0.00     0.000 HD 
HETATM   11  O   UNL     1      -5.674   8.086  65.874  1.00  0.00    -0.036 OA 
ENDBRANCH   6   9
ENDBRANCH   5   6
ENDBRANCH   2   5
BRANCH   4  12
HETATM   12  C   UNL     1      -9.356  10.766  67.516  1.00  0.00    -0.158 A  
HETATM   13  C   UNL     1      -9.857   9.462  67.592  1.00  0.00    -0.174 A  
HETATM   14  C   UNL     1     -10.056  11.790  68.232  1.00  0.00    -0.197 A  
HETATM   15  C   UNL     1     -11.065  11.465  69.192  1.00  0.00    -0.317 A  
HETATM   16  I   UNL     1      -9.576  13.849  67.784  1.00  0.00    -0.246 I  
HETATM   17  I   UNL     1      -9.532   8.119  65.932  1.00  0.00     0.334 I  
HETATM   18  C   UNL     1     -11.237  10.093  69.493  1.00  0.00    -0.238 A  
HETATM   19  I   UNL     1     -11.826   9.527  71.491  1.00  0.00    -0.393 I  
HETATM   20  C   UNL     1     -10.721   9.082  68.635  1.00  0.00    -0.097 A  
BRANCH  15  21
HETATM   21  C   UNL     1     -11.815  12.570  69.922  1.00  0.00    -0.303 C  
HETATM   22  O   UNL     1     -12.097  12.385  71.109  1.00  0.00    -0.133 OA 
HETATM   23  N   UNL     1     -12.110  13.813  69.323  1.00  0.00    -0.343 N  
HETATM   24  C   UNL     1     -12.270  14.057  67.894  1.00  0.00    -0.153 C  
BRANCH  23  25
HETATM   25  C   UNL     1     -12.539  14.926  70.207  1.00  0.00    -0.313 C  
BRANCH  25  26
HETATM   26  C   UNL     1     -11.433  15.562  71.076  1.00  0.00    -0.383 C  
HETATM   27  H   UNL     1     -10.632  17.369  71.405  1.00  0.00     0.000 HD 
HETATM   28  O   UNL     1     -11.313  16.977  70.870  1.00  0.00     0.226 OA 
BRANCH  26  29
HETATM   29  C   UNL     1     -11.712  15.372  72.577  1.00  0.00    -0.463 C  
HETATM   30  H   UNL     1     -12.889  16.180  73.933  1.00  0.00     0.000 HD 
HETATM   31  O   UNL     1     -12.717  16.297  73.006  1.00  0.00    -0.442 OA 
ENDBRANCH  26  29
ENDBRANCH  25  26
ENDBRANCH  23  25
ENDBRANCH  15  21
BRANCH  20  32
HETATM   32  N   UNL     1     -10.951   7.689  68.832  1.00  0.00    -0.426 N  
HETATM   33  C   UNL     1      -9.912   6.772  68.921  1.00  0.00    -0.155 C  
HETATM   34  H   UNL     1     -11.912   7.354  68.909  1.00  0.00     0.000 HD 
HETATM   35  H   UNL     1     -12.173   6.035  71.897  1.00  0.00     0.000 HD 
HETATM   36  H   UNL     1      -7.472   3.872  69.607  1.00  0.00     0.000 HD 
HETATM   37  C   UNL     1     -10.377   5.362  69.299  1.00  0.00    -0.322 C  
HETATM   38  O   UNL     1      -8.724   7.061  68.783  1.00  0.00    -0.127 OA 
HETATM   39  O   UNL     1      -8.147   4.512  69.804  1.00  0.00    -0.060 OA 
HETATM   40  O   UNL     1     -11.938   6.074  70.977  1.00  0.00    -0.051 OA 
HETATM   41  C   UNL     1     -10.756   5.299  70.777  1.00  0.00    -0.126 C  
HETATM   42  C   UNL     1      -9.295   4.335  68.982  1.00  0.00    -0.160 C  
ENDBRANCH  20  32
ENDBRANCH   4  12
TORSDOF 9
ENDMDL
MODEL      117
REMARK 921   NORMALIZED FREE ENERGY PREDICTED BY IDOCK:   -0.06 KCAL/MOL
REMARK 922        TOTAL FREE ENERGY PREDICTED BY IDOCK:   -1.39 KCAL/MOL
REMARK 923 INTER-LIGAND FREE ENERGY PREDICTED BY IDOCK:   -3.52 KCAL/MOL
REMARK 924 INTRA-LIGAND FREE ENERGY PREDICTED BY IDOCK:    2.13 KCAL/MOL
REMARK 927      BINDING AFFINITY PREDICTED BY RF-SCORE:    0.00 PKD
ROOT
HETATM    1  C   UNL     1     -13.184  14.241  65.500  1.00  0.00     0.143 C  
HETATM    2  N   UNL     1     -11.965  14.231  66.307  1.00  0.00    -0.411 N  
HETATM    3  O   UNL     1     -10.785  15.066  64.501  1.00  0.00    -0.289 OA 
HETATM    4  C   UNL     1     -10.778  14.636  65.649  1.00  0.00    -0.332 C  
ENDROOT
BRANCH   2   5
HETATM    5  C   UNL     1     -12.158  14.067  67.761  1.00  0.00    -0.290 C  
BRANCH   5   6
HETATM    6  C   UNL     1     -11.893  15.255  68.685  1.00  0.00    -0.305 C  
HETATM    7  H   UNL     1     -10.546  15.775  70.035  1.00  0.00     0.000 HD 
HETATM    8  O   UNL     1     -10.711  15.036  69.461  1.00  0.00    -0.242 OA 
BRANCH   6   9
HETATM    9  C   UNL     1     -11.699  16.509  67.799  1.00  0.00     0.458 C  
HETATM   10  H   UNL     1     -11.348  18.458  68.011  1.00  0.00     0.000 HD 
HETATM   11  O   UNL     1     -11.466  17.688  68.555  1.00  0.00     0.467 OA 
ENDBRANCH   6   9
ENDBRANCH   5   6
ENDBRANCH   2   5
BRANCH   4  12
HETATM   12  C   UNL     1      -9.447  14.591  66.342  1.00  0.00    -0.316 A  
HETATM   13  C   UNL     1      -8.941  15.770  66.900  1.00  0.00    -0.240 A  
HETATM   14  C   UNL     1      -8.625  13.420  66.401  1.00  0.00     0.358 A  
HETATM   15  C   UNL     1      -7.453  13.380  67.221  1.00  0.00    -0.062 A  
HETATM   16  I   UNL     1      -9.178  11.727  65.178  1.00  0.00     0.398 I  
HETATM   17  I   UNL     1      -9.574  17.667  66.085  1.00  0.00     0.025 I  
HETATM   18  C   UNL     1      -7.229  14.495  68.064  1.00  0.00    -0.142 A  
HETATM   19  I   UNL     1      -6.274  14.185  69.975  1.00  0.00    -0.065 I  
HETATM   20  C   UNL     1      -7.897  15.731  67.841  1.00  0.00    -0.139 A  
BRANCH  15  21
HETATM   21  C   UNL     1      -6.578  12.135  67.250  1.00  0.00    -0.146 C  
HETATM   22  O   UNL     1      -5.529  12.155  66.599  1.00  0.00    -0.324 OA 
HETATM   23  N   UNL     1      -6.873  11.015  68.056  1.00  0.00    -0.066 N  
HETATM   24  C   UNL     1      -8.200  10.618  68.514  1.00  0.00    -0.128 C  
BRANCH  23  25
HETATM   25  C   UNL     1      -5.804  10.008  68.266  1.00  0.00    -0.042 C  
BRANCH  25  26
HETATM   26  C   UNL     1      -6.043   8.627  67.619  1.00  0.00    -0.048 C  
HETATM   27  H   UNL     1      -5.354   7.551  66.075  1.00  0.00     0.000 HD 
HETATM   28  O   UNL     1      -5.208   8.401  66.474  1.00  0.00    -0.027 OA 
BRANCH  26  29
HETATM   29  C   UNL     1      -5.739   7.481  68.599  1.00  0.00    -0.023 C  
HETATM   30  H   UNL     1      -6.770   6.130  69.594  1.00  0.00     0.000 HD 
HETATM   31  O   UNL     1      -6.957   6.838  68.988  1.00  0.00    -0.076 OA 
ENDBRANCH  26  29
ENDBRANCH  25  26
ENDBRANCH  23  25
ENDBRANCH  15  21
BRANCH  20  32
HETATM   32  N   UNL     1      -7.635  16.915  68.591  1.00  0.00    -0.221 N  
HETATM   33  C   UNL     1      -6.649  17.821  68.223  1.00  0.00    -0.196 C  
HETATM   34  H   UNL     1      -8.191  17.102  69.426  1.00  0.00     0.000 HD 
HETATM   35  H   UNL     1      -9.770  19.914  68.851  1.00  0.00     0.000 HD 
HETATM   36  H   UNL     1      -4.352  20.826  67.497  1.00  0.00     0.000 HD 
HETATM   37  C   UNL     1      -6.654  19.098  69.070  1.00  0.00    -0.331 C  
HETATM   38  O   UNL     1      -5.888  17.663  67.271  1.00  0.00    -0.130 OA 
HETATM   39  O   UNL     1      -5.173  20.357  67.594  1.00  0.00    -0.175 OA 
HETATM   40  O   UNL     1      -9.040  19.356  69.091  1.00  0.00    -0.315 OA 
HETATM   41  C   UNL     1      -7.829  19.994  68.685  1.00  0.00    -0.087 C  
HETATM   42  C   UNL     1      -5.337  19.851  68.914  1.00  0.00    -0.203 C  
ENDBRANCH  20  32
ENDBRANCH   4  12
TORSDOF 9
ENDMDL
MODEL      118
REMARK 921   NORMALIZED FREE ENERGY PREDICTED BY IDOCK:   -0.02 KCAL/MOL
REMARK 922        TOTAL FREE ENERGY PREDICTED BY IDOCK:   -1.33 KCAL/MOL
REMARK 923 INTER-LIGAND FREE ENERGY PREDICTED BY IDOCK:   -3.02 KCAL/MOL
REMARK 924 INTRA-LIGAND FREE ENERGY PREDICTED BY IDOCK:    1.69 KCAL/MOL
REMARK 927      BINDING AFFINITY PREDICTED BY RF-SCORE:    0.00 PKD
ROOT
HETATM    1  C   UNL     1     -11.086  14.574  69.836  1.00  0.00    -0.163 C  
HETATM    2  N   UNL     1     -11.208  13.217  69.306  1.00  0.00    -0.238 N  
HETATM    3  O   UNL     1      -8.934  13.206  68.873  1.00  0.00     0.095 OA 
HETATM    4  C   UNL     1     -10.020  12.642  68.790  1.00  0.00    -0.010 C  
ENDROOT
BRANCH   2   5
HETATM    5  C   UNL     1     -12.468  12.515  69.615  1.00  0.00     0.188 C  
BRANCH   5   6
HETATM    6  C   UNL     1     -13.265  12.930  70.852  1.00  0.00     0.224 C  
HETATM    7  H   UNL     1     -13.116  12.732  72.812  1.00  0.00     0.000 HD 
HETATM    8  O   UNL     1     -12.620  12.474  72.044  1.00  0.00    -0.049 OA 
BRANCH   6   9
HETATM    9  C   UNL     1     -13.341  14.475  70.869  1.00  0.00    -0.265 C  
HETATM   10  H   UNL     1     -13.383  15.962  72.194  1.00  0.00     0.000 HD 
HETATM   11  O   UNL     1     -13.337  15.013  72.183  1.00  0.00    -0.331 OA 
ENDBRANCH   6   9
ENDBRANCH   5   6
ENDBRANCH   2   5
BRANCH   4  12
HETATM   12  C   UNL     1     -10.026  11.288  68.141  1.00  0.00    -0.191 A  
HETATM   13  C   UNL     1      -9.955  11.212  66.746  1.00  0.00    -0.208 A  
HETATM   14  C   UNL     1     -10.175  10.063  68.868  1.00  0.00    -0.193 A  
HETATM   15  C   UNL     1      -9.996   8.796  68.227  1.00  0.00    -0.202 A  
HETATM   16  I   UNL     1     -10.725  10.180  70.954  1.00  0.00     0.719 I  
HETATM   17  I   UNL     1     -10.665  12.879  65.571  1.00  0.00    -0.334 I  
HETATM   18  C   UNL     1      -9.537   8.821  66.889  1.00  0.00    -0.190 A  
HETATM   19  I   UNL     1      -8.264   7.222  66.192  1.00  0.00    -0.153 I  
HETATM   20  C   UNL     1      -9.611  10.007  66.107  1.00  0.00    -0.210 A  
BRANCH  15  21
HETATM   21  C   UNL     1     -10.185   7.505  69.011  1.00  0.00    -0.205 C  
HETATM   22  O   UNL     1     -11.262   6.915  68.894  1.00  0.00    -0.152 OA 
HETATM   23  N   UNL     1      -9.154   6.924  69.779  1.00  0.00    -0.144 N  
HETATM   24  C   UNL     1      -8.036   7.636  70.388  1.00  0.00    -0.097 C  
BRANCH  23  25
HETATM   25  C   UNL     1      -9.328   5.519  70.226  1.00  0.00    -0.154 C  
BRANCH  25  26
HETATM   26  C   UNL     1      -8.040   4.785  70.657  1.00  0.00    -0.081 C  
HETATM   27  H   UNL     1      -7.312   3.850  72.273  1.00  0.00     0.000 HD 
HETATM   28  O   UNL     1      -8.104   4.303  72.007  1.00  0.00    -0.089 OA 
BRANCH  26  29
HETATM   29  C   UNL     1      -7.769   3.552  69.778  1.00  0.00    -0.050 C  
HETATM   30  H   UNL     1      -7.781   3.128  67.854  1.00  0.00     0.000 HD 
HETATM   31  O   UNL     1      -7.948   3.890  68.398  1.00  0.00    -0.074 OA 
ENDBRANCH  26  29
ENDBRANCH  25  26
ENDBRANCH  23  25
ENDBRANCH  15  21
BRANCH  20  32
HETATM   32  N   UNL     1      -9.261  10.065  64.727  1.00  0.00    -0.228 N  
HETATM   33  C   UNL     1      -7.963  10.318  64.303  1.00  0.00    -0.132 C  
HETATM   34  H   UNL     1      -9.988   9.915  64.027  1.00  0.00     0.000 HD 
HETATM   35  H   UNL     1      -9.091   7.251  62.344  1.00  0.00     0.000 HD 
HETATM   36  H   UNL     1      -4.536  10.602  62.567  1.00  0.00     0.000 HD 
HETATM   37  C   UNL     1      -7.780  10.168  62.788  1.00  0.00    -0.147 C  
HETATM   38  O   UNL     1      -7.026  10.568  65.059  1.00  0.00    -0.099 OA 
HETATM   39  O   UNL     1      -5.340  10.182  62.850  1.00  0.00    -0.095 OA 
HETATM   40  O   UNL     1      -9.092   8.169  62.592  1.00  0.00     0.390 OA 
HETATM   41  C   UNL     1      -7.780   8.694  62.390  1.00  0.00    -0.120 C  
HETATM   42  C   UNL     1      -6.490  10.843  62.334  1.00  0.00    -0.027 C  
ENDBRANCH  20  32
ENDBRANCH   4  12
TORSDOF 9
ENDMDL
MODEL      119
REMARK 921   NORMALIZED FREE ENERGY PREDICTED BY IDOCK:   -0.01 KCAL/MOL
REMARK 922        TOTAL FREE ENERGY PREDICTED BY IDOCK:   -1.31 KCAL/MOL
REMARK 923 INTER-LIGAND FREE ENERGY PREDICTED BY IDOCK:   -2.03 KCAL/MOL
REMARK 924 INTRA-LIGAND FREE ENERGY PREDICTED BY IDOCK:    0.72 KCAL/MOL
REMARK 927      BINDING AFFINITY PREDICTED BY RF-SCORE:    0.00 PKD
ROOT
HETATM    1  C   UNL     1     -12.871   6.563  72.676  1.00  0.00     0.618 C  
HETATM    2  N   UNL     1     -12.071   7.173  71.615  1.00  0.00    -0.317 N  
HETATM    3  O   UNL     1     -11.098   8.571  73.181  1.00  0.00     0.186 OA 
HETATM    4  C   UNL     1     -11.228   8.241  72.008  1.00  0.00    -0.323 C  
ENDROOT
BRANCH   2   5
HETATM    5  C   UNL     1     -12.031   6.438  70.336  1.00  0.00    -0.115 C  
BRANCH   5   6
HETATM    6  C   UNL     1     -10.862   5.492  70.059  1.00  0.00    -0.231 C  
HETATM    7  H   UNL     1     -10.407   3.602  70.412  1.00  0.00     0.000 HD 
HETATM    8  O   UNL     1     -11.133   4.189  70.585  1.00  0.00     1.620 OA 
BRANCH   6   9
HETATM    9  C   UNL     1     -10.683   5.399  68.526  1.00  0.00    -0.005 C  
HETATM   10  H   UNL     1     -10.752   6.589  66.930  1.00  0.00     0.000 HD 
HETATM   11  O   UNL     1     -10.862   6.646  67.872  1.00  0.00    -0.246 OA 
ENDBRANCH   6   9
ENDBRANCH   5   6
ENDBRANCH   2   5
BRANCH   4  12
HETATM   12  C   UNL     1     -10.417   9.006  71.001  1.00  0.00    -0.339 A  
HETATM   13  C   UNL     1      -9.053   8.718  70.881  1.00  0.00    -0.208 A  
HETATM   14  C   UNL     1     -10.946  10.071  70.203  1.00  0.00    -0.310 A  
HETATM   15  C   UNL     1     -10.184  10.646  69.138  1.00  0.00    -0.238 A  
HETATM   16  I   UNL     1     -12.915  10.819  70.685  1.00  0.00     0.122 I  
HETATM   17  I   UNL     1      -8.005   7.890  72.578  1.00  0.00    -0.202 I  
HETATM   18  C   UNL     1      -8.950  10.023  68.832  1.00  0.00    -0.152 A  
HETATM   19  I   UNL     1      -8.265  10.015  66.784  1.00  0.00    -0.126 I  
HETATM   20  C   UNL     1      -8.327   9.134  69.750  1.00  0.00    -0.136 A  
BRANCH  15  21
HETATM   21  C   UNL     1     -10.754  11.795  68.319  1.00  0.00    -0.214 C  
HETATM   22  O   UNL     1     -11.031  11.576  67.137  1.00  0.00    -0.255 OA 
HETATM   23  N   UNL     1     -11.059  13.053  68.882  1.00  0.00    -0.261 N  
HETATM   24  C   UNL     1     -10.429  13.637  70.062  1.00  0.00     1.080 C  
BRANCH  23  25
HETATM   25  C   UNL     1     -11.907  13.981  68.093  1.00  0.00    -0.367 C  
BRANCH  25  26
HETATM   26  C   UNL     1     -11.373  14.356  66.693  1.00  0.00    -0.353 C  
HETATM   27  H   UNL     1     -12.089  14.715  64.858  1.00  0.00     0.000 HD 
HETATM   28  O   UNL     1     -12.418  14.484  65.719  1.00  0.00    -0.323 OA 
BRANCH  26  29
HETATM   29  C   UNL     1     -10.639  15.708  66.711  1.00  0.00    -0.307 C  
HETATM   30  H   UNL     1      -9.495  16.738  65.483  1.00  0.00     0.000 HD 
HETATM   31  O   UNL     1      -9.948  15.903  65.472  1.00  0.00    -0.343 OA 
ENDBRANCH  26  29
ENDBRANCH  25  26
ENDBRANCH  23  25
ENDBRANCH  15  21
BRANCH  20  32
HETATM   32  N   UNL     1      -7.039   8.559  69.541  1.00  0.00    -0.051 N  
HETATM   33  C   UNL     1      -6.852   7.189  69.412  1.00  0.00    -0.050 C  
HETATM   34  H   UNL     1      -6.228   9.175  69.484  1.00  0.00     0.000 HD 
HETATM   35  H   UNL     1      -4.976   8.751  66.486  1.00  0.00     0.000 HD 
HETATM   36  H   UNL     1      -5.788   3.573  68.622  1.00  0.00     0.000 HD 
HETATM   37  C   UNL     1      -5.419   6.807  69.026  1.00  0.00    -0.017 C  
HETATM   38  O   UNL     1      -7.751   6.357  69.521  1.00  0.00    -0.096 OA 
HETATM   39  O   UNL     1      -5.947   4.495  68.451  1.00  0.00    -0.024 OA 
HETATM   40  O   UNL     1      -5.142   8.549  67.400  1.00  0.00    -0.032 OA 
HETATM   41  C   UNL     1      -5.153   7.131  67.558  1.00  0.00    -0.016 C  
HETATM   42  C   UNL     1      -5.166   5.328  69.300  1.00  0.00     0.000 C  
ENDBRANCH  20  32
ENDBRANCH   4  12
TORSDOF 9
ENDMDL
MODEL      120
REMARK 921   NORMALIZED FREE ENERGY PREDICTED BY IDOCK:    0.01 KCAL/MOL
REMARK 922        TOTAL FREE ENERGY PREDICTED BY IDOCK:   -1.29 KCAL/MOL
REMARK 923 INTER-LIGAND FREE ENERGY PREDICTED BY IDOCK:   -4.38 KCAL/MOL
REMARK 924 INTRA-LIGAND FREE ENERGY PREDICTED BY IDOCK:    3.10 KCAL/MOL
REMARK 927      BINDING AFFINITY PREDICTED BY RF-SCORE:    0.00 PKD
ROOT
HETATM    1  C   UNL     1     -11.562   5.868  71.676  1.00  0.00    -0.119 C  
HETATM    2  N   UNL     1     -10.681   6.454  70.667  1.00  0.00    -0.242 N  
HETATM    3  O   UNL     1      -9.994   4.329  70.061  1.00  0.00    -0.223 OA 
HETATM    4  C   UNL     1      -9.883   5.543  69.932  1.00  0.00    -0.194 C  
ENDROOT
BRANCH   2   5
HETATM    5  C   UNL     1     -10.925   7.874  70.347  1.00  0.00    -0.249 C  
BRANCH   5   6
HETATM    6  C   UNL     1     -11.975   8.646  71.145  1.00  0.00    -0.279 C  
HETATM    7  H   UNL     1     -12.111   9.501  72.921  1.00  0.00     0.000 HD 
HETATM    8  O   UNL     1     -11.459   9.021  72.426  1.00  0.00    -0.251 OA 
BRANCH   6   9
HETATM    9  C   UNL     1     -12.333   9.921  70.345  1.00  0.00    -0.076 C  
HETATM   10  H   UNL     1     -12.367  11.896  70.601  1.00  0.00     0.000 HD 
HETATM   11  O   UNL     1     -12.146  11.113  71.093  1.00  0.00    -0.301 OA 
ENDBRANCH   6   9
ENDBRANCH   5   6
ENDBRANCH   2   5
BRANCH   4  12
HETATM   12  C   UNL     1      -8.877   6.022  68.925  1.00  0.00    -0.120 A  
HETATM   13  C   UNL     1      -8.677   5.266  67.765  1.00  0.00    -0.103 A  
HETATM   14  C   UNL     1      -8.053   7.177  69.118  1.00  0.00    -0.121 A  
HETATM   15  C   UNL     1      -7.241   7.692  68.058  1.00  0.00    -0.097 A  
HETATM   16  I   UNL     1      -8.032   8.095  71.074  1.00  0.00    -0.143 I  
HETATM   17  I   UNL     1      -9.108   3.150  67.810  1.00  0.00    -0.229 I  
HETATM   18  C   UNL     1      -7.399   7.089  66.787  1.00  0.00    -0.077 A  
HETATM   19  I   UNL     1      -7.154   8.301  65.018  1.00  0.00    -0.082 I  
HETATM   20  C   UNL     1      -8.027   5.820  66.648  1.00  0.00    -0.102 A  
BRANCH  15  21
HETATM   21  C   UNL     1      -6.352   8.904  68.291  1.00  0.00    -0.055 C  
HETATM   22  O   UNL     1      -5.223   8.708  68.750  1.00  0.00    -0.032 OA 
HETATM   23  N   UNL     1      -6.732  10.211  67.917  1.00  0.00    -0.066 N  
HETATM   24  C   UNL     1      -8.102  10.700  67.795  1.00  0.00    -0.111 C  
BRANCH  23  25
HETATM   25  C   UNL     1      -5.681  11.258  67.880  1.00  0.00    -0.043 C  
BRANCH  25  26
HETATM   26  C   UNL     1      -5.392  11.970  69.219  1.00  0.00    -0.056 C  
HETATM   27  H   UNL     1      -6.308  13.228  70.481  1.00  0.00     0.000 HD 
HETATM   28  O   UNL     1      -6.486  12.789  69.657  1.00  0.00    -0.112 OA 
BRANCH  26  29
HETATM   29  C   UNL     1      -5.133  10.964  70.352  1.00  0.00    -0.067 C  
HETATM   30  H   UNL     1      -5.670  10.751  72.235  1.00  0.00     0.000 HD 
HETATM   31  O   UNL     1      -5.829  11.372  71.535  1.00  0.00    -0.289 OA 
ENDBRANCH  26  29
ENDBRANCH  25  26
ENDBRANCH  23  25
ENDBRANCH  15  21
BRANCH  20  32
HETATM   32  N   UNL     1      -8.122   5.119  65.410  1.00  0.00    -0.114 N  
HETATM   33  C   UNL     1      -7.170   4.189  65.011  1.00  0.00    -0.071 C  
HETATM   34  H   UNL     1      -8.916   5.306  64.797  1.00  0.00     0.000 HD 
HETATM   35  H   UNL     1     -10.536   2.473  64.520  1.00  0.00     0.000 HD 
HETATM   36  H   UNL     1      -5.083   1.289  63.575  1.00  0.00     0.000 HD 
HETATM   37  C   UNL     1      -7.556   3.437  63.733  1.00  0.00    -0.067 C  
HETATM   38  O   UNL     1      -6.149   3.932  65.646  1.00  0.00    -0.023 OA 
HETATM   39  O   UNL     1      -5.843   1.714  63.956  1.00  0.00    -0.008 OA 
HETATM   40  O   UNL     1      -9.855   3.110  64.340  1.00  0.00    -0.159 OA 
HETATM   41  C   UNL     1      -8.651   2.413  64.022  1.00  0.00    -0.086 C  
HETATM   42  C   UNL     1      -6.337   2.756  63.122  1.00  0.00    -0.018 C  
ENDBRANCH  20  32
ENDBRANCH   4  12
TORSDOF 9
ENDMDL
MODEL      121
REMARK 921   NORMALIZED FREE ENERGY PREDICTED BY IDOCK:    0.61 KCAL/MOL
REMARK 922        TOTAL FREE ENERGY PREDICTED BY IDOCK:   -0.37 KCAL/MOL
REMARK 923 INTER-LIGAND FREE ENERGY PREDICTED BY IDOCK:   -3.41 KCAL/MOL
REMARK 924 INTRA-LIGAND FREE ENERGY PREDICTED BY IDOCK:    3.04 KCAL/MOL
REMARK 927      BINDING AFFINITY PREDICTED BY RF-SCORE:    0.00 PKD
ROOT
HETATM    1  C   UNL     1      -7.642   4.218  71.441  1.00  0.00    -0.064 C  
HETATM    2  N   UNL     1      -7.997   5.134  70.358  1.00  0.00    -0.084 N  
HETATM    3  O   UNL     1      -6.134   6.413  70.856  1.00  0.00    -0.030 OA 
HETATM    4  C   UNL     1      -7.156   6.262  70.196  1.00  0.00    -0.074 C  
ENDROOT
BRANCH   2   5
HETATM    5  C   UNL     1      -9.009   4.641  69.404  1.00  0.00    -0.096 C  
BRANCH   5   6
HETATM    6  C   UNL     1      -8.551   3.851  68.178  1.00  0.00    -0.096 C  
HETATM    7  H   UNL     1      -7.090   2.603  67.715  1.00  0.00     0.000 HD 
HETATM    8  O   UNL     1      -7.374   3.094  68.476  1.00  0.00    -0.049 OA 
BRANCH   6   9
HETATM    9  C   UNL     1      -9.694   2.886  67.783  1.00  0.00     0.157 C  
HETATM   10  H   UNL     1      -9.978   0.937  67.483  1.00  0.00     0.000 HD 
HETATM   11  O   UNL     1      -9.276   1.530  67.725  1.00  0.00    -0.134 OA 
ENDBRANCH   6   9
ENDBRANCH   5   6
ENDBRANCH   2   5
BRANCH   4  12
HETATM   12  C   UNL     1      -7.459   7.321  69.175  1.00  0.00    -0.093 A  
HETATM   13  C   UNL     1      -6.936   7.178  67.886  1.00  0.00    -0.080 A  
HETATM   14  C   UNL     1      -8.195   8.514  69.466  1.00  0.00    -0.116 A  
HETATM   15  C   UNL     1      -8.608   9.402  68.424  1.00  0.00    -0.124 A  
HETATM   16  I   UNL     1      -8.627   8.962  71.536  1.00  0.00     0.139 I  
HETATM   17  I   UNL     1      -5.135   6.018  67.610  1.00  0.00    -0.005 I  
HETATM   18  C   UNL     1      -8.371   8.975  67.095  1.00  0.00    -0.110 A  
HETATM   19  I   UNL     1      -9.763   9.551  65.549  1.00  0.00     0.029 I  
HETATM   20  C   UNL     1      -7.452   7.927  66.812  1.00  0.00    -0.090 A  
BRANCH  15  21
HETATM   21  C   UNL     1      -9.367  10.679  68.757  1.00  0.00    -0.180 C  
HETATM   22  O   UNL     1     -10.145  10.650  69.714  1.00  0.00    -0.162 OA 
HETATM   23  N   UNL     1      -9.143  11.896  68.079  1.00  0.00    -0.183 N  
HETATM   24  C   UNL     1      -8.645  12.036  66.715  1.00  0.00    -0.177 C  
BRANCH  23  25
HETATM   25  C   UNL     1      -9.678  13.139  68.688  1.00  0.00    -0.057 C  
BRANCH  25  26
HETATM   26  C   UNL     1     -10.756  13.881  67.868  1.00  0.00    -0.240 C  
HETATM   27  H   UNL     1     -12.376  13.446  66.772  1.00  0.00     0.000 HD 
HETATM   28  O   UNL     1     -11.712  12.989  67.277  1.00  0.00    -0.340 OA 
BRANCH  26  29
HETATM   29  C   UNL     1     -11.565  14.853  68.744  1.00  0.00    -0.323 C  
HETATM   30  H   UNL     1     -11.286  15.853  70.417  1.00  0.00     0.000 HD 
HETATM   31  O   UNL     1     -10.786  15.253  69.876  1.00  0.00    -0.259 OA 
ENDBRANCH  26  29
ENDBRANCH  25  26
ENDBRANCH  23  25
ENDBRANCH  15  21
BRANCH  20  32
HETATM   32  N   UNL     1      -7.096   7.525  65.492  1.00  0.00    -0.060 N  
HETATM   33  C   UNL     1      -7.200   6.207  65.066  1.00  0.00    -0.070 C  
HETATM   34  H   UNL     1      -6.755   8.229  64.837  1.00  0.00     0.000 HD 
HETATM   35  H   UNL     1      -8.901   8.283  62.363  1.00  0.00     0.000 HD 
HETATM   36  H   UNL     1      -7.620   2.842  63.242  1.00  0.00     0.000 HD 
HETATM   37  C   UNL     1      -6.927   6.030  63.569  1.00  0.00    -0.045 C  
HETATM   38  O   UNL     1      -7.544   5.274  65.790  1.00  0.00    -0.081 OA 
HETATM   39  O   UNL     1      -7.796   3.753  63.445  1.00  0.00    -0.075 OA 
HETATM   40  O   UNL     1      -8.168   7.964  62.876  1.00  0.00    -0.145 OA 
HETATM   41  C   UNL     1      -8.104   6.544  62.744  1.00  0.00    -0.062 C  
HETATM   42  C   UNL     1      -6.646   4.567  63.243  1.00  0.00    -0.030 C  
ENDBRANCH  20  32
ENDBRANCH   4  12
TORSDOF 9
ENDMDL
MODEL      122
REMARK 921   NORMALIZED FREE ENERGY PREDICTED BY IDOCK:    0.65 KCAL/MOL
REMARK 922        TOTAL FREE ENERGY PREDICTED BY IDOCK:   -0.30 KCAL/MOL
REMARK 923 INTER-LIGAND FREE ENERGY PREDICTED BY IDOCK:   -3.75 KCAL/MOL
REMARK 924 INTRA-LIGAND FREE ENERGY PREDICTED BY IDOCK:    3.45 KCAL/MOL
REMARK 927      BINDING AFFINITY PREDICTED BY RF-SCORE:    0.00 PKD
ROOT
HETATM    1  C   UNL     1     -10.553  15.739  64.843  1.00  0.00    -0.284 C  
HETATM    2  N   UNL     1     -10.405  15.146  66.172  1.00  0.00    -0.286 N  
HETATM    3  O   UNL     1     -10.860  13.064  65.271  1.00  0.00    -0.281 OA 
HETATM    4  C   UNL     1     -10.642  13.752  66.262  1.00  0.00    -0.289 C  
ENDROOT
BRANCH   2   5
HETATM    5  C   UNL     1      -9.768  16.002  67.191  1.00  0.00    -0.228 C  
BRANCH   5   6
HETATM    6  C   UNL     1      -8.263  16.261  67.110  1.00  0.00    -0.189 C  
HETATM    7  H   UNL     1      -7.070  17.716  66.506  1.00  0.00     0.000 HD 
HETATM    8  O   UNL     1      -8.005  17.555  66.557  1.00  0.00    -0.233 OA 
BRANCH   6   9
HETATM    9  C   UNL     1      -7.694  16.195  68.546  1.00  0.00    -0.170 C  
HETATM   10  H   UNL     1      -6.171  15.360  69.521  1.00  0.00     0.000 HD 
HETATM   11  O   UNL     1      -6.520  15.401  68.639  1.00  0.00    -0.092 OA 
ENDBRANCH   6   9
ENDBRANCH   5   6
ENDBRANCH   2   5
BRANCH   4  12
HETATM   12  C   UNL     1     -10.604  13.037  67.582  1.00  0.00    -0.232 A  
HETATM   13  C   UNL     1     -11.261  13.611  68.675  1.00  0.00    -0.277 A  
HETATM   14  C   UNL     1      -9.868  11.830  67.807  1.00  0.00    -0.181 A  
HETATM   15  C   UNL     1     -10.007  11.095  69.026  1.00  0.00    -0.155 A  
HETATM   16  I   UNL     1      -8.500  11.172  66.268  1.00  0.00    -0.065 I  
HETATM   17  I   UNL     1     -11.554  15.751  68.712  1.00  0.00    -0.175 I  
HETATM   18  C   UNL     1     -10.999  11.545  69.929  1.00  0.00     0.116 A  
HETATM   19  I   UNL     1     -12.033  10.096  71.151  1.00  0.00    -0.421 I  
HETATM   20  C   UNL     1     -11.557  12.849  69.819  1.00  0.00    -0.218 A  
BRANCH  15  21
HETATM   21  C   UNL     1      -9.195   9.828  69.257  1.00  0.00    -0.192 C  
HETATM   22  O   UNL     1      -9.769   8.745  69.117  1.00  0.00    -0.170 OA 
HETATM   23  N   UNL     1      -7.810   9.851  69.527  1.00  0.00    -0.123 N  
HETATM   24  C   UNL     1      -7.078  10.949  70.148  1.00  0.00     0.189 C  
BRANCH  23  25
HETATM   25  C   UNL     1      -7.057   8.577  69.406  1.00  0.00    -0.054 C  
BRANCH  25  26
HETATM   26  C   UNL     1      -6.682   7.887  70.735  1.00  0.00    -0.037 C  
HETATM   27  H   UNL     1      -7.480   7.581  72.547  1.00  0.00     0.000 HD 
HETATM   28  O   UNL     1      -7.710   8.006  71.729  1.00  0.00    -0.080 OA 
BRANCH  26  29
HETATM   29  C   UNL     1      -6.447   6.379  70.545  1.00  0.00    -0.044 C  
HETATM   30  H   UNL     1      -5.122   5.046  71.133  1.00  0.00     0.000 HD 
HETATM   31  O   UNL     1      -5.268   5.977  71.251  1.00  0.00    -0.016 OA 
ENDBRANCH  26  29
ENDBRANCH  25  26
ENDBRANCH  23  25
ENDBRANCH  15  21
BRANCH  20  32
HETATM   32  N   UNL     1     -12.481  13.392  70.758  1.00  0.00    -0.358 N  
HETATM   33  C   UNL     1     -12.067  14.075  71.894  1.00  0.00     0.121 C  
HETATM   34  H   UNL     1     -13.481  13.276  70.589  1.00  0.00     0.000 HD 
HETATM   35  H   UNL     1     -14.705  16.299  70.279  1.00  0.00     0.000 HD 
HETATM   36  H   UNL     1     -11.528  16.341  74.962  1.00  0.00     0.000 HD 
HETATM   37  C   UNL     1     -13.222  14.716  72.671  1.00  0.00    -0.556 C  
HETATM   38  O   UNL     1     -10.891  14.221  72.221  1.00  0.00     1.947 OA 
HETATM   39  O   UNL     1     -11.803  16.113  74.080  1.00  0.00    -0.216 OA 
HETATM   40  O   UNL     1     -14.382  15.530  70.734  1.00  0.00    -0.284 OA 
HETATM   41  C   UNL     1     -13.742  15.951  71.939  1.00  0.00    -0.071 C  
HETATM   42  C   UNL     1     -12.782  15.081  74.085  1.00  0.00    -0.153 C  
ENDBRANCH  20  32
ENDBRANCH   4  12
TORSDOF 9
ENDMDL
MODEL      123
REMARK 921   NORMALIZED FREE ENERGY PREDICTED BY IDOCK:    1.19 KCAL/MOL
REMARK 922        TOTAL FREE ENERGY PREDICTED BY IDOCK:    0.52 KCAL/MOL
REMARK 923 INTER-LIGAND FREE ENERGY PREDICTED BY IDOCK:   -1.96 KCAL/MOL
REMARK 924 INTRA-LIGAND FREE ENERGY PREDICTED BY IDOCK:    2.47 KCAL/MOL
REMARK 927      BINDING AFFINITY PREDICTED BY RF-SCORE:    0.00 PKD
ROOT
HETATM    1  C   UNL     1      -9.459   1.702  68.575  1.00  0.00    -0.177 C  
HETATM    2  N   UNL     1      -9.456   3.088  69.040  1.00  0.00    -0.151 N  
HETATM    3  O   UNL     1      -8.473   3.733  67.047  1.00  0.00    -0.101 OA 
HETATM    4  C   UNL     1      -8.867   4.036  68.168  1.00  0.00    -0.108 C  
ENDROOT
BRANCH   2   5
HETATM    5  C   UNL     1     -10.298   3.374  70.217  1.00  0.00     1.220 C  
BRANCH   5   6
HETATM    6  C   UNL     1     -10.396   2.333  71.332  1.00  0.00     0.473 C  
HETATM    7  H   UNL     1      -9.209   1.003  72.187  1.00  0.00     0.000 HD 
HETATM    8  O   UNL     1      -9.149   1.650  71.494  1.00  0.00    -0.067 OA 
BRANCH   6   9
HETATM    9  C   UNL     1     -10.748   3.074  72.643  1.00  0.00     0.036 C  
HETATM   10  H   UNL     1     -11.685   2.720  74.364  1.00  0.00     0.000 HD 
HETATM   11  O   UNL     1     -11.469   2.264  73.559  1.00  0.00    -0.216 OA 
ENDBRANCH   6   9
ENDBRANCH   5   6
ENDBRANCH   2   5
BRANCH   4  12
HETATM   12  C   UNL     1      -8.727   5.479  68.562  1.00  0.00    -0.105 A  
HETATM   13  C   UNL     1      -7.885   5.803  69.630  1.00  0.00    -0.096 A  
HETATM   14  C   UNL     1      -9.466   6.542  67.949  1.00  0.00    -0.120 A  
HETATM   15  C   UNL     1      -9.167   7.911  68.236  1.00  0.00    -0.137 A  
HETATM   16  I   UNL     1     -11.081   6.018  66.613  1.00  0.00     0.853 I  
HETATM   17  I   UNL     1      -7.506   4.317  71.151  1.00  0.00    -0.054 I  
HETATM   18  C   UNL     1      -8.029   8.158  69.041  1.00  0.00    -0.113 A  
HETATM   19  I   UNL     1      -6.874   9.949  68.695  1.00  0.00    -0.051 I  
HETATM   20  C   UNL     1      -7.444   7.125  69.825  1.00  0.00    -0.097 A  
BRANCH  15  21
HETATM   21  C   UNL     1      -9.982   9.026  67.596  1.00  0.00    -0.201 C  
HETATM   22  O   UNL     1     -10.982   9.425  68.199  1.00  0.00    -0.166 OA 
HETATM   23  N   UNL     1      -9.586   9.670  66.405  1.00  0.00    -0.193 N  
HETATM   24  C   UNL     1      -8.752   9.091  65.357  1.00  0.00    -0.189 C  
BRANCH  23  25
HETATM   25  C   UNL     1     -10.257  10.945  66.048  1.00  0.00    -0.254 C  
BRANCH  25  26
HETATM   26  C   UNL     1     -10.084  12.102  67.055  1.00  0.00    -0.204 C  
HETATM   27  H   UNL     1      -8.916  13.709  67.313  1.00  0.00     0.000 HD 
HETATM   28  O   UNL     1      -9.022  12.996  66.694  1.00  0.00    -0.205 OA 
BRANCH  26  29
HETATM   29  C   UNL     1     -11.354  12.966  67.149  1.00  0.00    -0.306 C  
HETATM   30  H   UNL     1     -12.984  13.010  68.253  1.00  0.00     0.000 HD 
HETATM   31  O   UNL     1     -12.199  12.477  68.195  1.00  0.00    -0.270 OA 
ENDBRANCH  26  29
ENDBRANCH  25  26
ENDBRANCH  23  25
ENDBRANCH  15  21
BRANCH  20  32
HETATM   32  N   UNL     1      -6.364   7.338  70.730  1.00  0.00    -0.039 N  
HETATM   33  C   UNL     1      -6.434   8.265  71.761  1.00  0.00    -0.058 C  
HETATM   34  H   UNL     1      -5.511   6.790  70.616  1.00  0.00     0.000 HD 
HETATM   35  H   UNL     1      -5.177   5.049  73.371  1.00  0.00     0.000 HD 
HETATM   36  H   UNL     1      -6.195  10.381  74.971  1.00  0.00     0.000 HD 
HETATM   37  C   UNL     1      -5.232   8.209  72.710  1.00  0.00    -0.037 C  
HETATM   38  O   UNL     1      -7.391   9.014  71.951  1.00  0.00    -0.317 OA 
HETATM   39  O   UNL     1      -6.247   9.589  74.448  1.00  0.00    -0.349 OA 
HETATM   40  O   UNL     1      -5.125   5.814  72.810  1.00  0.00    -0.017 OA 
HETATM   41  C   UNL     1      -5.315   6.980  73.611  1.00  0.00    -0.046 C  
HETATM   42  C   UNL     1      -5.149   9.480  73.548  1.00  0.00    -0.095 C  
ENDBRANCH  20  32
ENDBRANCH   4  12
TORSDOF 9
ENDMDL
MODEL      124
REMARK 921   NORMALIZED FREE ENERGY PREDICTED BY IDOCK:    1.20 KCAL/MOL
REMARK 922        TOTAL FREE ENERGY PREDICTED BY IDOCK:    0.52 KCAL/MOL
REMARK 923 INTER-LIGAND FREE ENERGY PREDICTED BY IDOCK:   -3.77 KCAL/MOL
REMARK 924 INTRA-LIGAND FREE ENERGY PREDICTED BY IDOCK:    4.30 KCAL/MOL
REMARK 927      BINDING AFFINITY PREDICTED BY RF-SCORE:    0.00 PKD
ROOT
HETATM    1  C   UNL     1      -9.894  12.391  64.285  1.00  0.00    -0.102 C  
HETATM    2  N   UNL     1     -10.154  11.740  65.568  1.00  0.00    -0.240 N  
HETATM    3  O   UNL     1      -8.481  10.209  65.107  1.00  0.00    -0.146 OA 
HETATM    4  C   UNL     1      -9.382  10.585  65.848  1.00  0.00    -0.181 C  
ENDROOT
BRANCH   2   5
HETATM    5  C   UNL     1     -10.977  12.506  66.523  1.00  0.00    -0.266 C  
BRANCH   5   6
HETATM    6  C   UNL     1     -11.620  13.816  66.067  1.00  0.00    -0.346 C  
HETATM    7  H   UNL     1     -13.443  14.500  65.733  1.00  0.00     0.000 HD 
HETATM    8  O   UNL     1     -13.044  13.687  66.016  1.00  0.00    -0.189 OA 
BRANCH   6   9
HETATM    9  C   UNL     1     -11.241  14.911  67.092  1.00  0.00    -0.343 C  
HETATM   10  H   UNL     1     -10.517  16.766  67.109  1.00  0.00     0.000 HD 
HETATM   11  O   UNL     1     -10.750  16.094  66.479  1.00  0.00    -0.302 OA 
ENDBRANCH   6   9
ENDBRANCH   5   6
ENDBRANCH   2   5
BRANCH   4  12
HETATM   12  C   UNL     1      -9.609   9.778  67.094  1.00  0.00    -0.211 A  
HETATM   13  C   UNL     1      -9.830  10.452  68.299  1.00  0.00    -0.154 A  
HETATM   14  C   UNL     1      -9.540   8.348  67.134  1.00  0.00    -0.179 A  
HETATM   15  C   UNL     1      -9.937   7.620  68.299  1.00  0.00    -0.198 A  
HETATM   16  I   UNL     1      -8.770   7.319  65.396  1.00  0.00     0.296 I  
HETATM   17  I   UNL     1      -9.043  12.449  68.539  1.00  0.00     0.187 I  
HETATM   18  C   UNL     1     -10.523   8.370  69.347  1.00  0.00    -0.217 A  
HETATM   19  I   UNL     1     -12.047   7.447  70.566  1.00  0.00     0.201 I  
HETATM   20  C   UNL     1     -10.382   9.784  69.407  1.00  0.00    -0.217 A  
BRANCH  15  21
HETATM   21  C   UNL     1      -9.830   6.102  68.331  1.00  0.00    -0.126 C  
HETATM   22  O   UNL     1     -10.734   5.452  67.799  1.00  0.00    -0.157 OA 
HETATM   23  N   UNL     1      -8.706   5.429  68.855  1.00  0.00    -0.098 N  
HETATM   24  C   UNL     1      -7.800   5.946  69.876  1.00  0.00    -0.096 C  
BRANCH  23  25
HETATM   25  C   UNL     1      -8.550   3.987  68.542  1.00  0.00    -0.094 C  
BRANCH  25  26
HETATM   26  C   UNL     1      -7.660   3.654  67.326  1.00  0.00    -0.078 C  
HETATM   27  H   UNL     1      -7.821   3.537  65.332  1.00  0.00     0.000 HD 
HETATM   28  O   UNL     1      -8.369   3.742  66.081  1.00  0.00    -0.106 OA 
BRANCH  26  29
HETATM   29  C   UNL     1      -6.473   4.625  67.209  1.00  0.00    -0.045 C  
HETATM   30  H   UNL     1      -4.868   4.804  66.082  1.00  0.00     0.000 HD 
HETATM   31  O   UNL     1      -5.601   4.204  66.154  1.00  0.00    -0.016 OA 
ENDBRANCH  26  29
ENDBRANCH  25  26
ENDBRANCH  23  25
ENDBRANCH  15  21
BRANCH  20  32
HETATM   32  N   UNL     1     -10.861  10.579  70.489  1.00  0.00    -0.419 N  
HETATM   33  C   UNL     1     -11.653  11.702  70.289  1.00  0.00    -0.163 C  
HETATM   34  H   UNL     1     -10.614  10.313  71.443  1.00  0.00     0.000 HD 
HETATM   35  H   UNL     1     -13.441   9.663  72.964  1.00  0.00     0.000 HD 
HETATM   36  H   UNL     1     -14.139  14.643  70.369  1.00  0.00     0.000 HD 
HETATM   37  C   UNL     1     -12.191  12.304  71.591  1.00  0.00     0.457 C  
HETATM   38  O   UNL     1     -11.961  12.141  69.182  1.00  0.00    -0.299 OA 
HETATM   39  O   UNL     1     -13.830  13.755  70.513  1.00  0.00     0.512 OA 
HETATM   40  O   UNL     1     -12.745  10.203  72.609  1.00  0.00     0.098 OA 
HETATM   41  C   UNL     1     -13.309  11.436  72.163  1.00  0.00    -0.166 C  
HETATM   42  C   UNL     1     -12.687  13.728  71.361  1.00  0.00    -0.367 C  
ENDBRANCH  20  32
ENDBRANCH   4  12
TORSDOF 9
ENDMDL
MODEL      125
REMARK 921   NORMALIZED FREE ENERGY PREDICTED BY IDOCK:    1.24 KCAL/MOL
REMARK 922        TOTAL FREE ENERGY PREDICTED BY IDOCK:    0.58 KCAL/MOL
REMARK 923 INTER-LIGAND FREE ENERGY PREDICTED BY IDOCK:   -5.36 KCAL/MOL
REMARK 924 INTRA-LIGAND FREE ENERGY PREDICTED BY IDOCK:    5.94 KCAL/MOL
REMARK 927      BINDING AFFINITY PREDICTED BY RF-SCORE:    0.00 PKD
ROOT
HETATM    1  C   UNL     1     -13.045  12.027  71.761  1.00  0.00    -0.355 C  
HETATM    2  N   UNL     1     -12.095  11.708  70.696  1.00  0.00    -0.370 N  
HETATM    3  O   UNL     1     -12.721   9.484  70.832  1.00  0.00    -0.262 OA 
HETATM    4  C   UNL     1     -11.989  10.339  70.346  1.00  0.00    -0.303 C  
ENDROOT
BRANCH   2   5
HETATM    5  C   UNL     1     -11.569  12.858  69.937  1.00  0.00    -0.176 C  
BRANCH   5   6
HETATM    6  C   UNL     1     -11.172  14.128  70.690  1.00  0.00     0.265 C  
HETATM    7  H   UNL     1     -10.718  15.999  70.247  1.00  0.00     0.000 HD 
HETATM    8  O   UNL     1     -10.964  15.210  69.778  1.00  0.00    -0.254 OA 
BRANCH   6   9
HETATM    9  C   UNL     1     -12.326  14.485  71.656  1.00  0.00    -0.350 C  
HETATM   10  H   UNL     1     -13.700  15.908  71.893  1.00  0.00     0.000 HD 
HETATM   11  O   UNL     1     -12.991  15.688  71.300  1.00  0.00    -0.474 OA 
ENDBRANCH   6   9
ENDBRANCH   5   6
ENDBRANCH   2   5
BRANCH   4  12
HETATM   12  C   UNL     1     -10.992   9.869  69.326  1.00  0.00    -0.244 A  
HETATM   13  C   UNL     1     -10.057   8.898  69.701  1.00  0.00    -0.200 A  
HETATM   14  C   UNL     1     -10.895  10.412  68.005  1.00  0.00    -0.270 A  
HETATM   15  C   UNL     1     -10.051   9.810  67.018  1.00  0.00    -0.277 A  
HETATM   16  I   UNL     1     -12.024  12.198  67.555  1.00  0.00     0.530 I  
HETATM   17  I   UNL     1      -9.507   8.726  71.782  1.00  0.00    -0.122 I  
HETATM   18  C   UNL     1      -9.432   8.588  67.372  1.00  0.00    -0.150 A  
HETATM   19  I   UNL     1      -9.082   7.111  65.836  1.00  0.00     0.209 I  
HETATM   20  C   UNL     1      -9.340   8.176  68.730  1.00  0.00    -0.143 A  
BRANCH  15  21
HETATM   21  C   UNL     1      -9.941  10.419  65.627  1.00  0.00    -0.272 C  
HETATM   22  O   UNL     1     -10.129   9.676  64.660  1.00  0.00     0.067 OA 
HETATM   23  N   UNL     1      -9.728  11.797  65.414  1.00  0.00    -0.231 N  
HETATM   24  C   UNL     1      -9.065  12.712  66.337  1.00  0.00    -0.110 C  
BRANCH  23  25
HETATM   25  C   UNL     1      -9.966  12.335  64.052  1.00  0.00    -0.258 C  
BRANCH  25  26
HETATM   26  C   UNL     1     -11.445  12.528  63.652  1.00  0.00    -0.493 C  
HETATM   27  H   UNL     1     -13.265  12.187  64.416  1.00  0.00     0.000 HD 
HETATM   28  O   UNL     1     -12.355  12.069  64.662  1.00  0.00    -0.303 OA 
BRANCH  26  29
HETATM   29  C   UNL     1     -11.781  14.010  63.418  1.00  0.00     0.524 C  
HETATM   30  H   UNL     1     -12.805  15.415  64.344  1.00  0.00     0.000 HD 
HETATM   31  O   UNL     1     -12.598  14.499  64.488  1.00  0.00    -0.644 OA 
ENDBRANCH  26  29
ENDBRANCH  25  26
ENDBRANCH  23  25
ENDBRANCH  15  21
BRANCH  20  32
HETATM   32  N   UNL     1      -8.640   7.009  69.155  1.00  0.00    -0.132 N  
HETATM   33  C   UNL     1      -9.257   5.769  69.251  1.00  0.00    -0.117 C  
HETATM   34  H   UNL     1      -7.651   7.088  69.396  1.00  0.00     0.000 HD 
HETATM   35  H   UNL     1      -6.048   5.156  67.291  1.00  0.00     0.000 HD 
HETATM   36  H   UNL     1     -10.322   2.069  69.350  1.00  0.00     0.000 HD 
HETATM   37  C   UNL     1      -8.282   4.629  69.562  1.00  0.00    -0.070 C  
HETATM   38  O   UNL     1     -10.453   5.576  69.040  1.00  0.00    -0.229 OA 
HETATM   39  O   UNL     1      -9.853   2.836  69.040  1.00  0.00     0.073 OA 
HETATM   40  O   UNL     1      -6.567   5.371  68.058  1.00  0.00    -0.046 OA 
HETATM   41  C   UNL     1      -7.449   4.283  68.331  1.00  0.00    -0.064 C  
HETATM   42  C   UNL     1      -9.035   3.399  70.059  1.00  0.00    -0.104 C  
ENDBRANCH  20  32
ENDBRANCH   4  12
TORSDOF 9
ENDMDL
MODEL      126
REMARK 921   NORMALIZED FREE ENERGY PREDICTED BY IDOCK:    1.38 KCAL/MOL
REMARK 922        TOTAL FREE ENERGY PREDICTED BY IDOCK:    0.81 KCAL/MOL
REMARK 923 INTER-LIGAND FREE ENERGY PREDICTED BY IDOCK:   -2.02 KCAL/MOL
REMARK 924 INTRA-LIGAND FREE ENERGY PREDICTED BY IDOCK:    2.83 KCAL/MOL
REMARK 927      BINDING AFFINITY PREDICTED BY RF-SCORE:    0.00 PKD
ROOT
HETATM    1  C   UNL     1     -11.164  16.147  69.415  1.00  0.00    -0.335 C  
HETATM    2  N   UNL     1     -11.495  14.744  69.171  1.00  0.00    -0.282 N  
HETATM    3  O   UNL     1      -9.237  14.247  69.084  1.00  0.00    -0.031 OA 
HETATM    4  C   UNL     1     -10.398  13.872  68.966  1.00  0.00    -0.096 C  
ENDROOT
BRANCH   2   5
HETATM    5  C   UNL     1     -12.894  14.357  69.436  1.00  0.00     0.503 C  
BRANCH   5   6
HETATM    6  C   UNL     1     -13.645  15.027  70.587  1.00  0.00    -0.087 C  
HETATM    7  H   UNL     1     -14.828  14.471  72.069  1.00  0.00     0.000 HD 
HETATM    8  O   UNL     1     -14.361  14.055  71.354  1.00  0.00    -0.196 OA 
BRANCH   6   9
HETATM    9  C   UNL     1     -12.601  15.724  71.490  1.00  0.00    -0.455 C  
HETATM   10  H   UNL     1     -12.550  16.865  73.123  1.00  0.00     0.000 HD 
HETATM   11  O   UNL     1     -13.191  16.436  72.568  1.00  0.00    -0.093 OA 
ENDBRANCH   6   9
ENDBRANCH   5   6
ENDBRANCH   2   5
BRANCH   4  12
HETATM   12  C   UNL     1     -10.604  12.424  68.624  1.00  0.00    -0.243 A  
HETATM   13  C   UNL     1     -10.352  12.002  67.314  1.00  0.00    -0.212 A  
HETATM   14  C   UNL     1     -11.116  11.458  69.548  1.00  0.00    -0.211 A  
HETATM   15  C   UNL     1     -11.126  10.063  69.231  1.00  0.00    -0.248 A  
HETATM   16  I   UNL     1     -11.921  12.172  71.422  1.00  0.00     1.938 I  
HETATM   17  I   UNL     1     -10.509  13.434  65.706  1.00  0.00    -0.321 I  
HETATM   18  C   UNL     1     -10.486   9.681  68.028  1.00  0.00    -0.229 A  
HETATM   19  I   UNL     1      -9.503   7.761  67.932  1.00  0.00    -0.190 I  
HETATM   20  C   UNL     1     -10.190  10.637  67.016  1.00  0.00    -0.220 A  
BRANCH  15  21
HETATM   21  C   UNL     1     -11.700   9.055  70.216  1.00  0.00     0.014 C  
HETATM   22  O   UNL     1     -12.895   8.763  70.108  1.00  0.00     0.889 OA 
HETATM   23  N   UNL     1     -10.905   8.385  71.170  1.00  0.00    -0.229 N  
HETATM   24  C   UNL     1      -9.656   8.879  71.739  1.00  0.00    -0.282 C  
BRANCH  23  25
HETATM   25  C   UNL     1     -11.483   7.198  71.847  1.00  0.00    -0.270 C  
BRANCH  25  26
HETATM   26  C   UNL     1     -10.576   5.950  71.911  1.00  0.00    -0.231 C  
HETATM   27  H   UNL     1      -8.951   5.224  70.991  1.00  0.00     0.000 HD 
HETATM   28  O   UNL     1      -9.510   5.992  70.952  1.00  0.00    -0.165 OA 
BRANCH  26  29
HETATM   29  C   UNL     1      -9.905   5.808  73.288  1.00  0.00    -0.165 C  
HETATM   30  H   UNL     1     -10.207   6.486  75.112  1.00  0.00     0.000 HD 
HETATM   31  O   UNL     1     -10.622   6.573  74.261  1.00  0.00    -0.269 OA 
ENDBRANCH  26  29
ENDBRANCH  25  26
ENDBRANCH  23  25
ENDBRANCH  15  21
BRANCH  20  32
HETATM   32  N   UNL     1      -9.641  10.295  65.746  1.00  0.00    -0.207 N  
HETATM   33  C   UNL     1      -8.316  10.552  65.419  1.00  0.00    -0.165 C  
HETATM   34  H   UNL     1     -10.242   9.848  65.054  1.00  0.00     0.000 HD 
HETATM   35  H   UNL     1      -8.912   6.913  64.461  1.00  0.00     0.000 HD 
HETATM   36  H   UNL     1      -4.698  10.673  64.104  1.00  0.00     0.000 HD 
HETATM   37  C   UNL     1      -7.898   9.954  64.071  1.00  0.00    -0.145 C  
HETATM   38  O   UNL     1      -7.524  11.137  66.156  1.00  0.00    -0.117 OA 
HETATM   39  O   UNL     1      -5.503  10.272  64.413  1.00  0.00    -0.102 OA 
HETATM   40  O   UNL     1      -9.016   7.855  64.391  1.00  0.00     0.420 OA 
HETATM   41  C   UNL     1      -7.731   8.440  64.184  1.00  0.00    -0.137 C  
HETATM   42  C   UNL     1      -6.606  10.597  63.576  1.00  0.00     0.150 C  
ENDBRANCH  20  32
ENDBRANCH   4  12
TORSDOF 9
ENDMDL
MODEL      127
REMARK 921   NORMALIZED FREE ENERGY PREDICTED BY IDOCK:    1.55 KCAL/MOL
REMARK 922        TOTAL FREE ENERGY PREDICTED BY IDOCK:    1.07 KCAL/MOL
REMARK 923 INTER-LIGAND FREE ENERGY PREDICTED BY IDOCK:   -2.85 KCAL/MOL
REMARK 924 INTRA-LIGAND FREE ENERGY PREDICTED BY IDOCK:    3.91 KCAL/MOL
REMARK 927      BINDING AFFINITY PREDICTED BY RF-SCORE:    0.00 PKD
ROOT
HETATM    1  C   UNL     1     -13.668  15.091  70.130  1.00  0.00     0.838 C  
HETATM    2  N   UNL     1     -12.358  14.651  69.654  1.00  0.00    -0.271 N  
HETATM    3  O   UNL     1     -12.188  16.587  68.397  1.00  0.00     0.446 OA 
HETATM    4  C   UNL     1     -11.720  15.499  68.716  1.00  0.00    -0.357 C  
ENDROOT
BRANCH   2   5
HETATM    5  C   UNL     1     -11.743  13.536  70.399  1.00  0.00    -0.127 C  
BRANCH   5   6
HETATM    6  C   UNL     1     -12.612  12.349  70.812  1.00  0.00    -0.211 C  
HETATM    7  H   UNL     1     -12.374  10.636  71.769  1.00  0.00     0.000 HD 
HETATM    8  O   UNL     1     -11.833  11.374  71.512  1.00  0.00     0.302 OA 
BRANCH   6   9
HETATM    9  C   UNL     1     -13.726  12.880  71.744  1.00  0.00    -0.034 C  
HETATM   10  H   UNL     1     -14.254  12.780  73.663  1.00  0.00     0.000 HD 
HETATM   11  O   UNL     1     -13.570  12.454  73.090  1.00  0.00     0.606 OA 
ENDBRANCH   6   9
ENDBRANCH   5   6
ENDBRANCH   2   5
BRANCH   4  12
HETATM   12  C   UNL     1     -10.409  15.122  68.087  1.00  0.00    -0.239 A  
HETATM   13  C   UNL     1      -9.439  16.115  67.912  1.00  0.00    -0.214 A  
HETATM   14  C   UNL     1     -10.120  13.813  67.585  1.00  0.00    -0.242 A  
HETATM   15  C   UNL     1      -8.801  13.458  67.159  1.00  0.00    -0.225 A  
HETATM   16  I   UNL     1     -11.746  12.397  67.444  1.00  0.00    -0.149 I  
HETATM   17  I   UNL     1     -10.069  18.173  67.737  1.00  0.00    -0.440 I  
HETATM   18  C   UNL     1      -7.782  14.415  67.385  1.00  0.00    -0.185 A  
HETATM   19  I   UNL     1      -5.782  13.727  67.816  1.00  0.00     0.159 I  
HETATM   20  C   UNL     1      -8.098  15.774  67.660  1.00  0.00    -0.147 A  
BRANCH  15  21
HETATM   21  C   UNL     1      -8.520  12.069  66.604  1.00  0.00    -0.117 C  
HETATM   22  O   UNL     1      -7.828  11.308  67.285  1.00  0.00    -0.127 OA 
HETATM   23  N   UNL     1      -9.092  11.600  65.402  1.00  0.00    -0.075 N  
HETATM   24  C   UNL     1      -9.533  12.428  64.285  1.00  0.00     0.315 C  
BRANCH  23  25
HETATM   25  C   UNL     1      -9.026  10.144  65.123  1.00  0.00    -0.192 C  
BRANCH  25  26
HETATM   26  C   UNL     1      -7.610   9.530  65.076  1.00  0.00    -0.113 C  
HETATM   27  H   UNL     1      -6.662   7.887  65.719  1.00  0.00     0.000 HD 
HETATM   28  O   UNL     1      -7.533   8.265  65.749  1.00  0.00    -0.078 OA 
BRANCH  26  29
HETATM   29  C   UNL     1      -7.153   9.271  63.630  1.00  0.00    -0.094 C  
HETATM   30  H   UNL     1      -5.584   8.483  62.738  1.00  0.00     0.000 HD 
HETATM   31  O   UNL     1      -5.867   8.643  63.631  1.00  0.00    -0.070 OA 
ENDBRANCH  26  29
ENDBRANCH  25  26
ENDBRANCH  23  25
ENDBRANCH  15  21
BRANCH  20  32
HETATM   32  N   UNL     1      -7.117  16.799  67.793  1.00  0.00    -0.127 N  
HETATM   33  C   UNL     1      -6.766  17.630  66.737  1.00  0.00    -0.191 C  
HETATM   34  H   UNL     1      -6.657  16.927  68.695  1.00  0.00     0.000 HD 
HETATM   35  H   UNL     1      -7.424  19.955  69.683  1.00  0.00     0.000 HD 
HETATM   36  H   UNL     1      -5.675  20.425  64.322  1.00  0.00     0.000 HD 
HETATM   37  C   UNL     1      -5.820  18.764  67.146  1.00  0.00    -0.157 C  
HETATM   38  O   UNL     1      -7.216  17.525  65.598  1.00  0.00    -0.405 OA 
HETATM   39  O   UNL     1      -6.092  20.044  65.086  1.00  0.00    -0.205 OA 
HETATM   40  O   UNL     1      -6.955  19.288  69.194  1.00  0.00    -0.326 OA 
HETATM   41  C   UNL     1      -6.572  19.835  67.932  1.00  0.00    -0.241 C  
HETATM   42  C   UNL     1      -5.151  19.375  65.919  1.00  0.00    -0.153 C  
ENDBRANCH  20  32
ENDBRANCH   4  12
TORSDOF 9
ENDMDL
MODEL      128
REMARK 921   NORMALIZED FREE ENERGY PREDICTED BY IDOCK:    1.81 KCAL/MOL
REMARK 922        TOTAL FREE ENERGY PREDICTED BY IDOCK:    1.46 KCAL/MOL
REMARK 923 INTER-LIGAND FREE ENERGY PREDICTED BY IDOCK:    1.89 KCAL/MOL
REMARK 924 INTRA-LIGAND FREE ENERGY PREDICTED BY IDOCK:   -0.42 KCAL/MOL
REMARK 927      BINDING AFFINITY PREDICTED BY RF-SCORE:    0.00 PKD
ROOT
HETATM    1  C   UNL     1     -12.830  14.002  66.606  1.00  0.00     0.370 C  
HETATM    2  N   UNL     1     -11.783  13.076  67.034  1.00  0.00    -0.366 N  
HETATM    3  O   UNL     1     -12.585  11.508  65.533  1.00  0.00     0.756 OA 
HETATM    4  C   UNL     1     -11.802  11.794  66.432  1.00  0.00     0.087 C  
ENDROOT
BRANCH   2   5
HETATM    5  C   UNL     1     -10.684  13.666  67.822  1.00  0.00    -0.246 C  
BRANCH   5   6
HETATM    6  C   UNL     1     -10.797  15.119  68.283  1.00  0.00    -0.262 C  
HETATM    7  H   UNL     1     -10.951  16.093  69.996  1.00  0.00     0.000 HD 
HETATM    8  O   UNL     1     -10.881  15.190  69.710  1.00  0.00    -0.261 OA 
BRANCH   6   9
HETATM    9  C   UNL     1      -9.530  15.867  67.807  1.00  0.00    -0.216 C  
HETATM   10  H   UNL     1      -8.139  15.713  66.389  1.00  0.00     0.000 HD 
HETATM   11  O   UNL     1      -8.917  15.254  66.682  1.00  0.00    -0.250 OA 
ENDBRANCH   6   9
ENDBRANCH   5   6
ENDBRANCH   2   5
BRANCH   4  12
HETATM   12  C   UNL     1     -10.833  10.723  66.844  1.00  0.00    -0.288 A  
HETATM   13  C   UNL     1      -9.782  10.401  65.978  1.00  0.00    -0.211 A  
HETATM   14  C   UNL     1     -10.963   9.957  68.047  1.00  0.00    -0.213 A  
HETATM   15  C   UNL     1      -9.922   9.077  68.480  1.00  0.00    -0.193 A  
HETATM   16  I   UNL     1     -12.803  10.132  69.167  1.00  0.00     3.817 I  
HETATM   17  I   UNL     1     -10.022  10.763  63.863  1.00  0.00    -0.272 I  
HETATM   18  C   UNL     1      -8.717   9.107  67.740  1.00  0.00    -0.121 A  
HETATM   19  I   UNL     1      -6.851   8.754  68.768  1.00  0.00    -0.063 I  
HETATM   20  C   UNL     1      -8.666   9.678  66.438  1.00  0.00    -0.134 A  
BRANCH  15  21
HETATM   21  C   UNL     1     -10.093   8.251  69.747  1.00  0.00    -0.197 C  
HETATM   22  O   UNL     1     -10.711   7.187  69.660  1.00  0.00    -0.229 OA 
HETATM   23  N   UNL     1      -9.497   8.609  70.975  1.00  0.00    -0.188 N  
HETATM   24  C   UNL     1      -9.138   9.962  71.389  1.00  0.00     1.671 C  
BRANCH  23  25
HETATM   25  C   UNL     1      -9.444   7.585  72.048  1.00  0.00    -0.140 C  
BRANCH  25  26
HETATM   26  C   UNL     1      -8.102   6.838  72.201  1.00  0.00    -0.100 C  
HETATM   27  H   UNL     1      -6.163   7.269  72.464  1.00  0.00     0.000 HD 
HETATM   28  O   UNL     1      -6.989   7.729  72.369  1.00  0.00    -0.061 OA 
BRANCH  26  29
HETATM   29  C   UNL     1      -8.102   5.920  73.435  1.00  0.00    -0.112 C  
HETATM   30  H   UNL     1      -9.373   5.419  74.854  1.00  0.00     0.000 HD 
HETATM   31  O   UNL     1      -9.372   5.986  74.091  1.00  0.00    -0.128 OA 
ENDBRANCH  26  29
ENDBRANCH  25  26
ENDBRANCH  23  25
ENDBRANCH  15  21
BRANCH  20  32
HETATM   32  N   UNL     1      -7.509   9.645  65.607  1.00  0.00    -0.098 N  
HETATM   33  C   UNL     1      -7.059   8.473  65.011  1.00  0.00    -0.079 C  
HETATM   34  H   UNL     1      -6.994  10.510  65.444  1.00  0.00     0.000 HD 
HETATM   35  H   UNL     1      -7.149  11.064  62.219  1.00  0.00     0.000 HD 
HETATM   36  H   UNL     1      -5.582   5.661  62.834  1.00  0.00     0.000 HD 
HETATM   37  C   UNL     1      -5.904   8.698  64.029  1.00  0.00    -0.070 C  
HETATM   38  O   UNL     1      -7.571   7.369  65.188  1.00  0.00    -0.090 OA 
HETATM   39  O   UNL     1      -6.027   6.480  63.020  1.00  0.00    -0.029 OA 
HETATM   40  O   UNL     1      -6.833  10.668  63.023  1.00  0.00    -0.072 OA 
HETATM   41  C   UNL     1      -6.412   9.334  62.738  1.00  0.00    -0.093 C  
HETATM   42  C   UNL     1      -5.189   7.384  63.731  1.00  0.00    -0.033 C  
ENDBRANCH  20  32
ENDBRANCH   4  12
TORSDOF 9
ENDMDL
MODEL      129
REMARK 921   NORMALIZED FREE ENERGY PREDICTED BY IDOCK:    2.09 KCAL/MOL
REMARK 922        TOTAL FREE ENERGY PREDICTED BY IDOCK:    1.89 KCAL/MOL
REMARK 923 INTER-LIGAND FREE ENERGY PREDICTED BY IDOCK:   -1.30 KCAL/MOL
REMARK 924 INTRA-LIGAND FREE ENERGY PREDICTED BY IDOCK:    3.19 KCAL/MOL
REMARK 927      BINDING AFFINITY PREDICTED BY RF-SCORE:    0.00 PKD
ROOT
HETATM    1  C   UNL     1     -13.192  14.020  65.293  1.00  0.00     0.062 C  
HETATM    2  N   UNL     1     -12.005  13.516  65.983  1.00  0.00    -0.385 N  
HETATM    3  O   UNL     1     -10.670  14.612  64.443  1.00  0.00    -0.234 OA 
HETATM    4  C   UNL     1     -10.757  13.857  65.405  1.00  0.00    -0.325 C  
ENDROOT
BRANCH   2   5
HETATM    5  C   UNL     1     -12.233  12.955  67.328  1.00  0.00    -0.055 C  
BRANCH   5   6
HETATM    6  C   UNL     1     -11.828  13.774  68.554  1.00  0.00    -0.370 C  
HETATM    7  H   UNL     1     -12.647  15.139  69.724  1.00  0.00     0.000 HD 
HETATM    8  O   UNL     1     -12.899  14.631  68.962  1.00  0.00     0.278 OA 
BRANCH   6   9
HETATM    9  C   UNL     1     -11.499  12.785  69.696  1.00  0.00    -0.185 C  
HETATM   10  H   UNL     1     -12.423  11.417  70.812  1.00  0.00     0.000 HD 
HETATM   11  O   UNL     1     -12.625  12.025  70.110  1.00  0.00    -0.081 OA 
ENDBRANCH   6   9
ENDBRANCH   5   6
ENDBRANCH   2   5
BRANCH   4  12
HETATM   12  C   UNL     1      -9.467  13.335  65.968  1.00  0.00    -0.098 A  
HETATM   13  C   UNL     1      -8.619  14.224  66.637  1.00  0.00     0.015 A  
HETATM   14  C   UNL     1      -9.017  11.986  65.797  1.00  0.00     0.101 A  
HETATM   15  C   UNL     1      -7.873  11.493  66.500  1.00  0.00    -0.071 A  
HETATM   16  I   UNL     1     -10.089  10.727  64.406  1.00  0.00    -0.292 I  
HETATM   17  I   UNL     1      -8.709  16.324  66.146  1.00  0.00     0.071 I  
HETATM   18  C   UNL     1      -7.300  12.356  67.464  1.00  0.00    -0.146 A  
HETATM   19  I   UNL     1      -6.394  11.498  69.227  1.00  0.00    -0.120 I  
HETATM   20  C   UNL     1      -7.590  13.748  67.471  1.00  0.00    -0.173 A  
BRANCH  15  21
HETATM   21  C   UNL     1      -7.396  10.064  66.284  1.00  0.00    -0.106 C  
HETATM   22  O   UNL     1      -7.645   9.236  67.164  1.00  0.00    -0.091 OA 
HETATM   23  N   UNL     1      -6.771   9.643  65.090  1.00  0.00    -0.088 N  
HETATM   24  C   UNL     1      -6.016  10.492  64.175  1.00  0.00    -0.045 C  
BRANCH  23  25
HETATM   25  C   UNL     1      -6.648   8.184  64.847  1.00  0.00    -0.055 C  
BRANCH  25  26
HETATM   26  C   UNL     1      -7.914   7.480  64.314  1.00  0.00    -0.109 C  
HETATM   27  H   UNL     1      -8.971   7.373  62.616  1.00  0.00     0.000 HD 
HETATM   28  O   UNL     1      -8.192   7.806  62.945  1.00  0.00    -0.131 OA 
BRANCH  26  29
HETATM   29  C   UNL     1      -7.775   5.949  64.366  1.00  0.00    -0.099 C  
HETATM   30  H   UNL     1      -7.626   4.474  63.069  1.00  0.00     0.000 HD 
HETATM   31  O   UNL     1      -7.711   5.420  63.037  1.00  0.00    -0.067 OA 
ENDBRANCH  26  29
ENDBRANCH  25  26
ENDBRANCH  23  25
ENDBRANCH  15  21
BRANCH  20  32
HETATM   32  N   UNL     1      -6.965  14.680  68.350  1.00  0.00    -0.105 N  
HETATM   33  C   UNL     1      -6.506  15.916  67.913  1.00  0.00    -0.146 C  
HETATM   34  H   UNL     1      -6.851  14.430  69.333  1.00  0.00     0.000 HD 
HETATM   35  H   UNL     1      -8.567  16.642  71.034  1.00  0.00     0.000 HD 
HETATM   36  H   UNL     1      -5.396  19.563  67.368  1.00  0.00     0.000 HD 
HETATM   37  C   UNL     1      -6.024  16.820  69.053  1.00  0.00    -0.163 C  
HETATM   38  O   UNL     1      -6.542  16.291  66.743  1.00  0.00    -0.255 OA 
HETATM   39  O   UNL     1      -5.930  18.853  67.707  1.00  0.00    -0.196 OA 
HETATM   40  O   UNL     1      -7.829  16.298  70.545  1.00  0.00     1.714 OA 
HETATM   41  C   UNL     1      -7.210  17.373  69.839  1.00  0.00     0.800 C  
HETATM   42  C   UNL     1      -5.167  17.959  68.509  1.00  0.00    -0.149 C  
ENDBRANCH  20  32
ENDBRANCH   4  12
TORSDOF 9
ENDMDL
MODEL      130
REMARK 921   NORMALIZED FREE ENERGY PREDICTED BY IDOCK:    2.21 KCAL/MOL
REMARK 922        TOTAL FREE ENERGY PREDICTED BY IDOCK:    2.08 KCAL/MOL
REMARK 923 INTER-LIGAND FREE ENERGY PREDICTED BY IDOCK:   -2.24 KCAL/MOL
REMARK 924 INTRA-LIGAND FREE ENERGY PREDICTED BY IDOCK:    4.31 KCAL/MOL
REMARK 927      BINDING AFFINITY PREDICTED BY RF-SCORE:    0.00 PKD
ROOT
HETATM    1  C   UNL     1      -8.295   7.988  74.111  1.00  0.00    -0.253 C  
HETATM    2  N   UNL     1      -8.146   8.070  72.658  1.00  0.00    -0.133 N  
HETATM    3  O   UNL     1      -6.892   6.125  72.698  1.00  0.00    -0.071 OA 
HETATM    4  C   UNL     1      -7.349   7.065  72.057  1.00  0.00    -0.082 C  
ENDROOT
BRANCH   2   5
HETATM    5  C   UNL     1      -9.052   9.010  71.970  1.00  0.00     0.100 C  
BRANCH   5   6
HETATM    6  C   UNL     1     -10.552   8.940  72.256  1.00  0.00    -0.151 C  
HETATM    7  H   UNL     1     -12.183   9.907  71.699  1.00  0.00     0.000 HD 
HETATM    8  O   UNL     1     -11.251   9.950  71.522  1.00  0.00    -0.322 OA 
BRANCH   6   9
HETATM    9  C   UNL     1     -11.054   7.546  71.813  1.00  0.00    -0.241 C  
HETATM   10  H   UNL     1     -12.637   6.733  70.919  1.00  0.00     0.000 HD 
HETATM   11  O   UNL     1     -12.329   7.590  71.191  1.00  0.00    -0.320 OA 
ENDBRANCH   6   9
ENDBRANCH   5   6
ENDBRANCH   2   5
BRANCH   4  12
HETATM   12  C   UNL     1      -7.049   7.083  70.586  1.00  0.00    -0.067 A  
HETATM   13  C   UNL     1      -6.695   5.883  69.959  1.00  0.00    -0.052 A  
HETATM   14  C   UNL     1      -7.034   8.277  69.795  1.00  0.00    -0.048 A  
HETATM   15  C   UNL     1      -6.918   8.219  68.370  1.00  0.00    -0.073 A  
HETATM   16  I   UNL     1      -7.141  10.176  70.821  1.00  0.00     1.003 I  
HETATM   17  I   UNL     1      -5.792   4.315  71.138  1.00  0.00    -0.014 I  
HETATM   18  C   UNL     1      -6.958   6.933  67.781  1.00  0.00    -0.083 A  
HETATM   19  I   UNL     1      -7.843   6.706  65.825  1.00  0.00    -0.124 I  
HETATM   20  C   UNL     1      -6.741   5.761  68.559  1.00  0.00    -0.057 A  
BRANCH  15  21
HETATM   21  C   UNL     1      -6.877   9.501  67.550  1.00  0.00    -0.083 C  
HETATM   22  O   UNL     1      -5.787  10.066  67.424  1.00  0.00    -0.052 OA 
HETATM   23  N   UNL     1      -8.004  10.003  66.865  1.00  0.00    -0.112 N  
HETATM   24  C   UNL     1      -9.398   9.769  67.227  1.00  0.00    -0.138 C  
BRANCH  23  25
HETATM   25  C   UNL     1      -7.783  11.054  65.841  1.00  0.00    -0.012 C  
BRANCH  25  26
HETATM   26  C   UNL     1      -8.131  10.663  64.389  1.00  0.00     0.044 C  
HETATM   27  H   UNL     1      -7.430   9.462  62.947  1.00  0.00     0.000 HD 
HETATM   28  O   UNL     1      -7.216   9.703  63.840  1.00  0.00    -0.105 OA 
BRANCH  26  29
HETATM   29  C   UNL     1      -9.527  10.024  64.292  1.00  0.00    -0.273 C  
HETATM   30  H   UNL     1     -11.377  10.646  64.031  1.00  0.00     0.000 HD 
HETATM   31  O   UNL     1     -10.515  11.040  64.090  1.00  0.00    -0.345 OA 
ENDBRANCH  26  29
ENDBRANCH  25  26
ENDBRANCH  23  25
ENDBRANCH  15  21
BRANCH  20  32
HETATM   32  N   UNL     1      -6.667   4.450  68.004  1.00  0.00    -0.046 N  
HETATM   33  C   UNL     1      -7.801   3.738  67.633  1.00  0.00    -0.081 C  
HETATM   34  H   UNL     1      -5.751   4.020  67.876  1.00  0.00     0.000 HD 
HETATM   35  H   UNL     1      -5.434   3.505  64.656  1.00  0.00     0.000 HD 
HETATM   36  H   UNL     1     -10.515   1.476  66.102  1.00  0.00     0.000 HD 
HETATM   37  C   UNL     1      -7.482   2.426  66.908  1.00  0.00    -0.065 C  
HETATM   38  O   UNL     1      -8.951   4.139  67.798  1.00  0.00    -0.108 OA 
HETATM   39  O   UNL     1      -9.756   2.048  66.109  1.00  0.00     0.307 OA 
HETATM   40  O   UNL     1      -5.729   3.334  65.543  1.00  0.00    -0.017 OA 
HETATM   41  C   UNL     1      -7.007   2.701  65.483  1.00  0.00    -0.052 C  
HETATM   42  C   UNL     1      -8.700   1.509  66.897  1.00  0.00    -0.110 C  
ENDBRANCH  20  32
ENDBRANCH   4  12
TORSDOF 9
ENDMDL
MODEL      131
REMARK 921   NORMALIZED FREE ENERGY PREDICTED BY IDOCK:    2.22 KCAL/MOL
REMARK 922        TOTAL FREE ENERGY PREDICTED BY IDOCK:    2.08 KCAL/MOL
REMARK 923 INTER-LIGAND FREE ENERGY PREDICTED BY IDOCK:   -3.65 KCAL/MOL
REMARK 924 INTRA-LIGAND FREE ENERGY PREDICTED BY IDOCK:    5.74 KCAL/MOL
REMARK 927      BINDING AFFINITY PREDICTED BY RF-SCORE:    0.00 PKD
ROOT
HETATM    1  C   UNL     1     -13.239  12.496  65.721  1.00  0.00     2.108 C  
HETATM    2  N   UNL     1     -11.842  12.708  66.096  1.00  0.00    -0.414 N  
HETATM    3  O   UNL     1     -12.150  11.341  67.937  1.00  0.00    -0.634 OA 
HETATM    4  C   UNL     1     -11.420  12.091  67.299  1.00  0.00    -0.335 C  
ENDROOT
BRANCH   2   5
HETATM    5  C   UNL     1     -10.979  13.300  65.056  1.00  0.00    -0.313 C  
BRANCH   5   6
HETATM    6  C   UNL     1     -10.889  14.822  64.942  1.00  0.00    -0.416 C  
HETATM    7  H   UNL     1      -9.575  16.157  64.312  1.00  0.00     0.000 HD 
HETATM    8  O   UNL     1      -9.631  15.211  64.383  1.00  0.00     0.735 OA 
BRANCH   6   9
HETATM    9  C   UNL     1     -12.031  15.295  64.013  1.00  0.00     0.000 C  
HETATM   10  H   UNL     1     -12.810  16.999  63.338  1.00  0.00     0.000 HD 
HETATM   11  O   UNL     1     -12.109  16.709  63.908  1.00  0.00    -0.692 OA 
ENDBRANCH   6   9
ENDBRANCH   5   6
ENDBRANCH   2   5
BRANCH   4  12
HETATM   12  C   UNL     1     -10.034  12.297  67.839  1.00  0.00    -0.202 A  
HETATM   13  C   UNL     1      -9.305  11.181  68.262  1.00  0.00    -0.176 A  
HETATM   14  C   UNL     1      -9.437  13.587  68.015  1.00  0.00    -0.220 A  
HETATM   15  C   UNL     1      -8.056  13.722  68.363  1.00  0.00    -0.148 A  
HETATM   16  I   UNL     1     -10.696  15.329  67.786  1.00  0.00    -0.306 I  
HETATM   17  I   UNL     1     -10.374   9.422  68.917  1.00  0.00    -0.222 I  
HETATM   18  C   UNL     1      -7.289  12.533  68.389  1.00  0.00    -0.114 A  
HETATM   19  I   UNL     1      -5.204  12.623  67.835  1.00  0.00    -0.095 I  
HETATM   20  C   UNL     1      -7.912  11.256  68.444  1.00  0.00    -0.140 A  
BRANCH  15  21
HETATM   21  C   UNL     1      -7.448  15.102  68.571  1.00  0.00    -0.121 C  
HETATM   22  O   UNL     1      -6.302  15.293  68.155  1.00  0.00    -0.106 OA 
HETATM   23  N   UNL     1      -8.172  16.176  69.131  1.00  0.00    -0.240 N  
HETATM   24  C   UNL     1      -9.300  16.060  70.049  1.00  0.00     0.489 C  
BRANCH  23  25
HETATM   25  C   UNL     1      -7.611  17.543  68.987  1.00  0.00    -0.161 C  
BRANCH  25  26
HETATM   26  C   UNL     1      -7.835  18.223  67.619  1.00  0.00    -0.229 C  
HETATM   27  H   UNL     1      -8.022  17.701  65.694  1.00  0.00     0.000 HD 
HETATM   28  O   UNL     1      -7.883  17.283  66.535  1.00  0.00    -0.233 OA 
BRANCH  26  29
HETATM   29  C   UNL     1      -9.169  18.987  67.578  1.00  0.00    -0.287 C  
HETATM   30  H   UNL     1     -10.402  19.796  68.883  1.00  0.00     0.000 HD 
HETATM   31  O   UNL     1      -9.578  19.324  68.908  1.00  0.00    -0.396 OA 
ENDBRANCH  26  29
ENDBRANCH  25  26
ENDBRANCH  23  25
ENDBRANCH  15  21
BRANCH  20  32
HETATM   32  N   UNL     1      -7.193  10.033  68.576  1.00  0.00    -0.075 N  
HETATM   33  C   UNL     1      -6.865   9.497  69.815  1.00  0.00    -0.064 C  
HETATM   34  H   UNL     1      -6.911   9.534  67.733  1.00  0.00     0.000 HD 
HETATM   35  H   UNL     1      -8.421   6.629  67.849  1.00  0.00     0.000 HD 
HETATM   36  H   UNL     1      -6.016   7.377  72.916  1.00  0.00     0.000 HD 
HETATM   37  C   UNL     1      -6.243   8.099  69.725  1.00  0.00    -0.029 C  
HETATM   38  O   UNL     1      -7.106  10.045  70.889  1.00  0.00    -0.337 OA 
HETATM   39  O   UNL     1      -6.457   7.601  72.104  1.00  0.00    -0.049 OA 
HETATM   40  O   UNL     1      -7.758   7.277  68.055  1.00  0.00    -0.111 OA 
HETATM   41  C   UNL     1      -7.308   7.058  69.392  1.00  0.00    -0.091 C  
HETATM   42  C   UNL     1      -5.536   7.741  71.028  1.00  0.00    -0.030 C  
ENDBRANCH  20  32
ENDBRANCH   4  12
TORSDOF 9
ENDMDL
MODEL      132
REMARK 921   NORMALIZED FREE ENERGY PREDICTED BY IDOCK:    2.34 KCAL/MOL
REMARK 922        TOTAL FREE ENERGY PREDICTED BY IDOCK:    2.28 KCAL/MOL
REMARK 923 INTER-LIGAND FREE ENERGY PREDICTED BY IDOCK:   -0.71 KCAL/MOL
REMARK 924 INTRA-LIGAND FREE ENERGY PREDICTED BY IDOCK:    2.99 KCAL/MOL
REMARK 927      BINDING AFFINITY PREDICTED BY RF-SCORE:    0.00 PKD
ROOT
HETATM    1  C   UNL     1     -10.237   5.178  72.129  1.00  0.00    -0.202 C  
HETATM    2  N   UNL     1      -9.917   6.280  71.222  1.00  0.00    -0.179 N  
HETATM    3  O   UNL     1     -12.045   6.130  70.324  1.00  0.00    -0.009 OA 
HETATM    4  C   UNL     1     -10.930   6.640  70.299  1.00  0.00    -0.303 C  
ENDROOT
BRANCH   2   5
HETATM    5  C   UNL     1      -8.705   7.054  71.551  1.00  0.00    -0.121 C  
BRANCH   5   6
HETATM    6  C   UNL     1      -8.813   8.570  71.716  1.00  0.00    -0.211 C  
HETATM    7  H   UNL     1      -9.257   9.847  73.157  1.00  0.00     0.000 HD 
HETATM    8  O   UNL     1      -9.190   8.905  73.054  1.00  0.00    -0.146 OA 
BRANCH   6   9
HETATM    9  C   UNL     1      -7.426   9.179  71.406  1.00  0.00     0.023 C  
HETATM   10  H   UNL     1      -6.641  10.651  70.317  1.00  0.00     0.000 HD 
HETATM   11  O   UNL     1      -7.493  10.277  70.507  1.00  0.00    -0.250 OA 
ENDBRANCH   6   9
ENDBRANCH   5   6
ENDBRANCH   2   5
BRANCH   4  12
HETATM   12  C   UNL     1     -10.699   7.699  69.260  1.00  0.00    -0.169 A  
HETATM   13  C   UNL     1      -9.797   7.435  68.223  1.00  0.00    -0.160 A  
HETATM   14  C   UNL     1     -11.297   8.999  69.307  1.00  0.00     0.310 A  
HETATM   15  C   UNL     1     -11.187   9.905  68.205  1.00  0.00    -0.137 A  
HETATM   16  I   UNL     1     -12.333   9.575  71.114  1.00  0.00    -0.367 I  
HETATM   17  I   UNL     1      -8.212   6.006  68.555  1.00  0.00    -0.109 I  
HETATM   18  C   UNL     1     -10.581   9.403  67.029  1.00  0.00    -0.201 A  
HETATM   19  I   UNL     1     -11.256  10.133  65.113  1.00  0.00     3.903 I  
HETATM   20  C   UNL     1      -9.794   8.218  67.055  1.00  0.00    -0.232 A  
BRANCH  15  21
HETATM   21  C   UNL     1     -11.807  11.292  68.286  1.00  0.00    -0.229 C  
HETATM   22  O   UNL     1     -12.881  11.407  68.883  1.00  0.00     0.131 OA 
HETATM   23  N   UNL     1     -11.159  12.445  67.793  1.00  0.00    -0.233 N  
HETATM   24  C   UNL     1     -10.172  12.478  66.719  1.00  0.00    -0.231 C  
BRANCH  23  25
HETATM   25  C   UNL     1     -11.683  13.769  68.212  1.00  0.00    -0.359 C  
BRANCH  25  26
HETATM   26  C   UNL     1     -10.772  14.589  69.150  1.00  0.00    -0.252 C  
HETATM   27  H   UNL     1     -10.438  14.800  71.114  1.00  0.00     0.000 HD 
HETATM   28  O   UNL     1     -10.999  14.296  70.536  1.00  0.00     0.098 OA 
BRANCH  26  29
HETATM   29  C   UNL     1      -9.284  14.296  68.893  1.00  0.00    -0.044 C  
HETATM   30  H   UNL     1      -7.797  15.153  67.927  1.00  0.00     0.000 HD 
HETATM   31  O   UNL     1      -8.716  15.334  68.086  1.00  0.00    -0.157 OA 
ENDBRANCH  26  29
ENDBRANCH  25  26
ENDBRANCH  23  25
ENDBRANCH  15  21
BRANCH  20  32
HETATM   32  N   UNL     1      -9.077   7.723  65.927  1.00  0.00    -0.351 N  
HETATM   33  C   UNL     1      -7.916   8.330  65.463  1.00  0.00    -0.120 C  
HETATM   34  H   UNL     1      -9.427   6.896  65.444  1.00  0.00     0.000 HD 
HETATM   35  H   UNL     1      -7.088   4.621  65.728  1.00  0.00     0.000 HD 
HETATM   36  H   UNL     1      -4.511   9.346  63.979  1.00  0.00     0.000 HD 
HETATM   37  C   UNL     1      -7.222   7.538  64.350  1.00  0.00    -0.081 C  
HETATM   38  O   UNL     1      -7.441   9.361  65.935  1.00  0.00    -0.096 OA 
HETATM   39  O   UNL     1      -5.134   8.797  64.442  1.00  0.00    -0.042 OA 
HETATM   40  O   UNL     1      -7.521   5.387  65.372  1.00  0.00    -0.074 OA 
HETATM   41  C   UNL     1      -6.525   6.305  64.921  1.00  0.00    -0.038 C  
HETATM   42  C   UNL     1      -6.222   8.418  63.607  1.00  0.00    -0.073 C  
ENDBRANCH  20  32
ENDBRANCH   4  12
TORSDOF 9
ENDMDL
MODEL      133
REMARK 921   NORMALIZED FREE ENERGY PREDICTED BY IDOCK:    2.45 KCAL/MOL
REMARK 922        TOTAL FREE ENERGY PREDICTED BY IDOCK:    2.44 KCAL/MOL
REMARK 923 INTER-LIGAND FREE ENERGY PREDICTED BY IDOCK:   -1.26 KCAL/MOL
REMARK 924 INTRA-LIGAND FREE ENERGY PREDICTED BY IDOCK:    3.70 KCAL/MOL
REMARK 927      BINDING AFFINITY PREDICTED BY RF-SCORE:    0.00 PKD
ROOT
HETATM    1  C   UNL     1      -6.474  10.575  65.839  1.00  0.00    -0.127 C  
HETATM    2  N   UNL     1      -7.286  11.195  66.885  1.00  0.00    -0.130 N  
HETATM    3  O   UNL     1      -9.123  11.107  65.481  1.00  0.00    -0.206 OA 
HETATM    4  C   UNL     1      -8.635  11.464  66.548  1.00  0.00    -0.175 C  
ENDROOT
BRANCH   2   5
HETATM    5  C   UNL     1      -6.691  11.216  68.235  1.00  0.00    -0.059 C  
BRANCH   5   6
HETATM    6  C   UNL     1      -7.231  10.262  69.300  1.00  0.00    -0.093 C  
HETATM    7  H   UNL     1      -7.609   8.330  69.464  1.00  0.00     0.000 HD 
HETATM    8  O   UNL     1      -7.274   8.922  68.802  1.00  0.00    -0.072 OA 
BRANCH   6   9
HETATM    9  C   UNL     1      -6.279  10.325  70.518  1.00  0.00    -0.116 C  
HETATM   10  H   UNL     1      -4.639  11.298  71.093  1.00  0.00     0.000 HD 
HETATM   11  O   UNL     1      -5.223  11.260  70.346  1.00  0.00    -0.078 OA 
ENDBRANCH   6   9
ENDBRANCH   5   6
ENDBRANCH   2   5
BRANCH   4  12
HETATM   12  C   UNL     1      -9.552  12.173  67.503  1.00  0.00    -0.179 A  
HETATM   13  C   UNL     1     -10.240  11.417  68.458  1.00  0.00    -0.208 A  
HETATM   14  C   UNL     1      -9.821  13.578  67.446  1.00  0.00    -0.227 A  
HETATM   15  C   UNL     1     -10.559  14.233  68.482  1.00  0.00    -0.260 A  
HETATM   16  I   UNL     1      -9.122  14.677  65.722  1.00  0.00     1.207 I  
HETATM   17  I   UNL     1     -10.649   9.337  68.048  1.00  0.00    -0.107 I  
HETATM   18  C   UNL     1     -10.886  13.454  69.618  1.00  0.00     0.244 A  
HETATM   19  I   UNL     1     -10.978  14.414  71.550  1.00  0.00     2.689 I  
HETATM   20  C   UNL     1     -10.828  12.034  69.578  1.00  0.00     0.094 A  
BRANCH  15  21
HETATM   21  C   UNL     1     -10.857  15.722  68.389  1.00  0.00    -0.297 C  
HETATM   22  O   UNL     1     -10.807  16.384  69.430  1.00  0.00    -0.294 OA 
HETATM   23  N   UNL     1     -11.092  16.376  67.161  1.00  0.00    -0.068 N  
HETATM   24  C   UNL     1     -11.618  15.756  65.949  1.00  0.00     0.390 C  
BRANCH  23  25
HETATM   25  C   UNL     1     -11.043  17.859  67.142  1.00  0.00     0.205 C  
BRANCH  25  26
HETATM   26  C   UNL     1     -10.104  18.489  66.090  1.00  0.00    -0.368 C  
HETATM   27  H   UNL     1     -10.232  19.658  64.468  1.00  0.00     0.000 HD 
HETATM   28  O   UNL     1     -10.810  19.270  65.115  1.00  0.00    -0.445 OA 
BRANCH  26  29
HETATM   29  C   UNL     1      -9.083  19.440  66.739  1.00  0.00    -0.334 C  
HETATM   30  H   UNL     1      -7.122  19.612  66.810  1.00  0.00     0.000 HD 
HETATM   31  O   UNL     1      -7.753  19.025  66.410  1.00  0.00    -0.253 OA 
ENDBRANCH  26  29
ENDBRANCH  25  26
ENDBRANCH  23  25
ENDBRANCH  15  21
BRANCH  20  32
HETATM   32  N   UNL     1     -11.242  11.197  70.654  1.00  0.00    -0.264 N  
HETATM   33  C   UNL     1     -12.383  10.407  70.581  1.00  0.00    -0.346 C  
HETATM   34  H   UNL     1     -10.683  11.177  71.507  1.00  0.00     0.000 HD 
HETATM   35  H   UNL     1      -9.623   8.094  71.826  1.00  0.00     0.000 HD 
HETATM   36  H   UNL     1     -15.181   7.771  70.811  1.00  0.00     0.000 HD 
HETATM   37  C   UNL     1     -12.546   9.466  71.780  1.00  0.00    -0.470 C  
HETATM   38  O   UNL     1     -13.156  10.400  69.626  1.00  0.00     0.037 OA 
HETATM   39  O   UNL     1     -14.289   8.097  70.760  1.00  0.00     0.051 OA 
HETATM   40  O   UNL     1     -10.238   8.816  71.882  1.00  0.00    -0.301 OA 
HETATM   41  C   UNL     1     -11.557   8.306  71.690  1.00  0.00    -0.284 C  
HETATM   42  C   UNL     1     -13.976   8.942  71.861  1.00  0.00    -0.419 C  
ENDBRANCH  20  32
ENDBRANCH   4  12
TORSDOF 9
ENDMDL
MODEL      134
REMARK 921   NORMALIZED FREE ENERGY PREDICTED BY IDOCK:    2.49 KCAL/MOL
REMARK 922        TOTAL FREE ENERGY PREDICTED BY IDOCK:    2.49 KCAL/MOL
REMARK 923 INTER-LIGAND FREE ENERGY PREDICTED BY IDOCK:   -2.95 KCAL/MOL
REMARK 924 INTRA-LIGAND FREE ENERGY PREDICTED BY IDOCK:    5.45 KCAL/MOL
REMARK 927      BINDING AFFINITY PREDICTED BY RF-SCORE:    0.00 PKD
ROOT
HETATM    1  C   UNL     1      -8.762   4.313  73.573  1.00  0.00    -0.091 C  
HETATM    2  N   UNL     1      -8.804   4.842  72.210  1.00  0.00    -0.127 N  
HETATM    3  O   UNL     1     -10.255   6.499  72.921  1.00  0.00    -0.179 OA 
HETATM    4  C   UNL     1      -9.660   5.951  71.999  1.00  0.00    -0.149 C  
ENDROOT
BRANCH   2   5
HETATM    5  C   UNL     1      -7.761   4.344  71.294  1.00  0.00    -0.079 C  
BRANCH   5   6
HETATM    6  C   UNL     1      -6.841   5.347  70.598  1.00  0.00    -0.048 C  
HETATM    7  H   UNL     1      -5.915   7.031  71.059  1.00  0.00     0.000 HD 
HETATM    8  O   UNL     1      -6.487   6.407  71.491  1.00  0.00    -0.048 OA 
BRANCH   6   9
HETATM    9  C   UNL     1      -5.562   4.593  70.165  1.00  0.00    -0.012 C  
HETATM   10  H   UNL     1      -4.580   4.139  68.492  1.00  0.00     0.000 HD 
HETATM   11  O   UNL     1      -5.366   4.602  68.758  1.00  0.00    -0.010 OA 
ENDBRANCH   6   9
ENDBRANCH   5   6
ENDBRANCH   2   5
BRANCH   4  12
HETATM   12  C   UNL     1      -9.857   6.536  70.630  1.00  0.00    -0.201 A  
HETATM   13  C   UNL     1     -10.131   7.904  70.519  1.00  0.00    -0.192 A  
HETATM   14  C   UNL     1      -9.853   5.758  69.428  1.00  0.00    -0.167 A  
HETATM   15  C   UNL     1      -9.867   6.383  68.142  1.00  0.00    -0.127 A  
HETATM   16  I   UNL     1      -9.874   3.605  69.613  1.00  0.00     0.702 I  
HETATM   17  I   UNL     1     -11.066   8.921  72.178  1.00  0.00     0.126 I  
HETATM   18  C   UNL     1      -9.748   7.793  68.120  1.00  0.00    -0.155 A  
HETATM   19  I   UNL     1      -8.723   8.729  66.466  1.00  0.00    -0.179 I  
HETATM   20  C   UNL     1      -9.983   8.569  69.288  1.00  0.00    -0.195 A  
BRANCH  15  21
HETATM   21  C   UNL     1      -9.890   5.537  66.877  1.00  0.00    -0.163 C  
HETATM   22  O   UNL     1     -10.972   5.059  66.525  1.00  0.00    -0.130 OA 
HETATM   23  N   UNL     1      -8.755   5.363  66.057  1.00  0.00    -0.132 N  
HETATM   24  C   UNL     1      -7.365   5.447  66.492  1.00  0.00    -0.086 C  
BRANCH  23  25
HETATM   25  C   UNL     1      -8.959   4.808  64.695  1.00  0.00    -0.138 C  
BRANCH  25  26
HETATM   26  C   UNL     1      -8.351   3.412  64.439  1.00  0.00    -0.093 C  
HETATM   27  H   UNL     1      -8.975   1.529  64.165  1.00  0.00     0.000 HD 
HETATM   28  O   UNL     1      -9.349   2.388  64.323  1.00  0.00    -0.122 OA 
BRANCH  26  29
HETATM   29  C   UNL     1      -7.550   3.376  63.126  1.00  0.00    -0.059 C  
HETATM   30  H   UNL     1      -6.215   4.509  62.225  1.00  0.00     0.000 HD 
HETATM   31  O   UNL     1      -6.710   4.531  63.036  1.00  0.00    -0.029 OA 
ENDBRANCH  26  29
ENDBRANCH  25  26
ENDBRANCH  23  25
ENDBRANCH  15  21
BRANCH  20  32
HETATM   32  N   UNL     1      -9.979   9.995  69.302  1.00  0.00    -0.201 N  
HETATM   33  C   UNL     1      -8.879  10.736  68.888  1.00  0.00    -0.150 C  
HETATM   34  H   UNL     1     -10.812  10.487  69.626  1.00  0.00     0.000 HD 
HETATM   35  H   UNL     1     -11.868  12.257  67.080  1.00  0.00     0.000 HD 
HETATM   36  H   UNL     1      -6.320  13.276  67.537  1.00  0.00     0.000 HD 
HETATM   37  C   UNL     1      -9.152  12.242  68.827  1.00  0.00     0.129 C  
HETATM   38  O   UNL     1      -7.809  10.243  68.535  1.00  0.00    -0.091 OA 
HETATM   39  O   UNL     1      -7.136  12.789  67.567  1.00  0.00    -0.128 OA 
HETATM   40  O   UNL     1     -11.327  12.045  67.832  1.00  0.00    -0.261 OA 
HETATM   41  C   UNL     1     -10.022  12.582  67.619  1.00  0.00    -0.201 C  
HETATM   42  C   UNL     1      -7.844  13.024  68.779  1.00  0.00     0.033 C  
ENDBRANCH  20  32
ENDBRANCH   4  12
TORSDOF 9
ENDMDL
MODEL      135
REMARK 921   NORMALIZED FREE ENERGY PREDICTED BY IDOCK:    3.01 KCAL/MOL
REMARK 922        TOTAL FREE ENERGY PREDICTED BY IDOCK:    3.30 KCAL/MOL
REMARK 923 INTER-LIGAND FREE ENERGY PREDICTED BY IDOCK:   -6.40 KCAL/MOL
REMARK 924 INTRA-LIGAND FREE ENERGY PREDICTED BY IDOCK:    9.70 KCAL/MOL
REMARK 927      BINDING AFFINITY PREDICTED BY RF-SCORE:    0.00 PKD
ROOT
HETATM    1  C   UNL     1     -12.599  13.576  66.057  1.00  0.00    -0.348 C  
HETATM    2  N   UNL     1     -11.986  12.249  66.061  1.00  0.00    -0.355 N  
HETATM    3  O   UNL     1     -11.992  12.275  68.375  1.00  0.00    -0.326 OA 
HETATM    4  C   UNL     1     -11.676  11.710  67.334  1.00  0.00    -0.201 C  
ENDROOT
BRANCH   2   5
HETATM    5  C   UNL     1     -12.015  11.523  64.777  1.00  0.00     0.239 C  
BRANCH   5   6
HETATM    6  C   UNL     1     -12.186  12.313  63.479  1.00  0.00    -0.568 C  
HETATM    7  H   UNL     1     -13.377  12.279  61.903  1.00  0.00     0.000 HD 
HETATM    8  O   UNL     1     -13.270  11.788  62.709  1.00  0.00    -0.189 OA 
BRANCH   6   9
HETATM    9  C   UNL     1     -12.490  13.782  63.857  1.00  0.00    -0.202 C  
HETATM   10  H   UNL     1     -11.507  15.431  64.389  1.00  0.00     0.000 HD 
HETATM   11  O   UNL     1     -11.320  14.529  64.157  1.00  0.00    -0.185 OA 
ENDBRANCH   6   9
ENDBRANCH   5   6
ENDBRANCH   2   5
BRANCH   4  12
HETATM   12  C   UNL     1     -10.969  10.392  67.473  1.00  0.00    -0.358 A  
HETATM   13  C   UNL     1     -11.195   9.628  68.623  1.00  0.00     0.046 A  
HETATM   14  C   UNL     1     -10.015   9.901  66.524  1.00  0.00    -0.228 A  
HETATM   15  C   UNL     1      -9.506   8.567  66.610  1.00  0.00    -0.268 A  
HETATM   16  I   UNL     1      -9.329  11.251  64.982  1.00  0.00    -0.038 I  
HETATM   17  I   UNL     1     -11.799  10.628  70.439  1.00  0.00    -0.475 I  
HETATM   18  C   UNL     1     -10.089   7.726  67.587  1.00  0.00    -0.196 A  
HETATM   19  I   UNL     1     -10.258   5.613  67.180  1.00  0.00    -0.347 I  
HETATM   20  C   UNL     1     -10.851   8.265  68.661  1.00  0.00     0.077 A  
BRANCH  15  21
HETATM   21  C   UNL     1      -8.472   8.074  65.607  1.00  0.00    -0.149 C  
HETATM   22  O   UNL     1      -8.674   8.309  64.413  1.00  0.00     0.006 OA 
HETATM   23  N   UNL     1      -7.268   7.452  66.000  1.00  0.00    -0.069 N  
HETATM   24  C   UNL     1      -7.052   6.712  67.238  1.00  0.00    -0.080 C  
BRANCH  23  25
HETATM   25  C   UNL     1      -6.194   7.312  64.984  1.00  0.00    -0.038 C  
BRANCH  25  26
HETATM   26  C   UNL     1      -6.356   6.142  63.989  1.00  0.00    -0.030 C  
HETATM   27  H   UNL     1      -5.531   4.353  63.626  1.00  0.00     0.000 HD 
HETATM   28  O   UNL     1      -5.432   5.073  64.238  1.00  0.00    -0.012 OA 
BRANCH  26  29
HETATM   29  C   UNL     1      -7.760   5.519  64.071  1.00  0.00    -0.089 C  
HETATM   30  H   UNL     1      -8.677   4.184  65.192  1.00  0.00     0.000 HD 
HETATM   31  O   UNL     1      -7.810   4.570  65.142  1.00  0.00    -0.088 OA 
ENDBRANCH  26  29
ENDBRANCH  25  26
ENDBRANCH  23  25
ENDBRANCH  15  21
BRANCH  20  32
HETATM   32  N   UNL     1     -11.375   7.478  69.728  1.00  0.00    -0.462 N  
HETATM   33  C   UNL     1     -10.739   7.386  70.960  1.00  0.00    -0.231 C  
HETATM   34  H   UNL     1     -12.245   6.967  69.582  1.00  0.00     0.000 HD 
HETATM   35  H   UNL     1     -14.381   8.175  71.752  1.00  0.00     0.000 HD 
HETATM   36  H   UNL     1      -9.644   7.054  74.637  1.00  0.00     0.000 HD 
HETATM   37  C   UNL     1     -11.559   6.627  72.009  1.00  0.00    -0.341 C  
HETATM   38  O   UNL     1      -9.660   7.914  71.220  1.00  0.00    -0.155 OA 
HETATM   39  O   UNL     1     -10.195   7.320  73.910  1.00  0.00    -0.344 OA 
HETATM   40  O   UNL     1     -13.659   7.641  71.442  1.00  0.00    -0.347 OA 
HETATM   41  C   UNL     1     -12.721   7.484  72.506  1.00  0.00     0.205 C  
HETATM   42  C   UNL     1     -10.675   6.199  73.175  1.00  0.00    -0.260 C  
ENDBRANCH  20  32
ENDBRANCH   4  12
TORSDOF 9
ENDMDL
MODEL      136
REMARK 921   NORMALIZED FREE ENERGY PREDICTED BY IDOCK:    3.32 KCAL/MOL
REMARK 922        TOTAL FREE ENERGY PREDICTED BY IDOCK:    3.77 KCAL/MOL
REMARK 923 INTER-LIGAND FREE ENERGY PREDICTED BY IDOCK:   -2.63 KCAL/MOL
REMARK 924 INTRA-LIGAND FREE ENERGY PREDICTED BY IDOCK:    6.40 KCAL/MOL
REMARK 927      BINDING AFFINITY PREDICTED BY RF-SCORE:    0.00 PKD
ROOT
HETATM    1  C   UNL     1      -9.137   8.602  72.729  1.00  0.00    -0.006 C  
HETATM    2  N   UNL     1      -8.899   8.930  71.324  1.00  0.00    -0.224 N  
HETATM    3  O   UNL     1     -10.998   9.899  71.217  1.00  0.00    -0.320 OA 
HETATM    4  C   UNL     1      -9.970   9.558  70.642  1.00  0.00    -0.276 C  
ENDROOT
BRANCH   2   5
HETATM    5  C   UNL     1      -7.502   8.821  70.865  1.00  0.00    -0.091 C  
BRANCH   5   6
HETATM    6  C   UNL     1      -6.383   8.724  71.902  1.00  0.00    -0.072 C  
HETATM    7  H   UNL     1      -6.122   7.914  73.686  1.00  0.00     0.000 HD 
HETATM    8  O   UNL     1      -6.817   7.974  73.041  1.00  0.00    -0.081 OA 
BRANCH   6   9
HETATM    9  C   UNL     1      -5.186   8.003  71.241  1.00  0.00    -0.030 C  
HETATM   10  H   UNL     1      -4.688   6.177  70.619  1.00  0.00     0.000 HD 
HETATM   11  O   UNL     1      -5.424   6.619  71.026  1.00  0.00    -0.025 OA 
ENDBRANCH   6   9
ENDBRANCH   5   6
ENDBRANCH   2   5
BRANCH   4  12
HETATM   12  C   UNL     1      -9.885   9.872  69.176  1.00  0.00    -0.204 A  
HETATM   13  C   UNL     1     -10.603  10.967  68.682  1.00  0.00    -0.195 A  
HETATM   14  C   UNL     1      -9.166   9.069  68.234  1.00  0.00    -0.136 A  
HETATM   15  C   UNL     1      -8.968   9.506  66.887  1.00  0.00    -0.148 A  
HETATM   16  I   UNL     1      -8.425   7.149  68.895  1.00  0.00    -0.123 I  
HETATM   17  I   UNL     1     -12.371  11.620  69.737  1.00  0.00     0.062 I  
HETATM   18  C   UNL     1      -9.398  10.818  66.575  1.00  0.00    -0.168 A  
HETATM   19  I   UNL     1      -8.301  11.954  65.103  1.00  0.00     1.992 I  
HETATM   20  C   UNL     1     -10.302  11.516  67.422  1.00  0.00    -0.207 A  
BRANCH  15  21
HETATM   21  C   UNL     1      -8.223   8.624  65.894  1.00  0.00    -0.123 C  
HETATM   22  O   UNL     1      -7.248   7.991  66.308  1.00  0.00    -0.069 OA 
HETATM   23  N   UNL     1      -8.659   8.438  64.565  1.00  0.00    -0.060 N  
HETATM   24  C   UNL     1      -9.459   9.379  63.788  1.00  0.00     0.492 C  
BRANCH  23  25
HETATM   25  C   UNL     1      -8.068   7.319  63.790  1.00  0.00    -0.011 C  
BRANCH  25  26
HETATM   26  C   UNL     1      -8.000   5.958  64.515  1.00  0.00    -0.126 C  
HETATM   27  H   UNL     1      -8.798   4.127  64.354  1.00  0.00     0.000 HD 
HETATM   28  O   UNL     1      -8.839   4.965  63.908  1.00  0.00    -0.139 OA 
BRANCH  26  29
HETATM   29  C   UNL     1      -6.576   5.378  64.501  1.00  0.00    -0.042 C  
HETATM   30  H   UNL     1      -4.853   5.819  63.653  1.00  0.00     0.000 HD 
HETATM   31  O   UNL     1      -5.733   6.177  63.663  1.00  0.00    -0.021 OA 
ENDBRANCH  26  29
ENDBRANCH  25  26
ENDBRANCH  23  25
ENDBRANCH  15  21
BRANCH  20  32
HETATM   32  N   UNL     1     -10.848  12.795  67.109  1.00  0.00    -0.252 N  
HETATM   33  C   UNL     1     -10.184  13.977  67.409  1.00  0.00    -0.248 C  
HETATM   34  H   UNL     1     -11.758  12.843  66.649  1.00  0.00     0.000 HD 
HETATM   35  H   UNL     1     -11.237  14.301  63.762  1.00  0.00     0.000 HD 
HETATM   36  H   UNL     1      -8.668  17.509  67.651  1.00  0.00     0.000 HD 
HETATM   37  C   UNL     1     -10.871  15.221  66.835  1.00  0.00    -0.317 C  
HETATM   38  O   UNL     1      -9.113  14.033  68.011  1.00  0.00    -0.175 OA 
HETATM   39  O   UNL     1      -8.988  16.723  67.224  1.00  0.00    -0.207 OA 
HETATM   40  O   UNL     1     -11.373  14.246  64.701  1.00  0.00    -0.369 OA 
HETATM   41  C   UNL     1     -10.653  15.308  65.327  1.00  0.00    -0.417 C  
HETATM   42  C   UNL     1     -10.359  16.483  67.521  1.00  0.00    -0.294 C  
ENDBRANCH  20  32
ENDBRANCH   4  12
TORSDOF 9
ENDMDL
MODEL      137
REMARK 921   NORMALIZED FREE ENERGY PREDICTED BY IDOCK:    3.57 KCAL/MOL
REMARK 922        TOTAL FREE ENERGY PREDICTED BY IDOCK:    4.14 KCAL/MOL
REMARK 923 INTER-LIGAND FREE ENERGY PREDICTED BY IDOCK:    1.98 KCAL/MOL
REMARK 924 INTRA-LIGAND FREE ENERGY PREDICTED BY IDOCK:    2.16 KCAL/MOL
REMARK 927      BINDING AFFINITY PREDICTED BY RF-SCORE:    0.00 PKD
ROOT
HETATM    1  C   UNL     1      -7.463  17.701  68.174  1.00  0.00    -0.231 C  
HETATM    2  N   UNL     1      -7.964  16.336  68.019  1.00  0.00    -0.145 N  
HETATM    3  O   UNL     1      -7.496  15.935  70.250  1.00  0.00     0.455 OA 
HETATM    4  C   UNL     1      -7.875  15.508  69.165  1.00  0.00    -0.215 C  
ENDROOT
BRANCH   2   5
HETATM    5  C   UNL     1      -8.741  16.070  66.794  1.00  0.00    -0.253 C  
BRANCH   5   6
HETATM    6  C   UNL     1     -10.194  16.541  66.718  1.00  0.00    -0.295 C  
HETATM    7  H   UNL     1     -11.295  17.987  67.493  1.00  0.00     0.000 HD 
HETATM    8  O   UNL     1     -10.393  17.695  67.540  1.00  0.00    -0.337 OA 
BRANCH   6   9
HETATM    9  C   UNL     1     -10.497  16.902  65.245  1.00  0.00    -0.081 C  
HETATM   10  H   UNL     1     -11.135  18.460  64.182  1.00  0.00     0.000 HD 
HETATM   11  O   UNL     1     -10.949  18.239  65.086  1.00  0.00    -0.628 OA 
ENDBRANCH   6   9
ENDBRANCH   5   6
ENDBRANCH   2   5
BRANCH   4  12
HETATM   12  C   UNL     1      -8.278  14.062  69.116  1.00  0.00     0.225 A  
HETATM   13  C   UNL     1      -9.468  13.676  69.742  1.00  0.00     1.659 A  
HETATM   14  C   UNL     1      -7.473  13.035  68.525  1.00  0.00    -0.123 A  
HETATM   15  C   UNL     1      -7.980  11.709  68.346  1.00  0.00    -0.140 A  
HETATM   16  I   UNL     1      -5.450  13.534  67.953  1.00  0.00     0.028 I  
HETATM   17  I   UNL     1     -10.218  14.861  71.384  1.00  0.00     3.412 I  
HETATM   18  C   UNL     1      -9.345  11.504  68.655  1.00  0.00    -0.137 A  
HETATM   19  I   UNL     1     -10.466  10.050  67.518  1.00  0.00    -0.321 I  
HETATM   20  C   UNL     1     -10.070  12.439  69.445  1.00  0.00     0.673 A  
BRANCH  15  21
HETATM   21  C   UNL     1      -7.099  10.626  67.741  1.00  0.00    -0.083 C  
HETATM   22  O   UNL     1      -6.027  10.377  68.301  1.00  0.00    -0.041 OA 
HETATM   23  N   UNL     1      -7.502   9.846  66.636  1.00  0.00    -0.098 N  
HETATM   24  C   UNL     1      -8.455  10.250  65.608  1.00  0.00    -0.160 C  
BRANCH  23  25
HETATM   25  C   UNL     1      -6.730   8.614  66.335  1.00  0.00    -0.070 C  
BRANCH  25  26
HETATM   26  C   UNL     1      -7.555   7.314  66.218  1.00  0.00    -0.092 C  
HETATM   27  H   UNL     1      -7.623   5.677  65.066  1.00  0.00     0.000 HD 
HETATM   28  O   UNL     1      -7.117   6.477  65.138  1.00  0.00    -0.057 OA 
BRANCH  26  29
HETATM   29  C   UNL     1      -7.447   6.458  67.491  1.00  0.00    -0.092 C  
HETATM   30  H   UNL     1      -8.286   4.823  68.199  1.00  0.00     0.000 HD 
HETATM   31  O   UNL     1      -8.353   5.352  67.413  1.00  0.00    -0.104 OA 
ENDBRANCH  26  29
ENDBRANCH  25  26
ENDBRANCH  23  25
ENDBRANCH  15  21
BRANCH  20  32
HETATM   32  N   UNL     1     -11.414  12.236  69.873  1.00  0.00    -0.510 N  
HETATM   33  C   UNL     1     -11.753  11.274  70.816  1.00  0.00    -0.043 C  
HETATM   34  H   UNL     1     -12.152  12.816  69.473  1.00  0.00     0.000 HD 
HETATM   35  H   UNL     1     -13.454  14.479  71.977  1.00  0.00     0.000 HD 
HETATM   36  H   UNL     1     -13.217   9.066  73.611  1.00  0.00     0.000 HD 
HETATM   37  C   UNL     1     -13.221  11.342  71.250  1.00  0.00    -0.176 C  
HETATM   38  O   UNL     1     -10.953  10.486  71.316  1.00  0.00     0.290 OA 
HETATM   39  O   UNL     1     -12.958   9.873  73.180  1.00  0.00     0.675 OA 
HETATM   40  O   UNL     1     -13.308  13.735  71.405  1.00  0.00    -0.326 OA 
HETATM   41  C   UNL     1     -13.455  12.538  72.169  1.00  0.00    -0.422 C  
HETATM   42  C   UNL     1     -13.638  10.048  71.942  1.00  0.00    -0.262 C  
ENDBRANCH  20  32
ENDBRANCH   4  12
TORSDOF 9
ENDMDL
MODEL      138
REMARK 921   NORMALIZED FREE ENERGY PREDICTED BY IDOCK:    3.61 KCAL/MOL
REMARK 922        TOTAL FREE ENERGY PREDICTED BY IDOCK:    4.20 KCAL/MOL
REMARK 923 INTER-LIGAND FREE ENERGY PREDICTED BY IDOCK:   -1.81 KCAL/MOL
REMARK 924 INTRA-LIGAND FREE ENERGY PREDICTED BY IDOCK:    6.02 KCAL/MOL
REMARK 927      BINDING AFFINITY PREDICTED BY RF-SCORE:    0.00 PKD
ROOT
HETATM    1  C   UNL     1      -7.305   2.054  69.144  1.00  0.00    -0.043 C  
HETATM    2  N   UNL     1      -7.446   3.466  69.496  1.00  0.00    -0.048 N  
HETATM    3  O   UNL     1      -6.592   4.046  67.425  1.00  0.00    -0.044 OA 
HETATM    4  C   UNL     1      -6.989   4.396  68.530  1.00  0.00    -0.052 C  
ENDROOT
BRANCH   2   5
HETATM    5  C   UNL     1      -8.284   3.755  70.675  1.00  0.00    -0.057 C  
BRANCH   5   6
HETATM    6  C   UNL     1      -9.768   3.391  70.640  1.00  0.00    -0.105 C  
HETATM    7  H   UNL     1     -10.901   1.859  71.166  1.00  0.00     0.000 HD 
HETATM    8  O   UNL     1      -9.979   2.086  71.188  1.00  0.00    -0.104 OA 
BRANCH   6   9
HETATM    9  C   UNL     1     -10.532   4.433  71.490  1.00  0.00     0.063 C  
HETATM   10  H   UNL     1     -11.309   6.256  71.289  1.00  0.00     0.000 HD 
HETATM   11  O   UNL     1     -10.840   5.616  70.767  1.00  0.00    -0.265 OA 
ENDBRANCH   6   9
ENDBRANCH   5   6
ENDBRANCH   2   5
BRANCH   4  12
HETATM   12  C   UNL     1      -7.001   5.873  68.802  1.00  0.00    -0.072 A  
HETATM   13  C   UNL     1      -6.618   6.325  70.070  1.00  0.00    -0.048 A  
HETATM   14  C   UNL     1      -7.453   6.849  67.856  1.00  0.00    -0.099 A  
HETATM   15  C   UNL     1      -7.278   8.248  68.095  1.00  0.00    -0.094 A  
HETATM   16  I   UNL     1      -8.453   6.147  66.074  1.00  0.00    -0.149 I  
HETATM   17  I   UNL     1      -6.841   5.002  71.762  1.00  0.00    -0.057 I  
HETATM   18  C   UNL     1      -6.523   8.608  69.237  1.00  0.00    -0.042 A  
HETATM   19  I   UNL     1      -5.316  10.397  69.169  1.00  0.00    -0.036 I  
HETATM   20  C   UNL     1      -6.278   7.674  70.281  1.00  0.00    -0.033 A  
BRANCH  15  21
HETATM   21  C   UNL     1      -7.791   9.269  67.090  1.00  0.00    -0.099 C  
HETATM   22  O   UNL     1      -7.006   9.666  66.224  1.00  0.00    -0.088 OA 
HETATM   23  N   UNL     1      -9.135   9.698  67.058  1.00  0.00    -0.134 N  
HETATM   24  C   UNL     1     -10.055   9.711  68.190  1.00  0.00    -0.175 C  
BRANCH  23  25
HETATM   25  C   UNL     1      -9.604  10.427  65.853  1.00  0.00    -0.206 C  
BRANCH  25  26
HETATM   26  C   UNL     1     -10.467  11.679  66.117  1.00  0.00    -0.247 C  
HETATM   27  H   UNL     1     -10.211  13.635  66.467  1.00  0.00     0.000 HD 
HETATM   28  O   UNL     1      -9.680  12.864  66.305  1.00  0.00    -0.267 OA 
BRANCH  26  29
HETATM   29  C   UNL     1     -11.409  11.977  64.938  1.00  0.00    -0.310 C  
HETATM   30  H   UNL     1     -11.898  13.544  63.849  1.00  0.00     0.000 HD 
HETATM   31  O   UNL     1     -11.316  13.360  64.577  1.00  0.00    -0.338 OA 
ENDBRANCH  26  29
ENDBRANCH  25  26
ENDBRANCH  23  25
ENDBRANCH  15  21
BRANCH  20  32
HETATM   32  N   UNL     1      -5.613   8.007  71.497  1.00  0.00    -0.034 N  
HETATM   33  C   UNL     1      -5.866   9.191  72.178  1.00  0.00    -0.048 C  
HETATM   34  H   UNL     1      -4.930   7.354  71.881  1.00  0.00     0.000 HD 
HETATM   35  H   UNL     1      -6.089   6.441  74.806  1.00  0.00     0.000 HD 
HETATM   36  H   UNL     1      -6.415  12.089  74.654  1.00  0.00     0.000 HD 
HETATM   37  C   UNL     1      -5.169   9.267  73.541  1.00  0.00    -0.106 C  
HETATM   38  O   UNL     1      -6.625  10.070  71.775  1.00  0.00    -0.100 OA 
HETATM   39  O   UNL     1      -6.438  11.192  74.339  1.00  0.00     1.595 OA 
HETATM   40  O   UNL     1      -5.653   7.003  74.176  1.00  0.00    -0.053 OA 
HETATM   41  C   UNL     1      -5.869   8.363  74.553  1.00  0.00    -0.110 C  
HETATM   42  C   UNL     1      -5.133  10.705  74.047  1.00  0.00     0.192 C  
ENDBRANCH  20  32
ENDBRANCH   4  12
TORSDOF 9
ENDMDL
MODEL      139
REMARK 921   NORMALIZED FREE ENERGY PREDICTED BY IDOCK:    3.77 KCAL/MOL
REMARK 922        TOTAL FREE ENERGY PREDICTED BY IDOCK:    4.44 KCAL/MOL
REMARK 923 INTER-LIGAND FREE ENERGY PREDICTED BY IDOCK:   -5.07 KCAL/MOL
REMARK 924 INTRA-LIGAND FREE ENERGY PREDICTED BY IDOCK:    9.51 KCAL/MOL
REMARK 927      BINDING AFFINITY PREDICTED BY RF-SCORE:    0.00 PKD
ROOT
HETATM    1  C   UNL     1     -11.956  13.559  69.661  1.00  0.00    -0.337 C  
HETATM    2  N   UNL     1     -11.205  12.505  68.982  1.00  0.00    -0.264 N  
HETATM    3  O   UNL     1     -12.486  10.917  70.074  1.00  0.00    -0.323 OA 
HETATM    4  C   UNL     1     -11.549  11.175  69.327  1.00  0.00    -0.318 C  
ENDROOT
BRANCH   2   5
HETATM    5  C   UNL     1     -10.384  12.937  67.835  1.00  0.00    -0.231 C  
BRANCH   5   6
HETATM    6  C   UNL     1      -9.514  14.186  67.971  1.00  0.00    -0.213 C  
HETATM    7  H   UNL     1      -8.027  15.037  66.986  1.00  0.00     0.000 HD 
HETATM    8  O   UNL     1      -8.568  14.260  66.901  1.00  0.00    -0.209 OA 
BRANCH   6   9
HETATM    9  C   UNL     1     -10.446  15.419  67.918  1.00  0.00    -0.256 C  
HETATM   10  H   UNL     1     -10.314  17.406  67.995  1.00  0.00     0.000 HD 
HETATM   11  O   UNL     1      -9.742  16.648  68.027  1.00  0.00    -0.234 OA 
ENDBRANCH   6   9
ENDBRANCH   5   6
ENDBRANCH   2   5
BRANCH   4  12
HETATM   12  C   UNL     1     -10.798  10.003  68.763  1.00  0.00    -0.252 A  
HETATM   13  C   UNL     1     -10.577   8.891  69.583  1.00  0.00    -0.226 A  
HETATM   14  C   UNL     1     -10.227   9.986  67.450  1.00  0.00    -0.219 A  
HETATM   15  C   UNL     1      -9.678   8.786  66.897  1.00  0.00    -0.273 A  
HETATM   16  I   UNL     1     -10.174  11.840  66.342  1.00  0.00    -0.283 I  
HETATM   17  I   UNL     1     -10.530   9.163  71.725  1.00  0.00     0.200 I  
HETATM   18  C   UNL     1      -9.851   7.602  67.653  1.00  0.00    -0.164 A  
HETATM   19  I   UNL     1     -10.087   5.724  66.613  1.00  0.00    -0.223 I  
HETATM   20  C   UNL     1     -10.201   7.653  69.031  1.00  0.00    -0.206 A  
BRANCH  15  21
HETATM   21  C   UNL     1      -9.052   8.796  65.510  1.00  0.00    -0.163 C  
HETATM   22  O   UNL     1      -9.792   9.020  64.548  1.00  0.00     0.707 OA 
HETATM   23  N   UNL     1      -7.664   8.653  65.301  1.00  0.00    -0.088 N  
HETATM   24  C   UNL     1      -6.732   7.965  66.188  1.00  0.00    -0.054 C  
BRANCH  23  25
HETATM   25  C   UNL     1      -7.122   9.005  63.965  1.00  0.00    -0.095 C  
BRANCH  25  26
HETATM   26  C   UNL     1      -6.232   7.935  63.295  1.00  0.00    -0.067 C  
HETATM   27  H   UNL     1      -4.995   6.455  63.837  1.00  0.00     0.000 HD 
HETATM   28  O   UNL     1      -5.543   7.114  64.249  1.00  0.00    -0.032 OA 
BRANCH  26  29
HETATM   29  C   UNL     1      -7.060   6.973  62.425  1.00  0.00    -0.068 C  
HETATM   30  H   UNL     1      -8.942   6.790  61.877  1.00  0.00     0.000 HD 
HETATM   31  O   UNL     1      -8.431   7.384  62.414  1.00  0.00    -0.077 OA 
ENDBRANCH  26  29
ENDBRANCH  25  26
ENDBRANCH  23  25
ENDBRANCH  15  21
BRANCH  20  32
HETATM   32  N   UNL     1     -10.287   6.501  69.866  1.00  0.00    -0.183 N  
HETATM   33  C   UNL     1      -9.199   5.668  70.092  1.00  0.00    -0.142 C  
HETATM   34  H   UNL     1     -11.178   6.281  70.311  1.00  0.00     0.000 HD 
HETATM   35  H   UNL     1     -10.636   6.422  73.539  1.00  0.00     0.000 HD 
HETATM   36  H   UNL     1      -6.485   3.250  71.365  1.00  0.00     0.000 HD 
HETATM   37  C   UNL     1      -9.470   4.591  71.149  1.00  0.00    -0.226 C  
HETATM   38  O   UNL     1      -8.100   5.809  69.560  1.00  0.00    -0.104 OA 
HETATM   39  O   UNL     1      -7.133   3.943  71.419  1.00  0.00    -0.031 OA 
HETATM   40  O   UNL     1     -10.629   6.042  72.668  1.00  0.00    -0.200 OA 
HETATM   41  C   UNL     1      -9.482   5.202  72.548  1.00  0.00    -0.145 C  
HETATM   42  C   UNL     1      -8.430   3.479  71.062  1.00  0.00    -0.067 C  
ENDBRANCH  20  32
ENDBRANCH   4  12
TORSDOF 9
ENDMDL
MODEL      140
REMARK 921   NORMALIZED FREE ENERGY PREDICTED BY IDOCK:    3.80 KCAL/MOL
REMARK 922        TOTAL FREE ENERGY PREDICTED BY IDOCK:    4.50 KCAL/MOL
REMARK 923 INTER-LIGAND FREE ENERGY PREDICTED BY IDOCK:    3.55 KCAL/MOL
REMARK 924 INTRA-LIGAND FREE ENERGY PREDICTED BY IDOCK:    0.95 KCAL/MOL
REMARK 927      BINDING AFFINITY PREDICTED BY RF-SCORE:    0.00 PKD
ROOT
HETATM    1  C   UNL     1      -6.961  15.270  70.629  1.00  0.00     0.594 C  
HETATM    2  N   UNL     1      -7.376  14.366  69.558  1.00  0.00    -0.067 N  
HETATM    3  O   UNL     1      -9.364  13.983  70.680  1.00  0.00     2.805 OA 
HETATM    4  C   UNL     1      -8.626  13.723  69.735  1.00  0.00     1.570 C  
ENDROOT
BRANCH   2   5
HETATM    5  C   UNL     1      -6.589  14.439  68.313  1.00  0.00    -0.116 C  
BRANCH   5   6
HETATM    6  C   UNL     1      -5.251  13.704  68.235  1.00  0.00    -0.107 C  
HETATM    7  H   UNL     1      -4.349  12.223  69.183  1.00  0.00     0.000 HD 
HETATM    8  O   UNL     1      -5.180  12.680  69.231  1.00  0.00    -0.068 OA 
BRANCH   6   9
HETATM    9  C   UNL     1      -5.146  13.061  66.832  1.00  0.00     0.749 C  
HETATM   10  H   UNL     1      -6.016  11.616  65.772  1.00  0.00     0.000 HD 
HETATM   11  O   UNL     1      -6.080  12.010  66.634  1.00  0.00    -0.178 OA 
ENDBRANCH   6   9
ENDBRANCH   5   6
ENDBRANCH   2   5
BRANCH   4  12
HETATM   12  C   UNL     1      -9.130  12.709  68.749  1.00  0.00     0.163 A  
HETATM   13  C   UNL     1     -10.309  12.983  68.048  1.00  0.00    -0.234 A  
HETATM   14  C   UNL     1      -8.509  11.436  68.536  1.00  0.00    -0.152 A  
HETATM   15  C   UNL     1      -8.919  10.583  67.464  1.00  0.00    -0.137 A  
HETATM   16  I   UNL     1      -6.961  10.818  69.912  1.00  0.00     0.197 I  
HETATM   17  I   UNL     1     -11.760  14.320  68.925  1.00  0.00    -0.363 I  
HETATM   18  C   UNL     1      -9.865  11.115  66.555  1.00  0.00    -0.208 A  
HETATM   19  I   UNL     1      -9.777  10.513  64.484  1.00  0.00    -0.379 I  
HETATM   20  C   UNL     1     -10.641  12.260  66.888  1.00  0.00    -0.224 A  
BRANCH  15  21
HETATM   21  C   UNL     1      -8.265   9.222  67.271  1.00  0.00    -0.121 C  
HETATM   22  O   UNL     1      -7.247   9.169  66.575  1.00  0.00    -0.083 OA 
HETATM   23  N   UNL     1      -8.721   8.058  67.925  1.00  0.00    -0.128 N  
HETATM   24  C   UNL     1     -10.083   7.818  68.391  1.00  0.00    -0.192 C  
BRANCH  23  25
HETATM   25  C   UNL     1      -7.830   6.871  67.935  1.00  0.00    -0.113 C  
BRANCH  25  26
HETATM   26  C   UNL     1      -8.187   5.753  66.932  1.00  0.00    -0.101 C  
HETATM   27  H   UNL     1      -7.291   4.675  65.500  1.00  0.00     0.000 HD 
HETATM   28  O   UNL     1      -7.072   5.364  66.117  1.00  0.00    -0.069 OA 
BRANCH  26  29
HETATM   29  C   UNL     1      -8.656   4.476  67.650  1.00  0.00    -0.103 C  
HETATM   30  H   UNL     1     -10.191   3.247  67.543  1.00  0.00     0.000 HD 
HETATM   31  O   UNL     1      -9.901   4.036  67.099  1.00  0.00    -0.202 OA 
ENDBRANCH  26  29
ENDBRANCH  25  26
ENDBRANCH  23  25
ENDBRANCH  15  21
BRANCH  20  32
HETATM   32  N   UNL     1     -11.678  12.778  66.058  1.00  0.00    -0.396 N  
HETATM   33  C   UNL     1     -11.507  13.919  65.285  1.00  0.00    -0.315 C  
HETATM   34  H   UNL     1     -12.576  12.294  66.031  1.00  0.00     0.000 HD 
HETATM   35  H   UNL     1     -12.984  11.310  62.934  1.00  0.00     0.000 HD 
HETATM   36  H   UNL     1     -11.494  16.764  62.689  1.00  0.00     0.000 HD 
HETATM   37  C   UNL     1     -12.686  14.198  64.347  1.00  0.00    -0.039 C  
HETATM   38  O   UNL     1     -10.488  14.607  65.287  1.00  0.00    -0.342 OA 
HETATM   39  O   UNL     1     -11.520  15.867  63.002  1.00  0.00     1.482 OA 
HETATM   40  O   UNL     1     -12.987  11.917  63.665  1.00  0.00    -0.692 OA 
HETATM   41  C   UNL     1     -12.682  13.222  63.173  1.00  0.00     0.400 C  
HETATM   42  C   UNL     1     -12.644  15.637  63.844  1.00  0.00     0.715 C  
ENDBRANCH  20  32
ENDBRANCH   4  12
TORSDOF 9
ENDMDL
MODEL      141
REMARK 921   NORMALIZED FREE ENERGY PREDICTED BY IDOCK:    3.89 KCAL/MOL
REMARK 922        TOTAL FREE ENERGY PREDICTED BY IDOCK:    4.64 KCAL/MOL
REMARK 923 INTER-LIGAND FREE ENERGY PREDICTED BY IDOCK:   -4.21 KCAL/MOL
REMARK 924 INTRA-LIGAND FREE ENERGY PREDICTED BY IDOCK:    8.85 KCAL/MOL
REMARK 927      BINDING AFFINITY PREDICTED BY RF-SCORE:    0.00 PKD
ROOT
HETATM    1  C   UNL     1      -8.839  18.498  68.631  1.00  0.00    -0.298 C  
HETATM    2  N   UNL     1      -9.119  17.101  68.305  1.00  0.00    -0.251 N  
HETATM    3  O   UNL     1     -11.385  17.534  68.490  1.00  0.00     0.159 OA 
HETATM    4  C   UNL     1     -10.484  16.721  68.316  1.00  0.00    -0.341 C  
ENDROOT
BRANCH   2   5
HETATM    5  C   UNL     1      -7.992  16.333  67.742  1.00  0.00    -0.142 C  
BRANCH   5   6
HETATM    6  C   UNL     1      -6.641  16.363  68.457  1.00  0.00    -0.136 C  
HETATM    7  H   UNL     1      -5.571  15.152  69.594  1.00  0.00     0.000 HD 
HETATM    8  O   UNL     1      -6.411  15.133  69.150  1.00  0.00    -0.101 OA 
BRANCH   6   9
HETATM    9  C   UNL     1      -5.544  16.561  67.386  1.00  0.00    -0.156 C  
HETATM   10  H   UNL     1      -5.129  17.783  65.868  1.00  0.00     0.000 HD 
HETATM   11  O   UNL     1      -5.803  17.661  66.526  1.00  0.00    -0.158 OA 
ENDBRANCH   6   9
ENDBRANCH   5   6
ENDBRANCH   2   5
BRANCH   4  12
HETATM   12  C   UNL     1     -10.900  15.298  68.079  1.00  0.00    -0.288 A  
HETATM   13  C   UNL     1     -10.751  14.760  66.796  1.00  0.00    -0.309 A  
HETATM   14  C   UNL     1     -11.513  14.475  69.078  1.00  0.00    -0.290 A  
HETATM   15  C   UNL     1     -11.727  13.078  68.858  1.00  0.00    -0.371 A  
HETATM   16  I   UNL     1     -12.151  15.416  70.916  1.00  0.00    -0.570 I  
HETATM   17  I   UNL     1     -10.757  16.093  65.097  1.00  0.00     0.052 I  
HETATM   18  C   UNL     1     -11.184  12.533  67.670  1.00  0.00    -0.282 A  
HETATM   19  I   UNL     1     -10.481  10.491  67.684  1.00  0.00    -0.349 I  
HETATM   20  C   UNL     1     -10.790  13.369  66.589  1.00  0.00    -0.282 A  
BRANCH  15  21
HETATM   21  C   UNL     1     -12.404  12.227  69.922  1.00  0.00    -0.052 C  
HETATM   22  O   UNL     1     -12.898  12.808  70.893  1.00  0.00    -0.225 OA 
HETATM   23  N   UNL     1     -12.567  10.831  69.791  1.00  0.00    -0.182 N  
HETATM   24  C   UNL     1     -11.717   9.942  69.007  1.00  0.00     0.268 C  
BRANCH  23  25
HETATM   25  C   UNL     1     -13.518  10.153  70.707  1.00  0.00    -0.008 C  
BRANCH  25  26
HETATM   26  C   UNL     1     -13.137   8.718  71.131  1.00  0.00    -0.074 C  
HETATM   27  H   UNL     1     -11.484   7.644  71.484  1.00  0.00     0.000 HD 
HETATM   28  O   UNL     1     -11.718   8.527  71.223  1.00  0.00    -0.271 OA 
BRANCH  26  29
HETATM   29  C   UNL     1     -13.704   8.368  72.518  1.00  0.00    -0.137 C  
HETATM   30  H   UNL     1     -13.961   9.289  74.240  1.00  0.00     0.000 HD 
HETATM   31  O   UNL     1     -13.611   9.505  73.383  1.00  0.00     0.553 OA 
ENDBRANCH  26  29
ENDBRANCH  25  26
ENDBRANCH  23  25
ENDBRANCH  15  21
BRANCH  20  32
HETATM   32  N   UNL     1     -10.334  12.873  65.333  1.00  0.00    -0.293 N  
HETATM   33  C   UNL     1      -9.283  11.971  65.231  1.00  0.00     0.164 C  
HETATM   34  H   UNL     1     -10.796  13.190  64.481  1.00  0.00     0.000 HD 
HETATM   35  H   UNL     1     -12.081  10.514  63.096  1.00  0.00     0.000 HD 
HETATM   36  H   UNL     1      -6.718   9.231  64.367  1.00  0.00     0.000 HD 
HETATM   37  C   UNL     1      -9.072  11.445  63.807  1.00  0.00     0.051 C  
HETATM   38  O   UNL     1      -8.622  11.570  66.188  1.00  0.00    -0.170 OA 
HETATM   39  O   UNL     1      -7.578   9.627  64.454  1.00  0.00    -0.117 OA 
HETATM   40  O   UNL     1     -11.403  11.139  63.325  1.00  0.00    -0.085 OA 
HETATM   41  C   UNL     1     -10.162  10.441  63.439  1.00  0.00     0.215 C  
HETATM   42  C   UNL     1      -7.693  10.808  63.668  1.00  0.00     0.263 C  
ENDBRANCH  20  32
ENDBRANCH   4  12
TORSDOF 9
ENDMDL
MODEL      142
REMARK 921   NORMALIZED FREE ENERGY PREDICTED BY IDOCK:    4.11 KCAL/MOL
REMARK 922        TOTAL FREE ENERGY PREDICTED BY IDOCK:    4.97 KCAL/MOL
REMARK 923 INTER-LIGAND FREE ENERGY PREDICTED BY IDOCK:   -0.74 KCAL/MOL
REMARK 924 INTRA-LIGAND FREE ENERGY PREDICTED BY IDOCK:    5.71 KCAL/MOL
REMARK 927      BINDING AFFINITY PREDICTED BY RF-SCORE:    0.00 PKD
ROOT
HETATM    1  C   UNL     1     -10.521  16.203  65.002  1.00  0.00    -0.179 C  
HETATM    2  N   UNL     1     -10.535  14.918  65.698  1.00  0.00    -0.324 N  
HETATM    3  O   UNL     1     -10.597  13.835  63.654  1.00  0.00     0.345 OA 
HETATM    4  C   UNL     1     -10.628  13.767  64.878  1.00  0.00    -0.413 C  
ENDROOT
BRANCH   2   5
HETATM    5  C   UNL     1     -10.180  14.957  67.130  1.00  0.00    -0.245 C  
BRANCH   5   6
HETATM    6  C   UNL     1      -8.717  14.782  67.538  1.00  0.00    -0.186 C  
HETATM    7  H   UNL     1      -7.494  15.509  68.909  1.00  0.00     0.000 HD 
HETATM    8  O   UNL     1      -8.403  15.618  68.656  1.00  0.00    -0.157 OA 
BRANCH   6   9
HETATM    9  C   UNL     1      -8.509  13.301  67.930  1.00  0.00    -0.177 C  
HETATM   10  H   UNL     1      -7.047  11.949  67.975  1.00  0.00     0.000 HD 
HETATM   11  O   UNL     1      -7.174  12.859  67.733  1.00  0.00    -0.104 OA 
ENDBRANCH   6   9
ENDBRANCH   5   6
ENDBRANCH   2   5
BRANCH   4  12
HETATM   12  C   UNL     1     -10.735  12.391  65.471  1.00  0.00    -0.315 A  
HETATM   13  C   UNL     1     -10.252  11.304  64.736  1.00  0.00    -0.292 A  
HETATM   14  C   UNL     1     -11.373  12.117  66.724  1.00  0.00    -0.342 A  
HETATM   15  C   UNL     1     -11.292  10.823  67.328  1.00  0.00    -0.173 A  
HETATM   16  I   UNL     1     -12.504  13.704  67.657  1.00  0.00     1.183 I  
HETATM   17  I   UNL     1     -10.169  11.453  62.583  1.00  0.00     1.131 I  
HETATM   18  C   UNL     1     -10.446   9.880  66.697  1.00  0.00    -0.169 A  
HETATM   19  I   UNL     1      -9.411   8.427  67.914  1.00  0.00    -0.172 I  
HETATM   20  C   UNL     1     -10.006  10.066  65.357  1.00  0.00    -0.294 A  
BRANCH  15  21
HETATM   21  C   UNL     1     -12.000  10.544  68.646  1.00  0.00     0.162 C  
HETATM   22  O   UNL     1     -13.230  10.633  68.667  1.00  0.00     2.000 OA 
HETATM   23  N   UNL     1     -11.315  10.104  69.799  1.00  0.00    -0.257 N  
HETATM   24  C   UNL     1      -9.913  10.359  70.110  1.00  0.00     0.144 C  
BRANCH  23  25
HETATM   25  C   UNL     1     -12.120   9.549  70.916  1.00  0.00    -0.278 C  
BRANCH  25  26
HETATM   26  C   UNL     1     -13.401  10.331  71.277  1.00  0.00    -0.284 C  
HETATM   27  H   UNL     1     -15.086  10.054  72.326  1.00  0.00     0.000 HD 
HETATM   28  O   UNL     1     -14.297   9.573  72.103  1.00  0.00    -0.137 OA 
BRANCH  26  29
HETATM   29  C   UNL     1     -13.080  11.613  72.063  1.00  0.00    -0.328 C  
HETATM   30  H   UNL     1     -12.494  13.447  71.645  1.00  0.00     0.000 HD 
HETATM   31  O   UNL     1     -12.693  12.654  71.159  1.00  0.00    -0.358 OA 
ENDBRANCH  26  29
ENDBRANCH  25  26
ENDBRANCH  23  25
ENDBRANCH  15  21
BRANCH  20  32
HETATM   32  N   UNL     1      -9.239   9.104  64.638  1.00  0.00    -0.441 N  
HETATM   33  C   UNL     1      -7.870   8.959  64.823  1.00  0.00    -0.121 C  
HETATM   34  H   UNL     1      -9.712   8.501  63.964  1.00  0.00     0.000 HD 
HETATM   35  H   UNL     1      -9.303   5.437  65.047  1.00  0.00     0.000 HD 
HETATM   36  H   UNL     1      -4.194   7.867  65.178  1.00  0.00     0.000 HD 
HETATM   37  C   UNL     1      -7.281   7.758  64.075  1.00  0.00    -0.080 C  
HETATM   38  O   UNL     1      -7.196   9.671  65.565  1.00  0.00    -0.091 OA 
HETATM   39  O   UNL     1      -5.140   7.789  65.244  1.00  0.00    -0.028 OA 
HETATM   40  O   UNL     1      -9.067   6.249  64.615  1.00  0.00     0.402 OA 
HETATM   41  C   UNL     1      -7.662   6.453  64.769  1.00  0.00    -0.105 C  
HETATM   42  C   UNL     1      -5.765   7.882  63.969  1.00  0.00    -0.052 C  
ENDBRANCH  20  32
ENDBRANCH   4  12
TORSDOF 9
ENDMDL
MODEL      143
REMARK 921   NORMALIZED FREE ENERGY PREDICTED BY IDOCK:    4.17 KCAL/MOL
REMARK 922        TOTAL FREE ENERGY PREDICTED BY IDOCK:    5.06 KCAL/MOL
REMARK 923 INTER-LIGAND FREE ENERGY PREDICTED BY IDOCK:    0.81 KCAL/MOL
REMARK 924 INTRA-LIGAND FREE ENERGY PREDICTED BY IDOCK:    4.24 KCAL/MOL
REMARK 927      BINDING AFFINITY PREDICTED BY RF-SCORE:    0.00 PKD
ROOT
HETATM    1  C   UNL     1      -9.813  14.848  66.472  1.00  0.00    -0.266 C  
HETATM    2  N   UNL     1      -9.496  13.437  66.688  1.00  0.00    -0.260 N  
HETATM    3  O   UNL     1      -7.517  14.060  67.713  1.00  0.00    -0.128 OA 
HETATM    4  C   UNL     1      -8.247  13.166  67.298  1.00  0.00    -0.168 C  
ENDROOT
BRANCH   2   5
HETATM    5  C   UNL     1     -10.612  12.490  66.500  1.00  0.00    -0.242 C  
BRANCH   5   6
HETATM    6  C   UNL     1     -11.584  12.249  67.654  1.00  0.00    -0.354 C  
HETATM    7  H   UNL     1     -11.575  11.301  69.388  1.00  0.00     0.000 HD 
HETATM    8  O   UNL     1     -10.971  11.451  68.671  1.00  0.00    -0.190 OA 
BRANCH   6   9
HETATM    9  C   UNL     1     -11.968  13.625  68.246  1.00  0.00    -0.350 C  
HETATM   10  H   UNL     1     -12.981  14.367  69.792  1.00  0.00     0.000 HD 
HETATM   11  O   UNL     1     -12.746  13.521  69.429  1.00  0.00     0.074 OA 
ENDBRANCH   6   9
ENDBRANCH   5   6
ENDBRANCH   2   5
BRANCH   4  12
HETATM   12  C   UNL     1      -7.765  11.758  67.500  1.00  0.00    -0.143 A  
HETATM   13  C   UNL     1      -7.360  11.365  68.780  1.00  0.00    -0.114 A  
HETATM   14  C   UNL     1      -7.627  10.808  66.438  1.00  0.00    -0.141 A  
HETATM   15  C   UNL     1      -7.336   9.434  66.707  1.00  0.00    -0.086 A  
HETATM   16  I   UNL     1      -7.823  11.521  64.407  1.00  0.00     2.581 I  
HETATM   17  I   UNL     1      -6.644  12.867  70.157  1.00  0.00     1.028 I  
HETATM   18  C   UNL     1      -7.327   9.041  68.066  1.00  0.00    -0.084 A  
HETATM   19  I   UNL     1      -7.965   7.043  68.581  1.00  0.00    -0.122 I  
HETATM   20  C   UNL     1      -7.234  10.004  69.110  1.00  0.00    -0.076 A  
BRANCH  15  21
HETATM   21  C   UNL     1      -7.166   8.446  65.562  1.00  0.00    -0.079 C  
HETATM   22  O   UNL     1      -6.016   8.149  65.225  1.00  0.00    -0.044 OA 
HETATM   23  N   UNL     1      -8.259   7.798  64.947  1.00  0.00    -0.133 N  
HETATM   24  C   UNL     1      -9.624   8.307  64.876  1.00  0.00     1.338 C  
BRANCH  23  25
HETATM   25  C   UNL     1      -7.975   6.625  64.083  1.00  0.00    -0.084 C  
BRANCH  25  26
HETATM   26  C   UNL     1      -8.432   5.257  64.635  1.00  0.00    -0.142 C  
HETATM   27  H   UNL     1      -8.838   3.419  63.948  1.00  0.00     0.000 HD 
HETATM   28  O   UNL     1      -8.557   4.261  63.609  1.00  0.00    -0.099 OA 
BRANCH  26  29
HETATM   29  C   UNL     1      -7.428   4.693  65.655  1.00  0.00    -0.081 C  
HETATM   30  H   UNL     1      -7.123   2.978  66.574  1.00  0.00     0.000 HD 
HETATM   31  O   UNL     1      -7.743   3.327  65.944  1.00  0.00    -0.080 OA 
ENDBRANCH  26  29
ENDBRANCH  25  26
ENDBRANCH  23  25
ENDBRANCH  15  21
BRANCH  20  32
HETATM   32  N   UNL     1      -7.118   9.663  70.489  1.00  0.00    -0.129 N  
HETATM   33  C   UNL     1      -6.664   8.419  70.908  1.00  0.00    -0.042 C  
HETATM   34  H   UNL     1      -7.377  10.356  71.191  1.00  0.00     0.000 HD 
HETATM   35  H   UNL     1      -4.656  10.962  72.913  1.00  0.00     0.000 HD 
HETATM   36  H   UNL     1      -5.145   5.331  72.637  1.00  0.00     0.000 HD 
HETATM   37  C   UNL     1      -6.459   8.328  72.424  1.00  0.00    -0.085 C  
HETATM   38  O   UNL     1      -6.381   7.495  70.147  1.00  0.00    -0.033 OA 
HETATM   39  O   UNL     1      -5.201   6.238  72.360  1.00  0.00    -0.029 OA 
HETATM   40  O   UNL     1      -5.437  10.487  72.652  1.00  0.00    -0.291 OA 
HETATM   41  C   UNL     1      -5.206   9.091  72.844  1.00  0.00    -0.075 C  
HETATM   42  C   UNL     1      -6.370   6.872  72.868  1.00  0.00    -0.058 C  
ENDBRANCH  20  32
ENDBRANCH   4  12
TORSDOF 9
ENDMDL
MODEL      144
REMARK 921   NORMALIZED FREE ENERGY PREDICTED BY IDOCK:    4.39 KCAL/MOL
REMARK 922        TOTAL FREE ENERGY PREDICTED BY IDOCK:    5.40 KCAL/MOL
REMARK 923 INTER-LIGAND FREE ENERGY PREDICTED BY IDOCK:   -1.03 KCAL/MOL
REMARK 924 INTRA-LIGAND FREE ENERGY PREDICTED BY IDOCK:    6.43 KCAL/MOL
REMARK 927      BINDING AFFINITY PREDICTED BY RF-SCORE:    0.00 PKD
ROOT
HETATM    1  C   UNL     1     -10.943  17.444  64.791  1.00  0.00     0.738 C  
HETATM    2  N   UNL     1     -10.529  16.550  65.871  1.00  0.00    -0.340 N  
HETATM    3  O   UNL     1     -11.322  14.747  64.655  1.00  0.00    -0.389 OA 
HETATM    4  C   UNL     1     -10.832  15.177  65.694  1.00  0.00    -0.360 C  
ENDROOT
BRANCH   2   5
HETATM    5  C   UNL     1      -9.615  17.131  66.873  1.00  0.00    -0.262 C  
BRANCH   5   6
HETATM    6  C   UNL     1      -9.712  18.623  67.191  1.00  0.00    -0.302 C  
HETATM    7  H   UNL     1     -11.080  20.045  67.087  1.00  0.00     0.000 HD 
HETATM    8  O   UNL     1     -11.020  19.118  66.889  1.00  0.00    -0.394 OA 
BRANCH   6   9
HETATM    9  C   UNL     1      -9.431  18.803  68.701  1.00  0.00    -0.368 C  
HETATM   10  H   UNL     1      -8.167  18.130  70.085  1.00  0.00     0.000 HD 
HETATM   11  O   UNL     1      -8.339  18.019  69.158  1.00  0.00    -0.078 OA 
ENDBRANCH   6   9
ENDBRANCH   5   6
ENDBRANCH   2   5
BRANCH   4  12
HETATM   12  C   UNL     1     -10.535  14.167  66.765  1.00  0.00    -0.277 A  
HETATM   13  C   UNL     1     -11.020  14.397  68.056  1.00  0.00    -0.258 A  
HETATM   14  C   UNL     1      -9.717  13.010  66.556  1.00  0.00    -0.266 A  
HETATM   15  C   UNL     1      -9.611  11.990  67.554  1.00  0.00    -0.177 A  
HETATM   16  I   UNL     1      -8.607  12.871  64.707  1.00  0.00     4.692 I  
HETATM   17  I   UNL     1     -11.399  16.428  68.685  1.00  0.00     0.085 I  
HETATM   18  C   UNL     1     -10.452  12.117  68.684  1.00  0.00    -0.216 A  
HETATM   19  I   UNL     1     -11.194  10.329  69.640  1.00  0.00    -0.328 I  
HETATM   20  C   UNL     1     -11.079  13.355  68.999  1.00  0.00    -0.249 A  
BRANCH  15  21
HETATM   21  C   UNL     1      -8.715  10.781  67.323  1.00  0.00    -0.130 C  
HETATM   22  O   UNL     1      -7.514  10.899  67.583  1.00  0.00    -0.092 OA 
HETATM   23  N   UNL     1      -9.218   9.526  66.920  1.00  0.00    -0.140 N  
HETATM   24  C   UNL     1     -10.446   9.301  66.166  1.00  0.00     0.112 C  
BRANCH  23  25
HETATM   25  C   UNL     1      -8.326   8.347  67.045  1.00  0.00    -0.114 C  
BRANCH  25  26
HETATM   26  C   UNL     1      -7.539   7.959  65.775  1.00  0.00    -0.083 C  
HETATM   27  H   UNL     1      -7.061   8.758  64.001  1.00  0.00     0.000 HD 
HETATM   28  O   UNL     1      -7.546   8.996  64.783  1.00  0.00    -0.100 OA 
BRANCH  26  29
HETATM   29  C   UNL     1      -6.059   7.681  66.088  1.00  0.00    -0.038 C  
HETATM   30  H   UNL     1      -4.861   7.855  67.642  1.00  0.00     0.000 HD 
HETATM   31  O   UNL     1      -5.776   8.027  67.448  1.00  0.00    -0.036 OA 
ENDBRANCH  26  29
ENDBRANCH  25  26
ENDBRANCH  23  25
ENDBRANCH  15  21
BRANCH  20  32
HETATM   32  N   UNL     1     -11.852  13.569  70.178  1.00  0.00    -0.451 N  
HETATM   33  C   UNL     1     -11.473  14.480  71.155  1.00  0.00    -0.043 C  
HETATM   34  H   UNL     1     -12.712  13.036  70.307  1.00  0.00     0.000 HD 
HETATM   35  H   UNL     1     -15.135  15.238  70.425  1.00  0.00     0.000 HD 
HETATM   36  H   UNL     1     -11.131  17.084  73.972  1.00  0.00     0.000 HD 
HETATM   37  C   UNL     1     -12.531  14.671  72.248  1.00  0.00    -0.387 C  
HETATM   38  O   UNL     1     -10.430  15.130  71.126  1.00  0.00     0.046 OA 
HETATM   39  O   UNL     1     -11.512  16.670  73.206  1.00  0.00     0.049 OA 
HETATM   40  O   UNL     1     -14.406  14.724  70.751  1.00  0.00     0.032 OA 
HETATM   41  C   UNL     1     -13.702  15.497  71.723  1.00  0.00    -0.483 C  
HETATM   42  C   UNL     1     -11.919  15.334  73.478  1.00  0.00    -0.421 C  
ENDBRANCH  20  32
ENDBRANCH   4  12
TORSDOF 9
ENDMDL
MODEL      145
REMARK 921   NORMALIZED FREE ENERGY PREDICTED BY IDOCK:    4.64 KCAL/MOL
REMARK 922        TOTAL FREE ENERGY PREDICTED BY IDOCK:    5.77 KCAL/MOL
REMARK 923 INTER-LIGAND FREE ENERGY PREDICTED BY IDOCK:   -2.15 KCAL/MOL
REMARK 924 INTRA-LIGAND FREE ENERGY PREDICTED BY IDOCK:    7.93 KCAL/MOL
REMARK 927      BINDING AFFINITY PREDICTED BY RF-SCORE:    0.00 PKD
ROOT
HETATM    1  C   UNL     1     -13.991  15.731  70.437  1.00  0.00     1.446 C  
HETATM    2  N   UNL     1     -12.825  14.973  69.985  1.00  0.00    -0.154 N  
HETATM    3  O   UNL     1     -11.908  16.926  69.147  1.00  0.00     0.450 OA 
HETATM    4  C   UNL     1     -11.839  15.709  69.283  1.00  0.00    -0.363 C  
ENDROOT
BRANCH   2   5
HETATM    5  C   UNL     1     -12.684  13.615  70.543  1.00  0.00    -0.190 C  
BRANCH   5   6
HETATM    6  C   UNL     1     -13.512  13.224  71.767  1.00  0.00    -0.354 C  
HETATM    7  H   UNL     1     -14.155  11.559  72.615  1.00  0.00     0.000 HD 
HETATM    8  O   UNL     1     -13.641  11.802  71.854  1.00  0.00    -0.257 OA 
BRANCH   6   9
HETATM    9  C   UNL     1     -12.778  13.750  73.022  1.00  0.00     0.190 C  
HETATM   10  H   UNL     1     -11.101  14.720  73.486  1.00  0.00     0.000 HD 
HETATM   11  O   UNL     1     -11.552  14.397  72.714  1.00  0.00     0.333 OA 
ENDBRANCH   6   9
ENDBRANCH   5   6
ENDBRANCH   2   5
BRANCH   4  12
HETATM   12  C   UNL     1     -10.633  15.035  68.693  1.00  0.00    -0.237 A  
HETATM   13  C   UNL     1      -9.549  15.826  68.299  1.00  0.00    -0.201 A  
HETATM   14  C   UNL     1     -10.557  13.627  68.443  1.00  0.00    -0.251 A  
HETATM   15  C   UNL     1      -9.328  13.011  68.048  1.00  0.00    -0.213 A  
HETATM   16  I   UNL     1     -12.368  12.462  68.631  1.00  0.00     1.224 I  
HETATM   17  I   UNL     1      -9.900  17.885  67.754  1.00  0.00    -0.361 I  
HETATM   18  C   UNL     1      -8.176  13.834  68.052  1.00  0.00    -0.164 A  
HETATM   19  I   UNL     1      -6.266  12.954  68.539  1.00  0.00    -0.112 I  
HETATM   20  C   UNL     1      -8.285  15.252  68.072  1.00  0.00    -0.141 A  
BRANCH  15  21
HETATM   21  C   UNL     1      -9.274  11.518  67.761  1.00  0.00    -0.165 C  
HETATM   22  O   UNL     1      -8.931  11.163  66.630  1.00  0.00    -0.160 OA 
HETATM   23  N   UNL     1      -9.508  10.543  68.753  1.00  0.00    -0.172 N  
HETATM   24  C   UNL     1     -10.322  10.721  69.951  1.00  0.00     0.075 C  
BRANCH  23  25
HETATM   25  C   UNL     1      -9.111   9.143  68.460  1.00  0.00    -0.132 C  
BRANCH  25  26
HETATM   26  C   UNL     1      -8.381   8.397  69.598  1.00  0.00    -0.122 C  
HETATM   27  H   UNL     1      -7.717   8.765  71.452  1.00  0.00     0.000 HD 
HETATM   28  O   UNL     1      -8.166   9.223  70.752  1.00  0.00    -0.172 OA 
BRANCH  26  29
HETATM   29  C   UNL     1      -9.188   7.183  70.090  1.00  0.00    -0.155 C  
HETATM   30  H   UNL     1     -10.915   6.337  69.662  1.00  0.00     0.000 HD 
HETATM   31  O   UNL     1     -10.416   7.087  69.359  1.00  0.00    -0.200 OA 
ENDBRANCH  26  29
ENDBRANCH  25  26
ENDBRANCH  23  25
ENDBRANCH  15  21
BRANCH  20  32
HETATM   32  N   UNL     1      -7.166  16.130  67.973  1.00  0.00    -0.125 N  
HETATM   33  C   UNL     1      -6.926  16.898  66.841  1.00  0.00    -0.216 C  
HETATM   34  H   UNL     1      -6.521  16.197  68.760  1.00  0.00     0.000 HD 
HETATM   35  H   UNL     1      -6.651  19.307  69.779  1.00  0.00     0.000 HD 
HETATM   36  H   UNL     1      -5.973  19.498  64.164  1.00  0.00     0.000 HD 
HETATM   37  C   UNL     1      -5.771  17.889  67.015  1.00  0.00    -0.163 C  
HETATM   38  O   UNL     1      -7.607  16.850  65.818  1.00  0.00    -0.206 OA 
HETATM   39  O   UNL     1      -6.275  19.184  65.009  1.00  0.00    -0.264 OA 
HETATM   40  O   UNL     1      -6.387  18.579  69.229  1.00  0.00    -0.246 OA 
HETATM   41  C   UNL     1      -6.195  19.059  67.899  1.00  0.00    -0.207 C  
HETATM   42  C   UNL     1      -5.286  18.394  65.660  1.00  0.00    -0.172 C  
ENDBRANCH  20  32
ENDBRANCH   4  12
TORSDOF 9
ENDMDL
MODEL      146
REMARK 921   NORMALIZED FREE ENERGY PREDICTED BY IDOCK:    4.73 KCAL/MOL
REMARK 922        TOTAL FREE ENERGY PREDICTED BY IDOCK:    5.92 KCAL/MOL
REMARK 923 INTER-LIGAND FREE ENERGY PREDICTED BY IDOCK:    5.16 KCAL/MOL
REMARK 924 INTRA-LIGAND FREE ENERGY PREDICTED BY IDOCK:    0.76 KCAL/MOL
REMARK 927      BINDING AFFINITY PREDICTED BY RF-SCORE:    0.00 PKD
ROOT
HETATM    1  C   UNL     1     -13.676   9.930  69.054  1.00  0.00     5.851 C  
HETATM    2  N   UNL     1     -12.327  10.322  69.458  1.00  0.00     0.067 N  
HETATM    3  O   UNL     1     -11.507   8.356  68.553  1.00  0.00     0.672 OA 
HETATM    4  C   UNL     1     -11.298   9.387  69.182  1.00  0.00     0.194 C  
ENDROOT
BRANCH   2   5
HETATM    5  C   UNL     1     -12.156  11.734  69.848  1.00  0.00    -0.287 C  
BRANCH   5   6
HETATM    6  C   UNL     1     -12.306  12.123  71.319  1.00  0.00    -0.070 C  
HETATM    7  H   UNL     1     -12.678  13.762  72.358  1.00  0.00     0.000 HD 
HETATM    8  O   UNL     1     -12.584  13.520  71.444  1.00  0.00    -0.348 OA 
BRANCH   6   9
HETATM    9  C   UNL     1     -13.485  11.311  71.904  1.00  0.00    -0.174 C  
HETATM   10  H   UNL     1     -14.438  11.084  73.639  1.00  0.00     0.000 HD 
HETATM   11  O   UNL     1     -13.714  11.583  73.279  1.00  0.00     2.045 OA 
ENDBRANCH   6   9
ENDBRANCH   5   6
ENDBRANCH   2   5
BRANCH   4  12
HETATM   12  C   UNL     1      -9.883   9.632  69.620  1.00  0.00    -0.233 A  
HETATM   13  C   UNL     1      -9.440   9.052  70.813  1.00  0.00    -0.251 A  
HETATM   14  C   UNL     1      -8.974  10.489  68.919  1.00  0.00    -0.172 A  
HETATM   15  C   UNL     1      -7.590  10.548  69.275  1.00  0.00    -0.134 A  
HETATM   16  I   UNL     1      -9.765  11.729  67.336  1.00  0.00    -0.204 I  
HETATM   17  I   UNL     1     -10.887   8.583  72.346  1.00  0.00    -0.014 I  
HETATM   18  C   UNL     1      -7.145   9.626  70.252  1.00  0.00    -0.127 A  
HETATM   19  I   UNL     1      -5.130   8.861  70.126  1.00  0.00    -0.028 I  
HETATM   20  C   UNL     1      -8.067   8.950  71.099  1.00  0.00    -0.160 A  
BRANCH  15  21
HETATM   21  C   UNL     1      -6.646  11.486  68.535  1.00  0.00    -0.063 C  
HETATM   22  O   UNL     1      -6.494  11.309  67.323  1.00  0.00    -0.068 OA 
HETATM   23  N   UNL     1      -6.025  12.588  69.160  1.00  0.00    -0.079 N  
HETATM   24  C   UNL     1      -5.719  12.704  70.582  1.00  0.00    -0.151 C  
BRANCH  23  25
HETATM   25  C   UNL     1      -5.401  13.618  68.292  1.00  0.00    -0.107 C  
BRANCH  25  26
HETATM   26  C   UNL     1      -5.696  15.086  68.669  1.00  0.00    -0.091 C  
HETATM   27  H   UNL     1      -6.749  16.637  67.961  1.00  0.00     0.000 HD 
HETATM   28  O   UNL     1      -6.566  15.733  67.729  1.00  0.00    -0.130 OA 
BRANCH  26  29
HETATM   29  C   UNL     1      -6.394  15.191  70.036  1.00  0.00    -0.153 C  
HETATM   30  H   UNL     1      -8.154  15.759  70.712  1.00  0.00     0.000 HD 
HETATM   31  O   UNL     1      -7.723  15.694  69.867  1.00  0.00    -0.092 OA 
ENDBRANCH  26  29
ENDBRANCH  25  26
ENDBRANCH  23  25
ENDBRANCH  15  21
BRANCH  20  32
HETATM   32  N   UNL     1      -7.673   8.092  72.166  1.00  0.00    -0.098 N  
HETATM   33  C   UNL     1      -7.477   6.728  71.986  1.00  0.00    -0.093 C  
HETATM   34  H   UNL     1      -7.530   8.492  73.094  1.00  0.00     0.000 HD 
HETATM   35  H   UNL     1      -4.383   7.964  73.835  1.00  0.00     0.000 HD 
HETATM   36  H   UNL     1      -6.440   3.019  72.005  1.00  0.00     0.000 HD 
HETATM   37  C   UNL     1      -6.896   6.031  73.221  1.00  0.00    -0.076 C  
HETATM   38  O   UNL     1      -7.677   6.137  70.926  1.00  0.00    -0.094 OA 
HETATM   39  O   UNL     1      -6.321   3.961  72.065  1.00  0.00    -0.013 OA 
HETATM   40  O   UNL     1      -5.304   7.752  73.733  1.00  0.00    -0.045 OA 
HETATM   41  C   UNL     1      -5.417   6.372  73.385  1.00  0.00    -0.038 C  
HETATM   42  C   UNL     1      -7.087   4.521  73.125  1.00  0.00    -0.077 C  
ENDBRANCH  20  32
ENDBRANCH   4  12
TORSDOF 9
ENDMDL
MODEL      147
REMARK 921   NORMALIZED FREE ENERGY PREDICTED BY IDOCK:    5.11 KCAL/MOL
REMARK 922        TOTAL FREE ENERGY PREDICTED BY IDOCK:    6.50 KCAL/MOL
REMARK 923 INTER-LIGAND FREE ENERGY PREDICTED BY IDOCK:   -0.74 KCAL/MOL
REMARK 924 INTRA-LIGAND FREE ENERGY PREDICTED BY IDOCK:    7.25 KCAL/MOL
REMARK 927      BINDING AFFINITY PREDICTED BY RF-SCORE:    0.00 PKD
ROOT
HETATM    1  C   UNL     1      -6.706   8.447  63.417  1.00  0.00    -0.085 C  
HETATM    2  N   UNL     1      -7.390   8.569  64.703  1.00  0.00    -0.089 N  
HETATM    3  O   UNL     1      -5.868  10.194  65.334  1.00  0.00    -0.078 OA 
HETATM    4  C   UNL     1      -6.819   9.478  65.628  1.00  0.00    -0.087 C  
ENDROOT
BRANCH   2   5
HETATM    5  C   UNL     1      -8.727   7.950  64.784  1.00  0.00     0.217 C  
BRANCH   5   6
HETATM    6  C   UNL     1      -9.958   8.849  64.895  1.00  0.00     1.371 C  
HETATM    7  H   UNL     1     -11.258   9.366  66.290  1.00  0.00     0.000 HD 
HETATM    8  O   UNL     1     -10.494   8.807  66.221  1.00  0.00    -0.144 OA 
BRANCH   6   9
HETATM    9  C   UNL     1      -9.518  10.295  64.566  1.00  0.00    -0.298 C  
HETATM   10  H   UNL     1      -8.966  11.374  62.985  1.00  0.00     0.000 HD 
HETATM   11  O   UNL     1      -9.236  10.486  63.187  1.00  0.00    -0.230 OA 
ENDBRANCH   6   9
ENDBRANCH   5   6
ENDBRANCH   2   5
BRANCH   4  12
HETATM   12  C   UNL     1      -7.375   9.636  67.014  1.00  0.00    -0.087 A  
HETATM   13  C   UNL     1      -7.842  10.894  67.409  1.00  0.00    -0.113 A  
HETATM   14  C   UNL     1      -7.390   8.584  67.985  1.00  0.00    -0.092 A  
HETATM   15  C   UNL     1      -8.089   8.731  69.225  1.00  0.00    -0.110 A  
HETATM   16  I   UNL     1      -6.282   6.781  67.547  1.00  0.00    -0.044 I  
HETATM   17  I   UNL     1      -7.035  12.655  66.457  1.00  0.00     2.289 I  
HETATM   18  C   UNL     1      -8.868   9.902  69.379  1.00  0.00    -0.187 A  
HETATM   19  I   UNL     1     -10.683   9.803  70.544  1.00  0.00    -0.309 I  
HETATM   20  C   UNL     1      -8.675  11.031  68.535  1.00  0.00    -0.159 A  
BRANCH  15  21
HETATM   21  C   UNL     1      -8.069   7.612  70.256  1.00  0.00    -0.114 C  
HETATM   22  O   UNL     1      -8.004   6.451  69.841  1.00  0.00    -0.111 OA 
HETATM   23  N   UNL     1      -8.028   7.857  71.645  1.00  0.00    -0.095 N  
HETATM   24  C   UNL     1      -8.528   9.051  72.317  1.00  0.00     0.424 C  
BRANCH  23  25
HETATM   25  C   UNL     1      -7.679   6.726  72.540  1.00  0.00    -0.096 C  
BRANCH  25  26
HETATM   26  C   UNL     1      -6.173   6.408  72.669  1.00  0.00    -0.054 C  
HETATM   27  H   UNL     1      -4.776   6.302  74.101  1.00  0.00     0.000 HD 
HETATM   28  O   UNL     1      -5.703   6.498  74.022  1.00  0.00    -0.053 OA 
BRANCH  26  29
HETATM   29  C   UNL     1      -5.854   4.977  72.202  1.00  0.00    -0.020 C  
HETATM   30  H   UNL     1      -5.269   4.106  70.536  1.00  0.00     0.000 HD 
HETATM   31  O   UNL     1      -5.466   4.990  70.825  1.00  0.00    -0.004 OA 
ENDBRANCH  26  29
ENDBRANCH  25  26
ENDBRANCH  23  25
ENDBRANCH  15  21
BRANCH  20  32
HETATM   32  N   UNL     1      -9.356  12.271  68.708  1.00  0.00    -0.402 N  
HETATM   33  C   UNL     1      -9.655  13.107  67.640  1.00  0.00    -0.210 C  
HETATM   34  H   UNL     1      -9.634  12.554  69.648  1.00  0.00     0.000 HD 
HETATM   35  H   UNL     1     -12.903  12.766  69.603  1.00  0.00     0.000 HD 
HETATM   36  H   UNL     1     -11.058  15.609  65.070  1.00  0.00     0.000 HD 
HETATM   37  C   UNL     1     -10.535  14.299  68.031  1.00  0.00    -0.235 C  
HETATM   38  O   UNL     1      -9.316  12.889  66.478  1.00  0.00    -0.246 OA 
HETATM   39  O   UNL     1     -11.088  14.936  65.741  1.00  0.00    -0.331 OA 
HETATM   40  O   UNL     1     -12.007  13.046  69.453  1.00  0.00    -0.306 OA 
HETATM   41  C   UNL     1     -11.973  13.849  68.273  1.00  0.00    -0.357 C  
HETATM   42  C   UNL     1     -10.488  15.378  66.954  1.00  0.00    -0.295 C  
ENDBRANCH  20  32
ENDBRANCH   4  12
TORSDOF 9
ENDMDL
MODEL      148
REMARK 921   NORMALIZED FREE ENERGY PREDICTED BY IDOCK:    5.52 KCAL/MOL
REMARK 922        TOTAL FREE ENERGY PREDICTED BY IDOCK:    7.13 KCAL/MOL
REMARK 923 INTER-LIGAND FREE ENERGY PREDICTED BY IDOCK:   -0.80 KCAL/MOL
REMARK 924 INTRA-LIGAND FREE ENERGY PREDICTED BY IDOCK:    7.93 KCAL/MOL
REMARK 927      BINDING AFFINITY PREDICTED BY RF-SCORE:    0.00 PKD
ROOT
HETATM    1  C   UNL     1     -10.964   6.242  71.851  1.00  0.00    -0.256 C  
HETATM    2  N   UNL     1     -10.366   6.837  70.657  1.00  0.00    -0.199 N  
HETATM    3  O   UNL     1     -12.374   7.893  70.202  1.00  0.00     0.441 OA 
HETATM    4  C   UNL     1     -11.225   7.634  69.861  1.00  0.00    -0.085 C  
ENDROOT
BRANCH   2   5
HETATM    5  C   UNL     1      -8.895   6.766  70.571  1.00  0.00    -0.151 C  
BRANCH   5   6
HETATM    6  C   UNL     1      -8.103   6.257  71.775  1.00  0.00    -0.103 C  
HETATM    7  H   UNL     1      -6.561   5.065  72.102  1.00  0.00     0.000 HD 
HETATM    8  O   UNL     1      -7.053   5.382  71.354  1.00  0.00    -0.065 OA 
BRANCH   6   9
HETATM    9  C   UNL     1      -7.491   7.483  72.492  1.00  0.00    -0.079 C  
HETATM   10  H   UNL     1      -6.561   9.183  72.031  1.00  0.00     0.000 HD 
HETATM   11  O   UNL     1      -6.936   8.430  71.590  1.00  0.00    -0.072 OA 
ENDBRANCH   6   9
ENDBRANCH   5   6
ENDBRANCH   2   5
BRANCH   4  12
HETATM   12  C   UNL     1     -10.757   8.234  68.566  1.00  0.00    -0.065 A  
HETATM   13  C   UNL     1     -10.840   9.621  68.401  1.00  0.00    -0.167 A  
HETATM   14  C   UNL     1     -10.295   7.458  67.456  1.00  0.00    -0.251 A  
HETATM   15  C   UNL     1      -9.695   8.081  66.316  1.00  0.00    -0.197 A  
HETATM   16  I   UNL     1     -10.572   5.316  67.527  1.00  0.00     0.299 I  
HETATM   17  I   UNL     1     -12.317  10.721  69.529  1.00  0.00     0.381 I  
HETATM   18  C   UNL     1      -9.462   9.474  66.403  1.00  0.00    -0.195 A  
HETATM   19  I   UNL     1      -7.745  10.311  65.396  1.00  0.00    -0.067 I  
HETATM   20  C   UNL     1     -10.117  10.269  67.384  1.00  0.00    -0.202 A  
BRANCH  15  21
HETATM   21  C   UNL     1      -9.234   7.240  65.134  1.00  0.00     0.739 C  
HETATM   22  O   UNL     1      -9.952   6.298  64.785  1.00  0.00     1.746 OA 
HETATM   23  N   UNL     1      -8.084   7.553  64.379  1.00  0.00    -0.113 N  
HETATM   24  C   UNL     1      -6.921   8.292  64.860  1.00  0.00    -0.074 C  
BRANCH  23  25
HETATM   25  C   UNL     1      -7.909   6.881  63.067  1.00  0.00    -0.108 C  
BRANCH  25  26
HETATM   26  C   UNL     1      -6.452   6.708  62.588  1.00  0.00    -0.039 C  
HETATM   27  H   UNL     1      -4.657   7.541  62.903  1.00  0.00     0.000 HD 
HETATM   28  O   UNL     1      -5.554   7.647  63.198  1.00  0.00    -0.048 OA 
BRANCH  26  29
HETATM   29  C   UNL     1      -5.904   5.312  62.930  1.00  0.00    -0.014 C  
HETATM   30  H   UNL     1      -4.852   4.497  64.382  1.00  0.00     0.000 HD 
HETATM   31  O   UNL     1      -5.190   5.359  64.170  1.00  0.00    -0.009 OA 
ENDBRANCH  26  29
ENDBRANCH  25  26
ENDBRANCH  23  25
ENDBRANCH  15  21
BRANCH  20  32
HETATM   32  N   UNL     1     -10.001  11.688  67.454  1.00  0.00    -0.183 N  
HETATM   33  C   UNL     1     -10.015  12.489  66.319  1.00  0.00    -0.252 C  
HETATM   34  H   UNL     1      -9.905  12.130  68.368  1.00  0.00     0.000 HD 
HETATM   35  H   UNL     1     -12.517  14.077  68.714  1.00  0.00     0.000 HD 
HETATM   36  H   UNL     1     -10.360  15.198  63.604  1.00  0.00     0.000 HD 
HETATM   37  C   UNL     1     -10.048  13.988  66.636  1.00  0.00    -0.276 C  
HETATM   38  O   UNL     1     -10.069  12.055  65.170  1.00  0.00    -0.259 OA 
HETATM   39  O   UNL     1     -10.609  14.689  64.367  1.00  0.00    -0.197 OA 
HETATM   40  O   UNL     1     -11.656  13.818  68.409  1.00  0.00    -0.291 OA 
HETATM   41  C   UNL     1     -11.432  14.404  67.127  1.00  0.00    -0.362 C  
HETATM   42  C   UNL     1      -9.649  14.805  65.411  1.00  0.00    -0.029 C  
ENDBRANCH  20  32
ENDBRANCH   4  12
TORSDOF 9
ENDMDL
MODEL      149
REMARK 921   NORMALIZED FREE ENERGY PREDICTED BY IDOCK:    5.62 KCAL/MOL
REMARK 922        TOTAL FREE ENERGY PREDICTED BY IDOCK:    7.27 KCAL/MOL
REMARK 923 INTER-LIGAND FREE ENERGY PREDICTED BY IDOCK:    0.07 KCAL/MOL
REMARK 924 INTRA-LIGAND FREE ENERGY PREDICTED BY IDOCK:    7.20 KCAL/MOL
REMARK 927      BINDING AFFINITY PREDICTED BY RF-SCORE:    0.00 PKD
ROOT
HETATM    1  C   UNL     1      -6.839  18.786  67.156  1.00  0.00    -0.199 C  
HETATM    2  N   UNL     1      -7.616  17.548  67.193  1.00  0.00    -0.194 N  
HETATM    3  O   UNL     1      -5.665  16.339  66.896  1.00  0.00    -0.342 OA 
HETATM    4  C   UNL     1      -6.887  16.350  66.993  1.00  0.00    -0.210 C  
ENDROOT
BRANCH   2   5
HETATM    5  C   UNL     1      -8.997  17.669  67.698  1.00  0.00    -0.240 C  
BRANCH   5   6
HETATM    6  C   UNL     1      -9.229  17.800  69.203  1.00  0.00     0.073 C  
HETATM    7  H   UNL     1     -10.631  17.305  70.505  1.00  0.00     0.000 HD 
HETATM    8  O   UNL     1     -10.487  17.224  69.570  1.00  0.00    -0.276 OA 
BRANCH   6   9
HETATM    9  C   UNL     1      -8.090  17.043  69.925  1.00  0.00     1.389 C  
HETATM   10  H   UNL     1      -6.212  17.359  70.510  1.00  0.00     0.000 HD 
HETATM   11  O   UNL     1      -6.912  17.823  70.066  1.00  0.00     0.347 OA 
ENDBRANCH   6   9
ENDBRANCH   5   6
ENDBRANCH   2   5
BRANCH   4  12
HETATM   12  C   UNL     1      -7.578  15.018  66.925  1.00  0.00     0.076 A  
HETATM   13  C   UNL     1      -8.664  14.869  66.056  1.00  0.00     0.389 A  
HETATM   14  C   UNL     1      -7.233  13.904  67.756  1.00  0.00    -0.164 A  
HETATM   15  C   UNL     1      -7.798  12.609  67.531  1.00  0.00    -0.175 A  
HETATM   16  I   UNL     1      -5.867  14.245  69.396  1.00  0.00    -0.116 I  
HETATM   17  I   UNL     1      -9.816  16.614  65.516  1.00  0.00     0.591 I  
HETATM   18  C   UNL     1      -8.600  12.459  66.374  1.00  0.00     0.083 A  
HETATM   19  I   UNL     1      -8.612  10.559  65.350  1.00  0.00    -0.148 I  
HETATM   20  C   UNL     1      -9.125  13.591  65.691  1.00  0.00     0.657 A  
BRANCH  15  21
HETATM   21  C   UNL     1      -7.439  11.445  68.442  1.00  0.00    -0.111 C  
HETATM   22  O   UNL     1      -6.249  11.128  68.527  1.00  0.00    -0.043 OA 
HETATM   23  N   UNL     1      -8.392  10.789  69.250  1.00  0.00    -0.110 N  
HETATM   24  C   UNL     1      -9.823  10.699  68.982  1.00  0.00    -0.205 C  
BRANCH  23  25
HETATM   25  C   UNL     1      -7.894   9.904  70.333  1.00  0.00    -0.037 C  
BRANCH  25  26
HETATM   26  C   UNL     1      -8.951   9.000  71.004  1.00  0.00    -0.241 C  
HETATM   27  H   UNL     1      -9.301   8.168  72.792  1.00  0.00     0.000 HD 
HETATM   28  O   UNL     1      -8.650   8.724  72.379  1.00  0.00    -0.395 OA 
BRANCH  26  29
HETATM   29  C   UNL     1     -10.344   9.654  70.996  1.00  0.00    -0.222 C  
HETATM   30  H   UNL     1     -12.183   9.123  71.456  1.00  0.00     0.000 HD 
HETATM   31  O   UNL     1     -11.323   8.719  71.461  1.00  0.00    -0.261 OA 
ENDBRANCH  26  29
ENDBRANCH  25  26
ENDBRANCH  23  25
ENDBRANCH  15  21
BRANCH  20  32
HETATM   32  N   UNL     1     -10.019  13.500  64.585  1.00  0.00    -0.632 N  
HETATM   33  C   UNL     1     -11.040  12.559  64.534  1.00  0.00    -0.317 C  
HETATM   34  H   UNL     1      -9.907  14.148  63.805  1.00  0.00     0.000 HD 
HETATM   35  H   UNL     1     -12.680  15.884  63.660  1.00  0.00     0.000 HD 
HETATM   36  H   UNL     1     -14.220  10.451  64.015  1.00  0.00     0.000 HD 
HETATM   37  C   UNL     1     -11.980  12.749  63.340  1.00  0.00    -0.613 C  
HETATM   38  O   UNL     1     -11.227  11.698  65.392  1.00  0.00    -0.279 OA 
HETATM   39  O   UNL     1     -13.708  11.237  64.166  1.00  0.00     0.918 OA 
HETATM   40  O   UNL     1     -12.109  15.138  63.521  1.00  0.00    -0.194 OA 
HETATM   41  C   UNL     1     -12.897  13.949  63.563  1.00  0.00     0.840 C  
HETATM   42  C   UNL     1     -12.802  11.487  63.097  1.00  0.00     0.427 C  
ENDBRANCH  20  32
ENDBRANCH   4  12
TORSDOF 9
ENDMDL
MODEL      150
REMARK 921   NORMALIZED FREE ENERGY PREDICTED BY IDOCK:    5.64 KCAL/MOL
REMARK 922        TOTAL FREE ENERGY PREDICTED BY IDOCK:    7.31 KCAL/MOL
REMARK 923 INTER-LIGAND FREE ENERGY PREDICTED BY IDOCK:    0.10 KCAL/MOL
REMARK 924 INTRA-LIGAND FREE ENERGY PREDICTED BY IDOCK:    7.21 KCAL/MOL
REMARK 927      BINDING AFFINITY PREDICTED BY RF-SCORE:    0.00 PKD
ROOT
HETATM    1  C   UNL     1     -11.103  14.353  70.420  1.00  0.00     0.080 C  
HETATM    2  N   UNL     1     -10.675  13.128  69.747  1.00  0.00     0.418 N  
HETATM    3  O   UNL     1     -12.625  12.092  70.439  1.00  0.00    -0.169 OA 
HETATM    4  C   UNL     1     -11.537  12.011  69.879  1.00  0.00    -0.238 C  
ENDROOT
BRANCH   2   5
HETATM    5  C   UNL     1      -9.556  13.272  68.797  1.00  0.00     0.066 C  
BRANCH   5   6
HETATM    6  C   UNL     1      -8.137  12.948  69.265  1.00  0.00     0.706 C  
HETATM    7  H   UNL     1      -6.588  11.915  68.602  1.00  0.00     0.000 HD 
HETATM    8  O   UNL     1      -7.470  12.116  68.311  1.00  0.00    -0.092 OA 
BRANCH   6   9
HETATM    9  C   UNL     1      -7.369  14.283  69.406  1.00  0.00    -0.011 C  
HETATM   10  H   UNL     1      -6.519  15.384  70.833  1.00  0.00     0.000 HD 
HETATM   11  O   UNL     1      -6.991  14.564  70.746  1.00  0.00     0.233 OA 
ENDBRANCH   6   9
ENDBRANCH   5   6
ENDBRANCH   2   5
BRANCH   4  12
HETATM   12  C   UNL     1     -11.174  10.672  69.306  1.00  0.00    -0.332 A  
HETATM   13  C   UNL     1     -11.023  10.554  67.920  1.00  0.00    -0.295 A  
HETATM   14  C   UNL     1     -11.043   9.483  70.094  1.00  0.00    -0.255 A  
HETATM   15  C   UNL     1     -10.524   8.275  69.529  1.00  0.00    -0.228 A  
HETATM   16  I   UNL     1     -11.699   9.550  72.152  1.00  0.00     0.857 I  
HETATM   17  I   UNL     1     -12.074  11.933  66.633  1.00  0.00     1.551 I  
HETATM   18  C   UNL     1     -10.025   8.355  68.207  1.00  0.00    -0.187 A  
HETATM   19  I   UNL     1      -8.362   7.101  67.641  1.00  0.00    -0.115 I  
HETATM   20  C   UNL     1     -10.359   9.447  67.360  1.00  0.00    -0.263 A  
BRANCH  15  21
HETATM   21  C   UNL     1     -10.418   7.015  70.376  1.00  0.00    -0.206 C  
HETATM   22  O   UNL     1     -11.132   6.056  70.070  1.00  0.00    -0.351 OA 
HETATM   23  N   UNL     1      -9.481   6.877  71.422  1.00  0.00    -0.160 N  
HETATM   24  C   UNL     1      -8.902   7.967  72.200  1.00  0.00    -0.159 C  
BRANCH  23  25
HETATM   25  C   UNL     1      -9.233   5.516  71.959  1.00  0.00    -0.140 C  
BRANCH  25  26
HETATM   26  C   UNL     1     -10.197   5.043  73.069  1.00  0.00    -0.176 C  
HETATM   27  H   UNL     1     -10.840   5.659  74.863  1.00  0.00     0.000 HD 
HETATM   28  O   UNL     1     -10.247   5.950  74.180  1.00  0.00    -0.235 OA 
BRANCH  26  29
HETATM   29  C   UNL     1     -11.640   4.922  72.552  1.00  0.00     0.139 C  
HETATM   30  H   UNL     1     -13.260   6.042  72.539  1.00  0.00     0.000 HD 
HETATM   31  O   UNL     1     -12.368   6.116  72.857  1.00  0.00     0.238 OA 
ENDBRANCH  26  29
ENDBRANCH  25  26
ENDBRANCH  23  25
ENDBRANCH  15  21
BRANCH  20  32
HETATM   32  N   UNL     1      -9.973   9.530  65.990  1.00  0.00    -0.289 N  
HETATM   33  C   UNL     1     -10.024  10.721  65.277  1.00  0.00    -0.282 C  
HETATM   34  H   UNL     1      -9.647   8.686  65.519  1.00  0.00     0.000 HD 
HETATM   35  H   UNL     1      -6.556   9.289  64.614  1.00  0.00     0.000 HD 
HETATM   36  H   UNL     1      -9.606  13.752  62.939  1.00  0.00     0.000 HD 
HETATM   37  C   UNL     1      -9.406  10.616  63.879  1.00  0.00    -0.302 C  
HETATM   38  O   UNL     1     -10.454  11.779  65.732  1.00  0.00    -0.243 OA 
HETATM   39  O   UNL     1      -9.330  13.023  63.483  1.00  0.00     0.846 OA 
HETATM   40  O   UNL     1      -7.504   9.322  64.560  1.00  0.00    -0.098 OA 
HETATM   41  C   UNL     1      -7.883  10.564  63.967  1.00  0.00     0.028 C  
HETATM   42  C   UNL     1      -9.850  11.787  63.007  1.00  0.00    -0.234 C  
ENDBRANCH  20  32
ENDBRANCH   4  12
TORSDOF 9
ENDMDL
MODEL      151
REMARK 921   NORMALIZED FREE ENERGY PREDICTED BY IDOCK:    5.87 KCAL/MOL
REMARK 922        TOTAL FREE ENERGY PREDICTED BY IDOCK:    7.66 KCAL/MOL
REMARK 923 INTER-LIGAND FREE ENERGY PREDICTED BY IDOCK:   -2.36 KCAL/MOL
REMARK 924 INTRA-LIGAND FREE ENERGY PREDICTED BY IDOCK:   10.02 KCAL/MOL
REMARK 927      BINDING AFFINITY PREDICTED BY RF-SCORE:    0.00 PKD
ROOT
HETATM    1  C   UNL     1      -7.446   3.096  73.761  1.00  0.00    -0.056 C  
HETATM    2  N   UNL     1      -7.645   3.684  72.438  1.00  0.00    -0.061 N  
HETATM    3  O   UNL     1      -8.021   5.741  73.430  1.00  0.00    -0.108 OA 
HETATM    4  C   UNL     1      -7.990   5.058  72.412  1.00  0.00    -0.101 C  
ENDROOT
BRANCH   2   5
HETATM    5  C   UNL     1      -7.202   2.863  71.295  1.00  0.00    -0.033 C  
BRANCH   5   6
HETATM    6  C   UNL     1      -6.463   3.535  70.138  1.00  0.00    -0.032 C  
HETATM    7  H   UNL     1      -5.087   4.935  69.911  1.00  0.00     0.000 HD 
HETATM    8  O   UNL     1      -5.546   4.517  70.629  1.00  0.00    -0.011 OA 
BRANCH   6   9
HETATM    9  C   UNL     1      -5.681   2.439  69.377  1.00  0.00    -0.022 C  
HETATM   10  H   UNL     1      -6.046   0.883  68.189  1.00  0.00     0.000 HD 
HETATM   11  O   UNL     1      -6.527   1.556  68.656  1.00  0.00    -0.025 OA 
ENDBRANCH   6   9
ENDBRANCH   5   6
ENDBRANCH   2   5
BRANCH   4  12
HETATM   12  C   UNL     1      -8.302   5.762  71.122  1.00  0.00    -0.123 A  
HETATM   13  C   UNL     1      -8.128   7.148  71.056  1.00  0.00    -0.104 A  
HETATM   14  C   UNL     1      -8.839   5.102  69.971  1.00  0.00    -0.111 A  
HETATM   15  C   UNL     1      -8.951   5.778  68.715  1.00  0.00    -0.116 A  
HETATM   16  I   UNL     1      -9.524   3.064  70.195  1.00  0.00     0.038 I  
HETATM   17  I   UNL     1      -8.254   8.306  72.874  1.00  0.00    -0.065 I  
HETATM   18  C   UNL     1      -8.384   7.072  68.639  1.00  0.00    -0.122 A  
HETATM   19  I   UNL     1      -7.531   7.729  66.767  1.00  0.00    -0.093 I  
HETATM   20  C   UNL     1      -8.066   7.807  69.814  1.00  0.00    -0.117 A  
BRANCH  15  21
HETATM   21  C   UNL     1      -9.551   5.067  67.510  1.00  0.00    -0.145 C  
HETATM   22  O   UNL     1     -10.779   4.961  67.459  1.00  0.00     0.028 OA 
HETATM   23  N   UNL     1      -8.769   4.617  66.425  1.00  0.00    -0.112 N  
HETATM   24  C   UNL     1      -7.358   4.250  66.483  1.00  0.00    -0.080 C  
BRANCH  23  25
HETATM   25  C   UNL     1      -9.469   4.244  65.171  1.00  0.00    -0.172 C  
BRANCH  25  26
HETATM   26  C   UNL     1      -8.633   3.453  64.142  1.00  0.00    -0.089 C  
HETATM   27  H   UNL     1      -8.621   1.639  63.292  1.00  0.00     0.000 HD 
HETATM   28  O   UNL     1      -9.135   2.126  63.925  1.00  0.00    -0.095 OA 
BRANCH  26  29
HETATM   29  C   UNL     1      -8.632   4.138  62.765  1.00  0.00    -0.095 C  
HETATM   30  H   UNL     1      -8.620   5.984  62.078  1.00  0.00     0.000 HD 
HETATM   31  O   UNL     1      -8.621   5.560  62.928  1.00  0.00    -0.101 OA 
ENDBRANCH  26  29
ENDBRANCH  25  26
ENDBRANCH  23  25
ENDBRANCH  15  21
BRANCH  20  32
HETATM   32  N   UNL     1      -7.589   9.150  69.800  1.00  0.00    -0.073 N  
HETATM   33  C   UNL     1      -6.701   9.610  68.837  1.00  0.00    -0.046 C  
HETATM   34  H   UNL     1      -7.913   9.795  70.521  1.00  0.00     0.000 HD 
HETATM   35  H   UNL     1      -9.501  12.190  68.949  1.00  0.00     0.000 HD 
HETATM   36  H   UNL     1      -4.569  11.517  66.257  1.00  0.00     0.000 HD 
HETATM   37  C   UNL     1      -6.455  11.121  68.911  1.00  0.00    -0.056 C  
HETATM   38  O   UNL     1      -6.206   8.903  67.961  1.00  0.00    -0.050 OA 
HETATM   39  O   UNL     1      -5.354  11.281  66.740  1.00  0.00    -0.077 OA 
HETATM   40  O   UNL     1      -8.751  11.713  69.282  1.00  0.00     0.236 OA 
HETATM   41  C   UNL     1      -7.661  11.889  68.376  1.00  0.00    -0.131 C  
HETATM   42  C   UNL     1      -5.197  11.500  68.137  1.00  0.00    -0.043 C  
ENDBRANCH  20  32
ENDBRANCH   4  12
TORSDOF 9
ENDMDL
MODEL      152
REMARK 921   NORMALIZED FREE ENERGY PREDICTED BY IDOCK:    5.91 KCAL/MOL
REMARK 922        TOTAL FREE ENERGY PREDICTED BY IDOCK:    7.72 KCAL/MOL
REMARK 923 INTER-LIGAND FREE ENERGY PREDICTED BY IDOCK:    5.24 KCAL/MOL
REMARK 924 INTRA-LIGAND FREE ENERGY PREDICTED BY IDOCK:    2.48 KCAL/MOL
REMARK 927      BINDING AFFINITY PREDICTED BY RF-SCORE:    0.00 PKD
ROOT
HETATM    1  C   UNL     1      -7.718  15.321  65.765  1.00  0.00     3.341 C  
HETATM    2  N   UNL     1      -8.511  14.289  66.432  1.00  0.00     0.253 N  
HETATM    3  O   UNL     1      -8.167  15.363  68.454  1.00  0.00    -0.135 OA 
HETATM    4  C   UNL     1      -8.622  14.403  67.840  1.00  0.00    -0.165 C  
ENDROOT
BRANCH   2   5
HETATM    5  C   UNL     1      -9.315  13.424  65.549  1.00  0.00     0.355 C  
BRANCH   5   6
HETATM    6  C   UNL     1     -10.736  13.852  65.182  1.00  0.00    -0.362 C  
HETATM    7  H   UNL     1     -11.754  15.540  65.038  1.00  0.00     0.000 HD 
HETATM    8  O   UNL     1     -10.871  15.274  65.266  1.00  0.00    -0.351 OA 
BRANCH   6   9
HETATM    9  C   UNL     1     -11.007  13.397  63.730  1.00  0.00     0.035 C  
HETATM   10  H   UNL     1     -12.478  12.584  62.659  1.00  0.00     0.000 HD 
HETATM   11  O   UNL     1     -12.311  12.863  63.552  1.00  0.00    -0.626 OA 
ENDBRANCH   6   9
ENDBRANCH   5   6
ENDBRANCH   2   5
BRANCH   4  12
HETATM   12  C   UNL     1      -9.338  13.364  68.654  1.00  0.00    -0.010 A  
HETATM   13  C   UNL     1     -10.355  13.776  69.522  1.00  0.00     0.376 A  
HETATM   14  C   UNL     1      -8.991  11.975  68.646  1.00  0.00    -0.023 A  
HETATM   15  C   UNL     1      -9.813  11.003  69.298  1.00  0.00    -0.060 A  
HETATM   16  I   UNL     1      -7.158  11.392  67.661  1.00  0.00    -0.118 I  
HETATM   17  I   UNL     1     -10.314  15.790  70.298  1.00  0.00     0.374 I  
HETATM   18  C   UNL     1     -11.043  11.463  69.826  1.00  0.00    -0.126 A  
HETATM   19  I   UNL     1     -12.741  10.130  69.835  1.00  0.00     0.993 I  
HETATM   20  C   UNL     1     -11.279  12.850  70.039  1.00  0.00     0.290 A  
BRANCH  15  21
HETATM   21  C   UNL     1      -9.412   9.535  69.302  1.00  0.00    -0.169 C  
HETATM   22  O   UNL     1      -9.081   9.028  68.227  1.00  0.00    -0.133 OA 
HETATM   23  N   UNL     1      -9.316   8.775  70.487  1.00  0.00    -0.174 N  
HETATM   24  C   UNL     1     -10.052   9.022  71.722  1.00  0.00    -0.303 C  
BRANCH  23  25
HETATM   25  C   UNL     1      -8.607   7.473  70.423  1.00  0.00    -0.143 C  
BRANCH  25  26
HETATM   26  C   UNL     1      -7.097   7.512  70.742  1.00  0.00    -0.059 C  
HETATM   27  H   UNL     1      -5.739   8.813  71.433  1.00  0.00     0.000 HD 
HETATM   28  O   UNL     1      -6.669   8.789  71.236  1.00  0.00    -0.064 OA 
BRANCH  26  29
HETATM   29  C   UNL     1      -6.720   6.488  71.826  1.00  0.00    -0.063 C  
HETATM   30  H   UNL     1      -7.474   5.859  73.533  1.00  0.00     0.000 HD 
HETATM   31  O   UNL     1      -7.707   6.491  72.863  1.00  0.00    -0.100 OA 
ENDBRANCH  26  29
ENDBRANCH  25  26
ENDBRANCH  23  25
ENDBRANCH  15  21
BRANCH  20  32
HETATM   32  N   UNL     1     -12.454  13.363  70.661  1.00  0.00    -0.334 N  
HETATM   33  C   UNL     1     -12.418  14.016  71.887  1.00  0.00    -0.204 C  
HETATM   34  H   UNL     1     -13.352  13.247  70.190  1.00  0.00     0.000 HD 
HETATM   35  H   UNL     1     -14.460  16.272  69.595  1.00  0.00     0.000 HD 
HETATM   36  H   UNL     1     -12.877  16.197  75.027  1.00  0.00     0.000 HD 
HETATM   37  C   UNL     1     -13.764  14.630  72.286  1.00  0.00    -0.565 C  
HETATM   38  O   UNL     1     -11.401  14.157  72.562  1.00  0.00     1.241 OA 
HETATM   39  O   UNL     1     -12.864  15.993  74.099  1.00  0.00    -0.629 OA 
HETATM   40  O   UNL     1     -14.283  15.492  70.108  1.00  0.00     0.636 OA 
HETATM   41  C   UNL     1     -14.050  15.882  71.461  1.00  0.00     0.394 C  
HETATM   42  C   UNL     1     -13.785  14.957  73.776  1.00  0.00     1.867 C  
ENDBRANCH  20  32
ENDBRANCH   4  12
TORSDOF 9
ENDMDL
MODEL      153
REMARK 921   NORMALIZED FREE ENERGY PREDICTED BY IDOCK:    6.11 KCAL/MOL
REMARK 922        TOTAL FREE ENERGY PREDICTED BY IDOCK:    8.02 KCAL/MOL
REMARK 923 INTER-LIGAND FREE ENERGY PREDICTED BY IDOCK:    0.32 KCAL/MOL
REMARK 924 INTRA-LIGAND FREE ENERGY PREDICTED BY IDOCK:    7.70 KCAL/MOL
REMARK 927      BINDING AFFINITY PREDICTED BY RF-SCORE:    0.00 PKD
ROOT
HETATM    1  C   UNL     1      -8.844  19.187  69.497  1.00  0.00     0.338 C  
HETATM    2  N   UNL     1      -9.206  17.857  69.009  1.00  0.00    -0.117 N  
HETATM    3  O   UNL     1     -11.210  18.005  70.158  1.00  0.00     1.762 OA 
HETATM    4  C   UNL     1     -10.442  17.340  69.471  1.00  0.00    -0.054 C  
ENDROOT
BRANCH   2   5
HETATM    5  C   UNL     1      -8.391  17.335  67.896  1.00  0.00    -0.220 C  
BRANCH   5   6
HETATM    6  C   UNL     1      -6.868  17.327  68.031  1.00  0.00    -0.175 C  
HETATM    7  H   UNL     1      -5.460  16.031  68.526  1.00  0.00     0.000 HD 
HETATM    8  O   UNL     1      -6.406  16.037  68.442  1.00  0.00    -0.104 OA 
BRANCH   6   9
HETATM    9  C   UNL     1      -6.269  17.668  66.647  1.00  0.00    -0.186 C  
HETATM   10  H   UNL     1      -6.440  19.067  65.239  1.00  0.00     0.000 HD 
HETATM   11  O   UNL     1      -6.808  18.857  66.089  1.00  0.00    -0.212 OA 
ENDBRANCH   6   9
ENDBRANCH   5   6
ENDBRANCH   2   5
BRANCH   4  12
HETATM   12  C   UNL     1     -10.892  15.953  69.111  1.00  0.00    -0.268 A  
HETATM   13  C   UNL     1     -11.025  15.622  67.759  1.00  0.00    -0.316 A  
HETATM   14  C   UNL     1     -11.265  14.966  70.079  1.00  0.00    -0.259 A  
HETATM   15  C   UNL     1     -11.514  13.611  69.695  1.00  0.00    -0.286 A  
HETATM   16  I   UNL     1     -11.489  15.593  72.135  1.00  0.00    -0.064 I  
HETATM   17  I   UNL     1     -11.413  17.194  66.330  1.00  0.00     2.225 I  
HETATM   18  C   UNL     1     -11.243  13.272  68.348  1.00  0.00    -0.280 A  
HETATM   19  I   UNL     1     -10.542  11.282  67.892  1.00  0.00    -0.300 I  
HETATM   20  C   UNL     1     -11.100  14.277  67.351  1.00  0.00    -0.304 A  
BRANCH  15  21
HETATM   21  C   UNL     1     -11.936  12.583  70.735  1.00  0.00     0.018 C  
HETATM   22  O   UNL     1     -11.837  12.896  71.925  1.00  0.00     1.200 OA 
HETATM   23  N   UNL     1     -12.514  11.343  70.389  1.00  0.00    -0.285 N  
HETATM   24  C   UNL     1     -12.313  10.627  69.134  1.00  0.00     0.182 C  
BRANCH  23  25
HETATM   25  C   UNL     1     -13.187  10.566  71.460  1.00  0.00    -0.371 C  
BRANCH  25  26
HETATM   26  C   UNL     1     -13.327   9.050  71.206  1.00  0.00    -0.206 C  
HETATM   27  H   UNL     1     -12.195   7.399  71.299  1.00  0.00     0.000 HD 
HETATM   28  O   UNL     1     -12.109   8.332  71.455  1.00  0.00    -0.282 OA 
BRANCH  26  29
HETATM   29  C   UNL     1     -14.388   8.417  72.122  1.00  0.00    -0.427 C  
HETATM   30  H   UNL     1     -14.987   8.627  73.987  1.00  0.00     0.000 HD 
HETATM   31  O   UNL     1     -14.331   9.017  73.420  1.00  0.00    -0.109 OA 
ENDBRANCH  26  29
ENDBRANCH  25  26
ENDBRANCH  23  25
ENDBRANCH  15  21
BRANCH  20  32
HETATM   32  N   UNL     1     -10.929  13.994  65.965  1.00  0.00    -0.295 N  
HETATM   33  C   UNL     1     -11.535  12.905  65.352  1.00  0.00    -0.324 C  
HETATM   34  H   UNL     1     -10.342  14.612  65.404  1.00  0.00     0.000 HD 
HETATM   35  H   UNL     1     -12.301  15.889  63.110  1.00  0.00     0.000 HD 
HETATM   36  H   UNL     1     -13.227  10.306  63.067  1.00  0.00     0.000 HD 
HETATM   37  C   UNL     1     -11.353  12.888  63.830  1.00  0.00    -0.489 C  
HETATM   38  O   UNL     1     -12.213  12.068  65.945  1.00  0.00    -0.531 OA 
HETATM   39  O   UNL     1     -13.035  11.169  63.418  1.00  0.00     0.442 OA 
HETATM   40  O   UNL     1     -11.749  15.234  63.521  1.00  0.00     0.189 OA 
HETATM   41  C   UNL     1     -12.240  13.940  63.171  1.00  0.00     0.466 C  
HETATM   42  C   UNL     1     -11.660  11.504  63.268  1.00  0.00    -0.037 C  
ENDBRANCH  20  32
ENDBRANCH   4  12
TORSDOF 9
ENDMDL
MODEL      154
REMARK 921   NORMALIZED FREE ENERGY PREDICTED BY IDOCK:    6.59 KCAL/MOL
REMARK 922        TOTAL FREE ENERGY PREDICTED BY IDOCK:    8.76 KCAL/MOL
REMARK 923 INTER-LIGAND FREE ENERGY PREDICTED BY IDOCK:    0.41 KCAL/MOL
REMARK 924 INTRA-LIGAND FREE ENERGY PREDICTED BY IDOCK:    8.35 KCAL/MOL
REMARK 927      BINDING AFFINITY PREDICTED BY RF-SCORE:    0.00 PKD
ROOT
HETATM    1  C   UNL     1     -12.664  11.212  64.523  1.00  0.00     2.341 C  
HETATM    2  N   UNL     1     -11.523  11.742  65.268  1.00  0.00    -0.242 N  
HETATM    3  O   UNL     1     -11.804  10.072  66.845  1.00  0.00     1.015 OA 
HETATM    4  C   UNL     1     -11.215  11.085  66.484  1.00  0.00    -0.005 C  
ENDROOT
BRANCH   2   5
HETATM    5  C   UNL     1     -10.673  12.705  64.543  1.00  0.00    -0.341 C  
BRANCH   5   6
HETATM    6  C   UNL     1     -10.085  12.307  63.190  1.00  0.00     0.052 C  
HETATM    7  H   UNL     1      -8.310  11.837  62.457  1.00  0.00     0.000 HD 
HETATM    8  O   UNL     1      -8.676  12.084  63.298  1.00  0.00     0.328 OA 
BRANCH   6   9
HETATM    9  C   UNL     1     -10.776  10.999  62.740  1.00  0.00     0.551 C  
HETATM   10  H   UNL     1     -12.592  10.359  62.227  1.00  0.00     0.000 HD 
HETATM   11  O   UNL     1     -12.167  11.163  62.503  1.00  0.00     0.865 OA 
ENDBRANCH   6   9
ENDBRANCH   5   6
ENDBRANCH   2   5
BRANCH   4  12
HETATM   12  C   UNL     1     -10.120  11.581  67.384  1.00  0.00    -0.213 A  
HETATM   13  C   UNL     1      -9.291  10.645  68.011  1.00  0.00    -0.147 A  
HETATM   14  C   UNL     1      -9.919  12.964  67.698  1.00  0.00    -0.218 A  
HETATM   15  C   UNL     1      -8.759  13.399  68.414  1.00  0.00    -0.134 A  
HETATM   16  I   UNL     1     -11.444  14.373  67.101  1.00  0.00    -0.409 I  
HETATM   17  I   UNL     1     -10.048   8.655  68.372  1.00  0.00    -0.229 I  
HETATM   18  C   UNL     1      -7.768  12.422  68.671  1.00  0.00    -0.067 A  
HETATM   19  I   UNL     1      -5.695  13.023  68.716  1.00  0.00    -0.091 I  
HETATM   20  C   UNL     1      -8.061  11.033  68.572  1.00  0.00    -0.140 A  
BRANCH  15  21
HETATM   21  C   UNL     1      -8.577  14.870  68.761  1.00  0.00    -0.177 C  
HETATM   22  O   UNL     1      -7.443  15.347  68.663  1.00  0.00    -0.119 OA 
HETATM   23  N   UNL     1      -9.659  15.712  69.093  1.00  0.00    -0.233 N  
HETATM   24  C   UNL     1     -10.926  15.286  69.678  1.00  0.00    -0.284 C  
BRANCH  23  25
HETATM   25  C   UNL     1      -9.426  17.178  69.088  1.00  0.00    -0.085 C  
BRANCH  25  26
HETATM   26  C   UNL     1     -10.063  17.958  67.918  1.00  0.00    -0.349 C  
HETATM   27  H   UNL     1     -10.848  19.767  67.568  1.00  0.00     0.000 HD 
HETATM   28  O   UNL     1     -10.456  19.287  68.288  1.00  0.00    -0.390 OA 
BRANCH  26  29
HETATM   29  C   UNL     1      -9.083  18.116  66.743  1.00  0.00    -0.282 C  
HETATM   30  H   UNL     1      -8.280  16.950  65.374  1.00  0.00     0.000 HD 
HETATM   31  O   UNL     1      -8.886  16.852  66.100  1.00  0.00    -0.390 OA 
ENDBRANCH  26  29
ENDBRANCH  25  26
ENDBRANCH  23  25
ENDBRANCH  15  21
BRANCH  20  32
HETATM   32  N   UNL     1      -7.135  10.006  68.918  1.00  0.00    -0.066 N  
HETATM   33  C   UNL     1      -6.775   9.746  70.234  1.00  0.00    -0.111 C  
HETATM   34  H   UNL     1      -6.724   9.442  68.174  1.00  0.00     0.000 HD 
HETATM   35  H   UNL     1      -7.676   6.359  68.741  1.00  0.00     0.000 HD 
HETATM   36  H   UNL     1      -5.704   8.348  73.659  1.00  0.00     0.000 HD 
HETATM   37  C   UNL     1      -5.903   8.496  70.388  1.00  0.00    -0.027 C  
HETATM   38  O   UNL     1      -7.167  10.402  71.198  1.00  0.00     0.236 OA 
HETATM   39  O   UNL     1      -6.138   8.351  72.813  1.00  0.00    -0.068 OA 
HETATM   40  O   UNL     1      -7.155   7.146  68.850  1.00  0.00    -0.079 OA 
HETATM   41  C   UNL     1      -6.740   7.231  70.213  1.00  0.00    -0.051 C  
HETATM   42  C   UNL     1      -5.207   8.491  71.745  1.00  0.00    -0.036 C  
ENDBRANCH  20  32
ENDBRANCH   4  12
TORSDOF 9
ENDMDL
MODEL      155
REMARK 921   NORMALIZED FREE ENERGY PREDICTED BY IDOCK:    7.74 KCAL/MOL
REMARK 922        TOTAL FREE ENERGY PREDICTED BY IDOCK:   10.51 KCAL/MOL
REMARK 923 INTER-LIGAND FREE ENERGY PREDICTED BY IDOCK:    2.08 KCAL/MOL
REMARK 924 INTRA-LIGAND FREE ENERGY PREDICTED BY IDOCK:    8.44 KCAL/MOL
REMARK 927      BINDING AFFINITY PREDICTED BY RF-SCORE:    0.00 PKD
ROOT
HETATM    1  C   UNL     1      -8.712  17.027  67.061  1.00  0.00    -0.221 C  
HETATM    2  N   UNL     1      -8.521  15.599  67.311  1.00  0.00    -0.177 N  
HETATM    3  O   UNL     1     -10.097  15.125  65.684  1.00  0.00    -0.312 OA 
HETATM    4  C   UNL     1      -9.342  14.721  66.562  1.00  0.00    -0.290 C  
ENDROOT
BRANCH   2   5
HETATM    5  C   UNL     1      -7.326  15.238  68.096  1.00  0.00    -0.114 C  
BRANCH   5   6
HETATM    6  C   UNL     1      -5.943  15.595  67.553  1.00  0.00    -0.094 C  
HETATM    7  H   UNL     1      -4.605  14.791  66.341  1.00  0.00     0.000 HD 
HETATM    8  O   UNL     1      -5.464  14.569  66.679  1.00  0.00     1.258 OA 
BRANCH   6   9
HETATM    9  C   UNL     1      -6.072  16.920  66.765  1.00  0.00    -0.181 C  
HETATM   10  H   UNL     1      -5.251  17.814  65.185  1.00  0.00     0.000 HD 
HETATM   11  O   UNL     1      -5.172  17.001  65.669  1.00  0.00    -0.058 OA 
ENDBRANCH   6   9
ENDBRANCH   5   6
ENDBRANCH   2   5
BRANCH   4  12
HETATM   12  C   UNL     1      -9.303  13.236  66.783  1.00  0.00    -0.254 A  
HETATM   13  C   UNL     1      -9.049  12.402  65.689  1.00  0.00     0.264 A  
HETATM   14  C   UNL     1      -9.584  12.616  68.043  1.00  0.00    -0.213 A  
HETATM   15  C   UNL     1      -9.360  11.217  68.245  1.00  0.00    -0.180 A  
HETATM   16  I   UNL     1     -10.403  13.845  69.620  1.00  0.00     0.987 I  
HETATM   17  I   UNL     1      -9.545  13.097  63.706  1.00  0.00     3.919 I  
HETATM   18  C   UNL     1      -8.726  10.517  67.192  1.00  0.00    -0.130 A  
HETATM   19  I   UNL     1      -7.421   8.866  67.672  1.00  0.00    -0.093 I  
HETATM   20  C   UNL     1      -8.660  11.063  65.880  1.00  0.00    -0.165 A  
BRANCH  15  21
HETATM   21  C   UNL     1      -9.690  10.572  69.584  1.00  0.00    -0.056 C  
HETATM   22  O   UNL     1     -10.864  10.606  69.963  1.00  0.00    -0.274 OA 
HETATM   23  N   UNL     1      -8.734   9.868  70.346  1.00  0.00    -0.050 N  
HETATM   24  C   UNL     1      -7.292  10.084  70.318  1.00  0.00    -0.141 C  
BRANCH  23  25
HETATM   25  C   UNL     1      -9.224   9.006  71.451  1.00  0.00    -0.223 C  
BRANCH  25  26
HETATM   26  C   UNL     1      -9.363   7.504  71.122  1.00  0.00    -0.151 C  
HETATM   27  H   UNL     1      -8.587   5.757  71.718  1.00  0.00     0.000 HD 
HETATM   28  O   UNL     1      -8.501   6.681  71.920  1.00  0.00    -0.114 OA 
BRANCH  26  29
HETATM   29  C   UNL     1     -10.793   6.998  71.381  1.00  0.00    -0.229 C  
HETATM   30  H   UNL     1     -12.398   6.613  70.306  1.00  0.00     0.000 HD 
HETATM   31  O   UNL     1     -11.514   6.926  70.146  1.00  0.00    -0.312 OA 
ENDBRANCH  26  29
ENDBRANCH  25  26
ENDBRANCH  23  25
ENDBRANCH  15  21
BRANCH  20  32
HETATM   32  N   UNL     1      -8.127  10.361  64.759  1.00  0.00    -0.232 N  
HETATM   33  C   UNL     1      -7.243   9.300  64.903  1.00  0.00    -0.102 C  
HETATM   34  H   UNL     1      -8.405  10.648  63.821  1.00  0.00     0.000 HD 
HETATM   35  H   UNL     1      -9.927   8.067  62.497  1.00  0.00     0.000 HD 
HETATM   36  H   UNL     1      -5.095   6.110  64.697  1.00  0.00     0.000 HD 
HETATM   37  C   UNL     1      -6.931   8.588  63.582  1.00  0.00    -0.088 C  
HETATM   38  O   UNL     1      -6.801   8.912  65.983  1.00  0.00    -0.074 OA 
HETATM   39  O   UNL     1      -5.877   6.644  64.613  1.00  0.00    -0.029 OA 
HETATM   40  O   UNL     1      -9.190   8.599  62.772  1.00  0.00     0.332 OA 
HETATM   41  C   UNL     1      -8.116   7.734  63.139  1.00  0.00    -0.078 C  
HETATM   42  C   UNL     1      -5.677   7.731  63.717  1.00  0.00    -0.049 C  
ENDBRANCH  20  32
ENDBRANCH   4  12
TORSDOF 9
ENDMDL
MODEL      156
REMARK 921   NORMALIZED FREE ENERGY PREDICTED BY IDOCK:    7.75 KCAL/MOL
REMARK 922        TOTAL FREE ENERGY PREDICTED BY IDOCK:   10.53 KCAL/MOL
REMARK 923 INTER-LIGAND FREE ENERGY PREDICTED BY IDOCK:   -0.35 KCAL/MOL
REMARK 924 INTRA-LIGAND FREE ENERGY PREDICTED BY IDOCK:   10.88 KCAL/MOL
REMARK 927      BINDING AFFINITY PREDICTED BY RF-SCORE:    0.00 PKD
ROOT
HETATM    1  C   UNL     1      -7.305   2.053  69.145  1.00  0.00    -0.043 C  
HETATM    2  N   UNL     1      -7.450   3.464  69.499  1.00  0.00    -0.048 N  
HETATM    3  O   UNL     1      -6.596   4.051  67.430  1.00  0.00    -0.044 OA 
HETATM    4  C   UNL     1      -6.995   4.398  68.536  1.00  0.00    -0.052 C  
ENDROOT
BRANCH   2   5
HETATM    5  C   UNL     1      -8.291   3.749  70.678  1.00  0.00    -0.068 C  
BRANCH   5   6
HETATM    6  C   UNL     1      -9.097   2.613  71.308  1.00  0.00    -0.108 C  
HETATM    7  H   UNL     1     -10.165   1.070  70.687  1.00  0.00     0.000 HD 
HETATM    8  O   UNL     1      -9.665   1.776  70.295  1.00  0.00    -0.070 OA 
BRANCH   6   9
HETATM    9  C   UNL     1      -8.133   1.777  72.182  1.00  0.00    -0.045 C  
HETATM   10  H   UNL     1      -7.818   1.374  74.107  1.00  0.00     0.000 HD 
HETATM   11  O   UNL     1      -8.410   1.888  73.570  1.00  0.00    -0.052 OA 
ENDBRANCH   6   9
ENDBRANCH   5   6
ENDBRANCH   2   5
BRANCH   4  12
HETATM   12  C   UNL     1      -7.012   5.874  68.811  1.00  0.00    -0.072 A  
HETATM   13  C   UNL     1      -6.625   6.325  70.077  1.00  0.00    -0.048 A  
HETATM   14  C   UNL     1      -7.474   6.849  67.869  1.00  0.00    -0.099 A  
HETATM   15  C   UNL     1      -7.304   8.249  68.110  1.00  0.00    -0.096 A  
HETATM   16  I   UNL     1      -8.480   6.147  66.090  1.00  0.00    -0.151 I  
HETATM   17  I   UNL     1      -6.834   4.998  71.768  1.00  0.00    -0.057 I  
HETATM   18  C   UNL     1      -6.544   8.610  69.248  1.00  0.00    -0.049 A  
HETATM   19  I   UNL     1      -5.345  10.404  69.178  1.00  0.00    -0.036 I  
HETATM   20  C   UNL     1      -6.289   7.675  70.289  1.00  0.00    -0.034 A  
BRANCH  15  21
HETATM   21  C   UNL     1      -7.826   9.270  67.109  1.00  0.00    -0.099 C  
HETATM   22  O   UNL     1      -9.046   9.444  67.050  1.00  0.00    -0.132 OA 
HETATM   23  N   UNL     1      -6.970  10.077  66.328  1.00  0.00    -0.099 N  
HETATM   24  C   UNL     1      -5.608   9.740  65.928  1.00  0.00    -0.049 C  
BRANCH  23  25
HETATM   25  C   UNL     1      -7.559  11.253  65.640  1.00  0.00     0.340 C  
BRANCH  25  26
HETATM   26  C   UNL     1      -8.458  12.160  66.508  1.00  0.00    -0.026 C  
HETATM   27  H   UNL     1     -10.318  12.164  67.252  1.00  0.00     0.000 HD 
HETATM   28  O   UNL     1      -9.765  11.606  66.718  1.00  0.00    -0.196 OA 
BRANCH  26  29
HETATM   29  C   UNL     1      -7.859  12.380  67.908  1.00  0.00    -0.145 C  
HETATM   30  H   UNL     1      -6.529  13.577  68.730  1.00  0.00     0.000 HD 
HETATM   31  O   UNL     1      -6.899  13.441  67.866  1.00  0.00    -0.109 OA 
ENDBRANCH  26  29
ENDBRANCH  25  26
ENDBRANCH  23  25
ENDBRANCH  15  21
BRANCH  20  32
HETATM   32  N   UNL     1      -5.621   8.009  71.503  1.00  0.00    -0.034 N  
HETATM   33  C   UNL     1      -5.875   9.190  72.187  1.00  0.00    -0.048 C  
HETATM   34  H   UNL     1      -4.932   7.358  71.881  1.00  0.00     0.000 HD 
HETATM   35  H   UNL     1      -6.072   6.434  74.810  1.00  0.00     0.000 HD 
HETATM   36  H   UNL     1      -6.424  12.081  74.672  1.00  0.00     0.000 HD 
HETATM   37  C   UNL     1      -5.172   9.266  73.547  1.00  0.00    -0.106 C  
HETATM   38  O   UNL     1      -6.640  10.067  71.790  1.00  0.00    -0.100 OA 
HETATM   39  O   UNL     1      -6.445  11.185  74.355  1.00  0.00     1.595 OA 
HETATM   40  O   UNL     1      -5.642   7.000  74.179  1.00  0.00    -0.053 OA 
HETATM   41  C   UNL     1      -5.863   8.357  74.561  1.00  0.00    -0.110 C  
HETATM   42  C   UNL     1      -5.139  10.704  74.055  1.00  0.00     0.192 C  
ENDBRANCH  20  32
ENDBRANCH   4  12
TORSDOF 9
ENDMDL
MODEL      157
REMARK 921   NORMALIZED FREE ENERGY PREDICTED BY IDOCK:    8.24 KCAL/MOL
REMARK 922        TOTAL FREE ENERGY PREDICTED BY IDOCK:   11.28 KCAL/MOL
REMARK 923 INTER-LIGAND FREE ENERGY PREDICTED BY IDOCK:    1.29 KCAL/MOL
REMARK 924 INTRA-LIGAND FREE ENERGY PREDICTED BY IDOCK:    9.99 KCAL/MOL
REMARK 927      BINDING AFFINITY PREDICTED BY RF-SCORE:    0.00 PKD
ROOT
HETATM    1  C   UNL     1     -12.112   8.754  71.182  1.00  0.00    -0.267 C  
HETATM    2  N   UNL     1     -10.898   9.253  70.537  1.00  0.00    -0.243 N  
HETATM    3  O   UNL     1     -12.204  10.330  68.959  1.00  0.00    -0.056 OA 
HETATM    4  C   UNL     1     -11.088  10.017  69.359  1.00  0.00    -0.223 C  
ENDROOT
BRANCH   2   5
HETATM    5  C   UNL     1      -9.656   9.136  71.324  1.00  0.00    -0.261 C  
BRANCH   5   6
HETATM    6  C   UNL     1      -8.369   8.703  70.622  1.00  0.00    -0.143 C  
HETATM    7  H   UNL     1      -6.686   9.548  70.022  1.00  0.00     0.000 HD 
HETATM    8  O   UNL     1      -7.486   9.817  70.457  1.00  0.00    -0.177 OA 
BRANCH   6   9
HETATM    9  C   UNL     1      -7.685   7.634  71.506  1.00  0.00    -0.085 C  
HETATM   10  H   UNL     1      -6.836   7.490  73.302  1.00  0.00     0.000 HD 
HETATM   11  O   UNL     1      -7.256   8.146  72.760  1.00  0.00    -0.097 OA 
ENDBRANCH   6   9
ENDBRANCH   5   6
ENDBRANCH   2   5
BRANCH   4  12
HETATM   12  C   UNL     1      -9.922  10.518  68.556  1.00  0.00    -0.181 A  
HETATM   13  C   UNL     1      -9.086   9.584  67.935  1.00  0.00    -0.125 A  
HETATM   14  C   UNL     1      -9.572  11.902  68.448  1.00  0.00    -0.196 A  
HETATM   15  C   UNL     1      -8.564  12.340  67.531  1.00  0.00    -0.174 A  
HETATM   16  I   UNL     1     -10.575  13.309  69.745  1.00  0.00     1.440 I  
HETATM   17  I   UNL     1      -8.940   7.596  68.766  1.00  0.00    -0.128 I  
HETATM   18  C   UNL     1      -8.037  11.364  66.652  1.00  0.00    -0.155 A  
HETATM   19  I   UNL     1      -7.422  11.965  64.672  1.00  0.00     4.798 I  
HETATM   20  C   UNL     1      -8.208   9.975  66.908  1.00  0.00    -0.121 A  
BRANCH  15  21
HETATM   21  C   UNL     1      -8.187  13.813  67.450  1.00  0.00    -0.184 C  
HETATM   22  O   UNL     1      -8.991  14.583  66.918  1.00  0.00    -0.227 OA 
HETATM   23  N   UNL     1      -7.013  14.331  68.038  1.00  0.00    -0.126 N  
HETATM   24  C   UNL     1      -5.785  13.586  68.293  1.00  0.00    -0.101 C  
BRANCH  23  25
HETATM   25  C   UNL     1      -6.904  15.803  68.192  1.00  0.00    -0.120 C  
BRANCH  25  26
HETATM   26  C   UNL     1      -6.157  16.545  67.062  1.00  0.00    -0.138 C  
HETATM   27  H   UNL     1      -6.588  17.581  65.403  1.00  0.00     0.000 HD 
HETATM   28  O   UNL     1      -7.048  17.124  66.098  1.00  0.00    -0.265 OA 
BRANCH  26  29
HETATM   29  C   UNL     1      -5.310  17.706  67.611  1.00  0.00    -0.134 C  
HETATM   30  H   UNL     1      -5.449  19.668  67.702  1.00  0.00     0.000 HD 
HETATM   31  O   UNL     1      -5.972  18.951  67.363  1.00  0.00    -0.167 OA 
ENDBRANCH  26  29
ENDBRANCH  25  26
ENDBRANCH  23  25
ENDBRANCH  15  21
BRANCH  20  32
HETATM   32  N   UNL     1      -7.614   8.949  66.117  1.00  0.00    -0.090 N  
HETATM   33  C   UNL     1      -8.207   7.704  65.952  1.00  0.00    -0.133 C  
HETATM   34  H   UNL     1      -6.723   9.136  65.656  1.00  0.00     0.000 HD 
HETATM   35  H   UNL     1      -7.291   8.865  62.441  1.00  0.00     0.000 HD 
HETATM   36  H   UNL     1      -9.539   4.263  64.849  1.00  0.00     0.000 HD 
HETATM   37  C   UNL     1      -7.485   6.819  64.931  1.00  0.00    -0.094 C  
HETATM   38  O   UNL     1      -9.248   7.357  66.508  1.00  0.00    -0.154 OA 
HETATM   39  O   UNL     1      -9.276   5.171  64.750  1.00  0.00    -0.078 OA 
HETATM   40  O   UNL     1      -7.119   8.564  63.326  1.00  0.00    -0.089 OA 
HETATM   41  C   UNL     1      -7.761   7.302  63.510  1.00  0.00    -0.123 C  
HETATM   42  C   UNL     1      -7.907   5.362  65.090  1.00  0.00    -0.095 C  
ENDBRANCH  20  32
ENDBRANCH   4  12
TORSDOF 9
ENDMDL
MODEL      158
REMARK 921   NORMALIZED FREE ENERGY PREDICTED BY IDOCK:    8.26 KCAL/MOL
REMARK 922        TOTAL FREE ENERGY PREDICTED BY IDOCK:   11.31 KCAL/MOL
REMARK 923 INTER-LIGAND FREE ENERGY PREDICTED BY IDOCK:    1.81 KCAL/MOL
REMARK 924 INTRA-LIGAND FREE ENERGY PREDICTED BY IDOCK:    9.50 KCAL/MOL
REMARK 927      BINDING AFFINITY PREDICTED BY RF-SCORE:    0.00 PKD
ROOT
HETATM    1  C   UNL     1     -13.042   5.156  71.931  1.00  0.00     2.903 C  
HETATM    2  N   UNL     1     -12.048   6.073  71.378  1.00  0.00     0.082 N  
HETATM    3  O   UNL     1     -13.755   7.341  70.465  1.00  0.00     0.390 OA 
HETATM    4  C   UNL     1     -12.552   7.139  70.592  1.00  0.00    -0.034 C  
ENDROOT
BRANCH   2   5
HETATM    5  C   UNL     1     -10.682   5.945  71.921  1.00  0.00    -0.239 C  
BRANCH   5   6
HETATM    6  C   UNL     1     -10.366   6.546  73.291  1.00  0.00    -0.241 C  
HETATM    7  H   UNL     1     -11.136   7.915  74.489  1.00  0.00     0.000 HD 
HETATM    8  O   UNL     1     -11.332   7.542  73.638  1.00  0.00    -0.090 OA 
BRANCH   6   9
HETATM    9  C   UNL     1     -10.414   5.402  74.330  1.00  0.00    -0.224 C  
HETATM   10  H   UNL     1     -10.873   3.466  74.414  1.00  0.00     0.000 HD 
HETATM   11  O   UNL     1     -10.844   4.168  73.775  1.00  0.00    -0.222 OA 
ENDBRANCH   6   9
ENDBRANCH   5   6
ENDBRANCH   2   5
BRANCH   4  12
HETATM   12  C   UNL     1     -11.632   8.103  69.900  1.00  0.00     0.282 A  
HETATM   13  C   UNL     1     -11.840   9.474  70.079  1.00  0.00     0.100 A  
HETATM   14  C   UNL     1     -10.592   7.698  69.003  1.00  0.00    -0.174 A  
HETATM   15  C   UNL     1      -9.633   8.638  68.510  1.00  0.00    -0.162 A  
HETATM   16  I   UNL     1     -10.539   5.631  68.375  1.00  0.00    -0.028 I  
HETATM   17  I   UNL     1     -13.822  10.175  70.575  1.00  0.00     2.191 I  
HETATM   18  C   UNL     1      -9.685   9.943  69.056  1.00  0.00    -0.193 A  
HETATM   19  I   UNL     1      -7.848  11.056  69.277  1.00  0.00     0.211 I  
HETATM   20  C   UNL     1     -10.835  10.403  69.755  1.00  0.00    -0.292 A  
BRANCH  15  21
HETATM   21  C   UNL     1      -8.551   8.194  67.536  1.00  0.00    -0.129 C  
HETATM   22  O   UNL     1      -7.978   9.066  66.877  1.00  0.00    -0.103 OA 
HETATM   23  N   UNL     1      -8.125   6.852  67.432  1.00  0.00    -0.114 N  
HETATM   24  C   UNL     1      -8.924   5.675  67.755  1.00  0.00    -0.107 C  
BRANCH  23  25
HETATM   25  C   UNL     1      -6.858   6.579  66.710  1.00  0.00    -0.066 C  
BRANCH  25  26
HETATM   26  C   UNL     1      -6.662   5.128  66.219  1.00  0.00    -0.057 C  
HETATM   27  H   UNL     1      -7.487   3.324  66.494  1.00  0.00     0.000 HD 
HETATM   28  O   UNL     1      -7.607   4.217  66.796  1.00  0.00    -0.086 OA 
BRANCH  26  29
HETATM   29  C   UNL     1      -6.838   5.017  64.695  1.00  0.00    -0.049 C  
HETATM   30  H   UNL     1      -8.283   4.534  63.447  1.00  0.00     0.000 HD 
HETATM   31  O   UNL     1      -8.174   4.603  64.388  1.00  0.00    -0.101 OA 
ENDBRANCH  26  29
ENDBRANCH  25  26
ENDBRANCH  23  25
ENDBRANCH  15  21
BRANCH  20  32
HETATM   32  N   UNL     1     -10.984  11.737  70.236  1.00  0.00    -0.029 N  
HETATM   33  C   UNL     1     -11.133  12.820  69.379  1.00  0.00    -0.065 C  
HETATM   34  H   UNL     1     -10.982  11.901  71.242  1.00  0.00     0.000 HD 
HETATM   35  H   UNL     1     -13.913  13.176  71.960  1.00  0.00     0.000 HD 
HETATM   36  H   UNL     1     -11.941  16.104  67.536  1.00  0.00     0.000 HD 
HETATM   37  C   UNL     1     -11.445  14.131  70.109  1.00  0.00    -0.227 C  
HETATM   38  O   UNL     1     -11.092  12.740  68.153  1.00  0.00    -0.231 OA 
HETATM   39  O   UNL     1     -12.100  15.358  68.104  1.00  0.00    -0.153 OA 
HETATM   40  O   UNL     1     -13.015  13.172  71.650  1.00  0.00    -0.370 OA 
HETATM   41  C   UNL     1     -12.888  14.138  70.607  1.00  0.00    -0.290 C  
HETATM   42  C   UNL     1     -11.190  15.327  69.198  1.00  0.00    -0.278 C  
ENDBRANCH  20  32
ENDBRANCH   4  12
TORSDOF 9
ENDMDL
MODEL      159
REMARK 921   NORMALIZED FREE ENERGY PREDICTED BY IDOCK:    8.35 KCAL/MOL
REMARK 922        TOTAL FREE ENERGY PREDICTED BY IDOCK:   11.44 KCAL/MOL
REMARK 923 INTER-LIGAND FREE ENERGY PREDICTED BY IDOCK:    1.83 KCAL/MOL
REMARK 924 INTRA-LIGAND FREE ENERGY PREDICTED BY IDOCK:    9.61 KCAL/MOL
REMARK 927      BINDING AFFINITY PREDICTED BY RF-SCORE:    0.00 PKD
ROOT
HETATM    1  C   UNL     1      -6.122  11.601  63.739  1.00  0.00     2.857 C  
HETATM    2  N   UNL     1      -6.956  10.820  64.650  1.00  0.00     0.214 N  
HETATM    3  O   UNL     1      -8.794  12.071  64.007  1.00  0.00     0.603 OA 
HETATM    4  C   UNL     1      -8.318  11.203  64.731  1.00  0.00     0.330 C  
ENDROOT
BRANCH   2   5
HETATM    5  C   UNL     1      -6.358   9.572  65.161  1.00  0.00    -0.078 C  
BRANCH   5   6
HETATM    6  C   UNL     1      -5.407   8.781  64.263  1.00  0.00    -0.055 C  
HETATM    7  H   UNL     1      -4.539   7.006  64.272  1.00  0.00     0.000 HD 
HETATM    8  O   UNL     1      -5.130   7.497  64.830  1.00  0.00    -0.028 OA 
BRANCH   6   9
HETATM    9  C   UNL     1      -6.097   8.596  62.891  1.00  0.00    -0.087 C  
HETATM   10  H   UNL     1      -7.871   8.058  62.162  1.00  0.00     0.000 HD 
HETATM   11  O   UNL     1      -7.447   8.171  63.004  1.00  0.00    -0.104 OA 
ENDBRANCH   6   9
ENDBRANCH   5   6
ENDBRANCH   2   5
BRANCH   4  12
HETATM   12  C   UNL     1      -9.262  10.536  65.689  1.00  0.00    -0.221 A  
HETATM   13  C   UNL     1      -9.512   9.167  65.541  1.00  0.00    -0.206 A  
HETATM   14  C   UNL     1      -9.982  11.237  66.709  1.00  0.00    -0.206 A  
HETATM   15  C   UNL     1     -10.728  10.533  67.705  1.00  0.00    -0.319 A  
HETATM   16  I   UNL     1      -9.950  13.398  66.671  1.00  0.00    -0.295 I  
HETATM   17  I   UNL     1      -9.273   8.267  63.593  1.00  0.00     2.682 I  
HETATM   18  C   UNL     1     -10.607   9.123  67.711  1.00  0.00    -0.227 A  
HETATM   19  I   UNL     1     -10.716   8.073  69.595  1.00  0.00    -0.042 I  
HETATM   20  C   UNL     1     -10.093   8.424  66.584  1.00  0.00    -0.288 A  
BRANCH  15  21
HETATM   21  C   UNL     1     -11.509  11.299  68.764  1.00  0.00    -0.293 C  
HETATM   22  O   UNL     1     -12.611  10.853  69.099  1.00  0.00    -0.361 OA 
HETATM   23  N   UNL     1     -10.984  12.426  69.431  1.00  0.00    -0.085 N  
HETATM   24  C   UNL     1      -9.969  13.333  68.906  1.00  0.00     0.067 C  
BRANCH  23  25
HETATM   25  C   UNL     1     -11.674  12.891  70.660  1.00  0.00     0.254 C  
BRANCH  25  26
HETATM   26  C   UNL     1     -12.846  13.873  70.443  1.00  0.00    -0.137 C  
HETATM   27  H   UNL     1     -14.606  14.322  71.288  1.00  0.00     0.000 HD 
HETATM   28  O   UNL     1     -13.884  13.718  71.421  1.00  0.00    -0.226 OA 
BRANCH  26  29
HETATM   29  C   UNL     1     -12.384  15.337  70.540  1.00  0.00    -0.387 C  
HETATM   30  H   UNL     1     -12.410  16.765  71.896  1.00  0.00     0.000 HD 
HETATM   31  O   UNL     1     -12.695  15.860  71.836  1.00  0.00    -0.445 OA 
ENDBRANCH  26  29
ENDBRANCH  25  26
ENDBRANCH  23  25
ENDBRANCH  15  21
BRANCH  20  32
HETATM   32  N   UNL     1     -10.043   7.003  66.493  1.00  0.00    -0.433 N  
HETATM   33  C   UNL     1      -8.857   6.317  66.266  1.00  0.00    -0.147 C  
HETATM   34  H   UNL     1     -10.908   6.471  66.599  1.00  0.00     0.000 HD 
HETATM   35  H   UNL     1     -10.488   4.571  69.234  1.00  0.00     0.000 HD 
HETATM   36  H   UNL     1      -5.872   3.894  66.030  1.00  0.00     0.000 HD 
HETATM   37  C   UNL     1      -9.007   4.795  66.373  1.00  0.00    -0.113 C  
HETATM   38  O   UNL     1      -7.772   6.861  66.068  1.00  0.00    -0.090 OA 
HETATM   39  O   UNL     1      -6.612   4.333  66.435  1.00  0.00    -0.043 OA 
HETATM   40  O   UNL     1     -10.402   4.835  68.325  1.00  0.00    -0.039 OA 
HETATM   41  C   UNL     1      -9.145   4.370  67.833  1.00  0.00    -0.127 C  
HETATM   42  C   UNL     1      -7.820   4.091  65.724  1.00  0.00    -0.090 C  
ENDBRANCH  20  32
ENDBRANCH   4  12
TORSDOF 9
ENDMDL
MODEL      160
REMARK 921   NORMALIZED FREE ENERGY PREDICTED BY IDOCK:    9.08 KCAL/MOL
REMARK 922        TOTAL FREE ENERGY PREDICTED BY IDOCK:   12.56 KCAL/MOL
REMARK 923 INTER-LIGAND FREE ENERGY PREDICTED BY IDOCK:    5.86 KCAL/MOL
REMARK 924 INTRA-LIGAND FREE ENERGY PREDICTED BY IDOCK:    6.70 KCAL/MOL
REMARK 927      BINDING AFFINITY PREDICTED BY RF-SCORE:    0.00 PKD
ROOT
HETATM    1  C   UNL     1     -12.215   9.076  70.994  1.00  0.00    -0.223 C  
HETATM    2  N   UNL     1     -11.226   9.874  70.272  1.00  0.00    -0.280 N  
HETATM    3  O   UNL     1     -12.874  10.536  68.789  1.00  0.00     0.510 OA 
HETATM    4  C   UNL     1     -11.692  10.543  69.113  1.00  0.00    -0.189 C  
ENDROOT
BRANCH   2   5
HETATM    5  C   UNL     1      -9.951  10.109  70.976  1.00  0.00     0.919 C  
BRANCH   5   6
HETATM    6  C   UNL     1      -8.642  10.030  70.189  1.00  0.00    -0.007 C  
HETATM    7  H   UNL     1      -7.584  11.209  69.007  1.00  0.00     0.000 HD 
HETATM    8  O   UNL     1      -8.397  11.258  69.496  1.00  0.00     0.202 OA 
BRANCH   6   9
HETATM    9  C   UNL     1      -7.499   9.774  71.198  1.00  0.00     0.492 C  
HETATM   10  H   UNL     1      -7.205   8.834  72.929  1.00  0.00     0.000 HD 
HETATM   11  O   UNL     1      -7.908   8.991  72.310  1.00  0.00    -0.353 OA 
ENDBRANCH   6   9
ENDBRANCH   5   6
ENDBRANCH   2   5
BRANCH   4  12
HETATM   12  C   UNL     1     -10.759  11.328  68.237  1.00  0.00    -0.231 A  
HETATM   13  C   UNL     1      -9.799  10.637  67.490  1.00  0.00    -0.168 A  
HETATM   14  C   UNL     1     -10.747  12.759  68.175  1.00  0.00    -0.226 A  
HETATM   15  C   UNL     1      -9.965  13.451  67.197  1.00  0.00    -0.242 A  
HETATM   16  I   UNL     1     -11.908  13.848  69.637  1.00  0.00    -0.366 I  
HETATM   17  I   UNL     1      -9.119   8.710  68.190  1.00  0.00    -0.151 I  
HETATM   18  C   UNL     1      -9.321  12.655  66.220  1.00  0.00    -0.160 A  
HETATM   19  I   UNL     1      -9.064  13.449  64.229  1.00  0.00     5.493 I  
HETATM   20  C   UNL     1      -9.143  11.256  66.411  1.00  0.00    -0.192 A  
BRANCH  15  21
HETATM   21  C   UNL     1      -9.944  14.972  67.166  1.00  0.00    -0.237 C  
HETATM   22  O   UNL     1     -10.992  15.555  66.875  1.00  0.00    -0.317 OA 
HETATM   23  N   UNL     1      -8.813  15.726  67.545  1.00  0.00    -0.184 N  
HETATM   24  C   UNL     1      -7.426  15.276  67.483  1.00  0.00    -0.190 C  
BRANCH  23  25
HETATM   25  C   UNL     1      -8.997  17.177  67.797  1.00  0.00    -0.226 C  
BRANCH  25  26
HETATM   26  C   UNL     1      -8.612  18.117  66.634  1.00  0.00    -0.267 C  
HETATM   27  H   UNL     1      -9.502  19.064  65.109  1.00  0.00     0.000 HD 
HETATM   28  O   UNL     1      -9.738  18.485  65.825  1.00  0.00    -0.468 OA 
BRANCH  26  29
HETATM   29  C   UNL     1      -8.008  19.435  67.148  1.00  0.00    -0.260 C  
HETATM   30  H   UNL     1      -8.603  21.300  67.367  1.00  0.00     0.000 HD 
HETATM   31  O   UNL     1      -8.976  20.485  67.050  1.00  0.00    -0.326 OA 
ENDBRANCH  26  29
ENDBRANCH  25  26
ENDBRANCH  23  25
ENDBRANCH  15  21
BRANCH  20  32
HETATM   32  N   UNL     1      -8.414  10.424  65.512  1.00  0.00    -0.162 N  
HETATM   33  C   UNL     1      -9.025   9.420  64.772  1.00  0.00    -0.194 C  
HETATM   34  H   UNL     1      -7.409  10.572  65.409  1.00  0.00     0.000 HD 
HETATM   35  H   UNL     1      -6.931  11.393  62.274  1.00  0.00     0.000 HD 
HETATM   36  H   UNL     1     -10.213   6.783  62.230  1.00  0.00     0.000 HD 
HETATM   37  C   UNL     1      -8.088   8.765  63.751  1.00  0.00    -0.165 C  
HETATM   38  O   UNL     1     -10.214   9.123  64.864  1.00  0.00     0.797 OA 
HETATM   39  O   UNL     1      -9.857   7.613  62.526  1.00  0.00     2.882 OA 
HETATM   40  O   UNL     1      -7.079  10.813  63.012  1.00  0.00     0.002 OA 
HETATM   41  C   UNL     1      -7.849   9.697  62.566  1.00  0.00    -0.117 C  
HETATM   42  C   UNL     1      -8.660   7.434  63.275  1.00  0.00     0.460 C  
ENDBRANCH  20  32
ENDBRANCH   4  12
TORSDOF 9
ENDMDL
MODEL      161
REMARK 921   NORMALIZED FREE ENERGY PREDICTED BY IDOCK:    9.22 KCAL/MOL
REMARK 922        TOTAL FREE ENERGY PREDICTED BY IDOCK:   12.77 KCAL/MOL
REMARK 923 INTER-LIGAND FREE ENERGY PREDICTED BY IDOCK:   11.63 KCAL/MOL
REMARK 924 INTRA-LIGAND FREE ENERGY PREDICTED BY IDOCK:    1.14 KCAL/MOL
REMARK 927      BINDING AFFINITY PREDICTED BY RF-SCORE:    0.00 PKD
ROOT
HETATM    1  C   UNL     1      -9.827  14.919  71.362  1.00  0.00     2.485 C  
HETATM    2  N   UNL     1      -9.925  14.176  70.106  1.00  0.00     1.072 N  
HETATM    3  O   UNL     1     -11.116  12.522  71.202  1.00  0.00     2.365 OA 
HETATM    4  C   UNL     1     -10.576  12.920  70.175  1.00  0.00     1.687 C  
ENDROOT
BRANCH   2   5
HETATM    5  C   UNL     1      -9.585  14.930  68.885  1.00  0.00    -0.215 C  
BRANCH   5   6
HETATM    6  C   UNL     1      -8.351  14.523  68.079  1.00  0.00    -0.153 C  
HETATM    7  H   UNL     1      -7.312  15.231  66.555  1.00  0.00     0.000 HD 
HETATM    8  O   UNL     1      -8.078  15.484  67.055  1.00  0.00    -0.199 OA 
BRANCH   6   9
HETATM    9  C   UNL     1      -7.151  14.458  69.053  1.00  0.00    -0.120 C  
HETATM   10  H   UNL     1      -5.678  13.209  69.540  1.00  0.00     0.000 HD 
HETATM   11  O   UNL     1      -6.415  13.248  68.942  1.00  0.00    -0.088 OA 
ENDBRANCH   6   9
ENDBRANCH   5   6
ENDBRANCH   2   5
BRANCH   4  12
HETATM   12  C   UNL     1     -10.670  12.022  68.975  1.00  0.00    -0.178 A  
HETATM   13  C   UNL     1     -11.476  12.418  67.903  1.00  0.00    -0.328 A  
HETATM   14  C   UNL     1     -10.035  10.741  68.893  1.00  0.00    -0.202 A  
HETATM   15  C   UNL     1     -10.008  10.006  67.667  1.00  0.00    -0.214 A  
HETATM   16  I   UNL     1      -9.159   9.925  70.692  1.00  0.00     1.133 I  
HETATM   17  I   UNL     1     -13.133  13.751  68.277  1.00  0.00     5.052 I  
HETATM   18  C   UNL     1     -10.515  10.664  66.521  1.00  0.00    -0.224 A  
HETATM   19  I   UNL     1      -9.633  10.238  64.596  1.00  0.00    -0.323 I  
HETATM   20  C   UNL     1     -11.340  11.816  66.639  1.00  0.00    -0.316 A  
BRANCH  15  21
HETATM   21  C   UNL     1      -9.352   8.634  67.608  1.00  0.00    -0.137 C  
HETATM   22  O   UNL     1     -10.081   7.644  67.711  1.00  0.00    -0.165 OA 
HETATM   23  N   UNL     1      -7.975   8.459  67.349  1.00  0.00    -0.105 N  
HETATM   24  C   UNL     1      -6.922   9.427  67.636  1.00  0.00    -0.081 C  
BRANCH  23  25
HETATM   25  C   UNL     1      -7.504   7.099  66.986  1.00  0.00    -0.097 C  
BRANCH  25  26
HETATM   26  C   UNL     1      -6.953   6.245  68.148  1.00  0.00    -0.080 C  
HETATM   27  H   UNL     1      -6.101   6.515  69.940  1.00  0.00     0.000 HD 
HETATM   28  O   UNL     1      -6.439   7.041  69.225  1.00  0.00    -0.040 OA 
BRANCH  26  29
HETATM   29  C   UNL     1      -8.045   5.352  68.761  1.00  0.00    -0.087 C  
HETATM   30  H   UNL     1      -8.710   4.929  70.566  1.00  0.00     0.000 HD 
HETATM   31  O   UNL     1      -8.035   5.481  70.187  1.00  0.00    -0.087 OA 
ENDBRANCH  26  29
ENDBRANCH  25  26
ENDBRANCH  23  25
ENDBRANCH  15  21
BRANCH  20  32
HETATM   32  N   UNL     1     -11.962  12.458  65.528  1.00  0.00    -0.423 N  
HETATM   33  C   UNL     1     -11.842  13.822  65.299  1.00  0.00    -0.352 C  
HETATM   34  H   UNL     1     -12.513  11.896  64.879  1.00  0.00     0.000 HD 
HETATM   35  H   UNL     1     -11.035  12.159  61.968  1.00  0.00     0.000 HD 
HETATM   36  H   UNL     1     -11.559  17.426  63.970  1.00  0.00     0.000 HD 
HETATM   37  C   UNL     1     -12.447  14.269  63.964  1.00  0.00    -0.171 C  
HETATM   38  O   UNL     1     -11.250  14.598  66.048  1.00  0.00    -0.334 OA 
HETATM   39  O   UNL     1     -11.426  16.485  63.979  1.00  0.00    -1.137 OA 
HETATM   40  O   UNL     1     -11.592  12.422  62.692  1.00  0.00     0.354 OA 
HETATM   41  C   UNL     1     -11.553  13.845  62.801  1.00  0.00     2.489 C  
HETATM   42  C   UNL     1     -12.661  15.778  63.949  1.00  0.00     0.850 C  
ENDBRANCH  20  32
ENDBRANCH   4  12
TORSDOF 9
ENDMDL
MODEL      162
REMARK 921   NORMALIZED FREE ENERGY PREDICTED BY IDOCK:    9.24 KCAL/MOL
REMARK 922        TOTAL FREE ENERGY PREDICTED BY IDOCK:   12.79 KCAL/MOL
REMARK 923 INTER-LIGAND FREE ENERGY PREDICTED BY IDOCK:    8.02 KCAL/MOL
REMARK 924 INTRA-LIGAND FREE ENERGY PREDICTED BY IDOCK:    4.78 KCAL/MOL
REMARK 927      BINDING AFFINITY PREDICTED BY RF-SCORE:    0.00 PKD
ROOT
HETATM    1  C   UNL     1     -14.089  12.320  65.626  1.00  0.00     7.808 C  
HETATM    2  N   UNL     1     -12.826  12.888  66.093  1.00  0.00     0.466 N  
HETATM    3  O   UNL     1     -12.788  11.337  67.810  1.00  0.00     1.687 OA 
HETATM    4  C   UNL     1     -12.284  12.315  67.270  1.00  0.00     0.333 C  
ENDROOT
BRANCH   2   5
HETATM    5  C   UNL     1     -12.136  13.788  65.149  1.00  0.00    -0.399 C  
BRANCH   5   6
HETATM    6  C   UNL     1     -11.845  13.296  63.731  1.00  0.00    -0.467 C  
HETATM    7  H   UNL     1     -11.699  14.080  61.923  1.00  0.00     0.000 HD 
HETATM    8  O   UNL     1     -11.880  14.385  62.804  1.00  0.00     1.023 OA 
BRANCH   6   9
HETATM    9  C   UNL     1     -10.432  12.667  63.729  1.00  0.00    -0.379 C  
HETATM   10  H   UNL     1      -9.590  10.866  63.599  1.00  0.00     0.000 HD 
HETATM   11  O   UNL     1     -10.458  11.253  63.600  1.00  0.00    -0.353 OA 
ENDBRANCH   6   9
ENDBRANCH   5   6
ENDBRANCH   2   5
BRANCH   4  12
HETATM   12  C   UNL     1     -11.035  12.861  67.901  1.00  0.00    -0.266 A  
HETATM   13  C   UNL     1     -10.200  11.985  68.603  1.00  0.00    -0.177 A  
HETATM   14  C   UNL     1     -10.682  14.249  67.887  1.00  0.00    -0.240 A  
HETATM   15  C   UNL     1      -9.401  14.692  68.344  1.00  0.00    -0.201 A  
HETATM   16  I   UNL     1     -12.162  15.666  67.199  1.00  0.00     1.993 I  
HETATM   17  I   UNL     1     -11.051  10.200  69.469  1.00  0.00    -0.278 I  
HETATM   18  C   UNL     1      -8.463  13.686  68.677  1.00  0.00    -0.038 A  
HETATM   19  I   UNL     1      -6.364  14.059  68.335  1.00  0.00    -0.156 I  
HETATM   20  C   UNL     1      -8.875  12.344  68.911  1.00  0.00     0.304 A  
BRANCH  15  21
HETATM   21  C   UNL     1      -9.056  16.174  68.346  1.00  0.00    -0.199 C  
HETATM   22  O   UNL     1      -8.652  16.668  69.402  1.00  0.00    -0.097 OA 
HETATM   23  N   UNL     1      -9.093  16.966  67.178  1.00  0.00    -0.213 N  
HETATM   24  C   UNL     1      -9.924  16.720  66.005  1.00  0.00    -0.313 C  
BRANCH  23  25
HETATM   25  C   UNL     1      -8.430  18.293  67.217  1.00  0.00    -0.250 C  
BRANCH  25  26
HETATM   26  C   UNL     1      -7.056  18.380  66.518  1.00  0.00    -0.221 C  
HETATM   27  H   UNL     1      -5.971  17.333  65.199  1.00  0.00     0.000 HD 
HETATM   28  O   UNL     1      -6.816  17.279  65.630  1.00  0.00    -0.042 OA 
BRANCH  26  29
HETATM   29  C   UNL     1      -6.936  19.652  65.661  1.00  0.00    -0.302 C  
HETATM   30  H   UNL     1      -5.813  20.279  64.169  1.00  0.00     0.000 HD 
HETATM   31  O   UNL     1      -5.888  19.494  64.698  1.00  0.00    -0.217 OA 
ENDBRANCH  26  29
ENDBRANCH  25  26
ENDBRANCH  23  25
ENDBRANCH  15  21
BRANCH  20  32
HETATM   32  N   UNL     1      -7.994  11.314  69.349  1.00  0.00    -0.366 N  
HETATM   33  C   UNL     1      -7.559  10.302  68.503  1.00  0.00    -0.089 C  
HETATM   34  H   UNL     1      -7.671  11.320  70.317  1.00  0.00     0.000 HD 
HETATM   35  H   UNL     1      -4.413  11.640  70.184  1.00  0.00     0.000 HD 
HETATM   36  H   UNL     1      -5.757   7.510  66.556  1.00  0.00     0.000 HD 
HETATM   37  C   UNL     1      -6.490   9.402  69.132  1.00  0.00    -0.042 C  
HETATM   38  O   UNL     1      -7.932  10.169  67.339  1.00  0.00    -0.109 OA 
HETATM   39  O   UNL     1      -5.841   8.322  67.043  1.00  0.00    -0.043 OA 
HETATM   40  O   UNL     1      -5.249  11.189  70.145  1.00  0.00    -0.052 OA 
HETATM   41  C   UNL     1      -5.148  10.127  69.196  1.00  0.00    -0.035 C  
HETATM   42  C   UNL     1      -6.356   8.100  68.351  1.00  0.00    -0.050 C  
ENDBRANCH  20  32
ENDBRANCH   4  12
TORSDOF 9
ENDMDL
MODEL      163
REMARK 921   NORMALIZED FREE ENERGY PREDICTED BY IDOCK:   10.16 KCAL/MOL
REMARK 922        TOTAL FREE ENERGY PREDICTED BY IDOCK:   14.20 KCAL/MOL
REMARK 923 INTER-LIGAND FREE ENERGY PREDICTED BY IDOCK:   -2.86 KCAL/MOL
REMARK 924 INTRA-LIGAND FREE ENERGY PREDICTED BY IDOCK:   17.06 KCAL/MOL
REMARK 927      BINDING AFFINITY PREDICTED BY RF-SCORE:    0.00 PKD
ROOT
HETATM    1  C   UNL     1      -8.696  15.648  65.053  1.00  0.00     3.265 C  
HETATM    2  N   UNL     1      -9.605  14.673  65.652  1.00  0.00    -0.256 N  
HETATM    3  O   UNL     1      -7.959  14.104  67.176  1.00  0.00    -0.168 OA 
HETATM    4  C   UNL     1      -9.077  13.900  66.716  1.00  0.00    -0.223 C  
ENDROOT
BRANCH   2   5
HETATM    5  C   UNL     1     -11.025  14.796  65.270  1.00  0.00    -0.374 C  
BRANCH   5   6
HETATM    6  C   UNL     1     -12.050  13.853  65.900  1.00  0.00    -0.433 C  
HETATM    7  H   UNL     1     -12.923  13.621  67.658  1.00  0.00     0.000 HD 
HETATM    8  O   UNL     1     -12.286  14.207  67.266  1.00  0.00    -0.402 OA 
BRANCH   6   9
HETATM    9  C   UNL     1     -13.368  13.986  65.102  1.00  0.00     0.398 C  
HETATM   10  H   UNL     1     -14.042  13.677  63.253  1.00  0.00     0.000 HD 
HETATM   11  O   UNL     1     -13.232  13.596  63.743  1.00  0.00     0.296 OA 
ENDBRANCH   6   9
ENDBRANCH   5   6
ENDBRANCH   2   5
BRANCH   4  12
HETATM   12  C   UNL     1      -9.880  12.808  67.362  1.00  0.00    -0.210 A  
HETATM   13  C   UNL     1     -10.032  11.595  66.681  1.00  0.00    -0.203 A  
HETATM   14  C   UNL     1     -10.565  12.961  68.610  1.00  0.00    -0.234 A  
HETATM   15  C   UNL     1     -11.166  11.841  69.266  1.00  0.00    -0.318 A  
HETATM   16  I   UNL     1     -10.708  14.945  69.453  1.00  0.00    -0.209 I  
HETATM   17  I   UNL     1      -9.888  11.581  64.526  1.00  0.00    -0.212 I  
HETATM   18  C   UNL     1     -10.932  10.568  68.693  1.00  0.00    -0.248 A  
HETATM   19  I   UNL     1     -10.797   8.847  69.989  1.00  0.00    -0.149 I  
HETATM   20  C   UNL     1     -10.461  10.439  67.356  1.00  0.00    -0.249 A  
BRANCH  15  21
HETATM   21  C   UNL     1     -11.912  12.029  70.579  1.00  0.00    -0.246 C  
HETATM   22  O   UNL     1     -12.004  11.056  71.333  1.00  0.00    -0.176 OA 
HETATM   23  N   UNL     1     -12.412  13.281  70.997  1.00  0.00    -0.370 N  
HETATM   24  C   UNL     1     -12.796  14.383  70.122  1.00  0.00    -0.103 C  
BRANCH  23  25
HETATM   25  C   UNL     1     -12.822  13.427  72.416  1.00  0.00    -0.147 C  
BRANCH  25  26
HETATM   26  C   UNL     1     -13.409  14.800  72.810  1.00  0.00    -0.486 C  
HETATM   27  H   UNL     1     -12.758  16.639  73.265  1.00  0.00     0.000 HD 
HETATM   28  O   UNL     1     -12.397  15.794  73.023  1.00  0.00    -0.387 OA 
BRANCH  26  29
HETATM   29  C   UNL     1     -14.329  15.359  71.711  1.00  0.00    -0.531 C  
HETATM   30  H   UNL     1     -14.769  14.917  69.843  1.00  0.00     0.000 HD 
HETATM   31  O   UNL     1     -14.201  14.572  70.522  1.00  0.00     0.461 OA 
ENDBRANCH  26  29
ENDBRANCH  25  26
ENDBRANCH  23  25
ENDBRANCH  15  21
BRANCH  20  32
HETATM   32  N   UNL     1     -10.306   9.187  66.693  1.00  0.00    -0.247 N  
HETATM   33  C   UNL     1      -9.082   8.759  66.197  1.00  0.00    -0.202 C  
HETATM   34  H   UNL     1     -11.122   8.585  66.579  1.00  0.00     0.000 HD 
HETATM   35  H   UNL     1     -10.445   5.823  68.206  1.00  0.00     0.000 HD 
HETATM   36  H   UNL     1      -5.932   6.913  64.970  1.00  0.00     0.000 HD 
HETATM   37  C   UNL     1      -9.110   7.318  65.675  1.00  0.00     0.084 C  
HETATM   38  O   UNL     1      -8.052   9.430  66.230  1.00  0.00    -0.109 OA 
HETATM   39  O   UNL     1      -6.686   7.083  65.524  1.00  0.00    -0.049 OA 
HETATM   40  O   UNL     1     -10.419   6.440  67.484  1.00  0.00    -0.169 OA 
HETATM   41  C   UNL     1      -9.152   6.327  66.835  1.00  0.00    -0.128 C  
HETATM   42  C   UNL     1      -7.901   7.046  64.785  1.00  0.00    -0.126 C  
ENDBRANCH  20  32
ENDBRANCH   4  12
TORSDOF 9
ENDMDL
MODEL      164
REMARK 921   NORMALIZED FREE ENERGY PREDICTED BY IDOCK:   10.96 KCAL/MOL
REMARK 922        TOTAL FREE ENERGY PREDICTED BY IDOCK:   15.43 KCAL/MOL
REMARK 923 INTER-LIGAND FREE ENERGY PREDICTED BY IDOCK:    8.66 KCAL/MOL
REMARK 924 INTRA-LIGAND FREE ENERGY PREDICTED BY IDOCK:    6.77 KCAL/MOL
REMARK 927      BINDING AFFINITY PREDICTED BY RF-SCORE:    0.00 PKD
ROOT
HETATM    1  C   UNL     1     -13.068  13.232  64.137  1.00  0.00     0.613 C  
HETATM    2  N   UNL     1     -11.883  13.368  64.981  1.00  0.00    -0.337 N  
HETATM    3  O   UNL     1     -13.213  14.212  66.677  1.00  0.00     0.532 OA 
HETATM    4  C   UNL     1     -12.092  13.939  66.261  1.00  0.00    -0.451 C  
ENDROOT
BRANCH   2   5
HETATM    5  C   UNL     1     -10.678  12.654  64.518  1.00  0.00    -0.341 C  
BRANCH   5   6
HETATM    6  C   UNL     1      -9.366  13.425  64.373  1.00  0.00     1.634 C  
HETATM    7  H   UNL     1      -8.762  15.302  64.506  1.00  0.00     0.000 HD 
HETATM    8  O   UNL     1      -9.577  14.823  64.596  1.00  0.00     0.242 OA 
BRANCH   6   9
HETATM    9  C   UNL     1      -8.377  12.881  65.430  1.00  0.00     2.491 C  
HETATM   10  H   UNL     1      -6.531  13.240  66.085  1.00  0.00     0.000 HD 
HETATM   11  O   UNL     1      -7.138  13.574  65.436  1.00  0.00     6.301 OA 
ENDBRANCH   6   9
ENDBRANCH   5   6
ENDBRANCH   2   5
BRANCH   4  12
HETATM   12  C   UNL     1     -10.945  14.209  67.192  1.00  0.00    -0.304 A  
HETATM   13  C   UNL     1     -10.509  13.180  68.034  1.00  0.00    -0.239 A  
HETATM   14  C   UNL     1     -10.315  15.488  67.322  1.00  0.00    -0.267 A  
HETATM   15  C   UNL     1      -9.118  15.649  68.088  1.00  0.00    -0.181 A  
HETATM   16  I   UNL     1     -11.252  17.184  66.364  1.00  0.00     1.416 I  
HETATM   17  I   UNL     1     -11.902  11.629  68.597  1.00  0.00    -0.087 I  
HETATM   18  C   UNL     1      -8.523  14.467  68.591  1.00  0.00    -0.161 A  
HETATM   19  I   UNL     1      -6.373  14.377  68.773  1.00  0.00    -0.114 I  
HETATM   20  C   UNL     1      -9.253  13.249  68.663  1.00  0.00     0.019 A  
BRANCH  15  21
HETATM   21  C   UNL     1      -8.479  17.022  68.236  1.00  0.00    -0.233 C  
HETATM   22  O   UNL     1      -8.957  17.951  67.580  1.00  0.00    -0.245 OA 
HETATM   23  N   UNL     1      -7.437  17.282  69.152  1.00  0.00    -0.188 N  
HETATM   24  C   UNL     1      -6.477  16.305  69.654  1.00  0.00    -0.190 C  
BRANCH  23  25
HETATM   25  C   UNL     1      -7.115  18.699  69.454  1.00  0.00    -0.085 C  
BRANCH  25  26
HETATM   26  C   UNL     1      -5.900  19.289  68.706  1.00  0.00    -0.215 C  
HETATM   27  H   UNL     1      -4.642  18.768  67.237  1.00  0.00     0.000 HD 
HETATM   28  O   UNL     1      -5.390  18.406  67.697  1.00  0.00    -0.152 OA 
BRANCH  26  29
HETATM   29  C   UNL     1      -6.261  20.598  67.983  1.00  0.00    -0.301 C  
HETATM   30  H   UNL     1      -6.295  21.251  66.125  1.00  0.00     0.000 HD 
HETATM   31  O   UNL     1      -6.073  20.442  66.572  1.00  0.00    -0.176 OA 
ENDBRANCH  26  29
ENDBRANCH  25  26
ENDBRANCH  23  25
ENDBRANCH  15  21
BRANCH  20  32
HETATM   32  N   UNL     1      -8.741  12.057  69.254  1.00  0.00    -0.013 N  
HETATM   33  C   UNL     1      -8.140  11.056  68.500  1.00  0.00    -0.140 C  
HETATM   34  H   UNL     1      -8.819  11.934  70.263  1.00  0.00     0.000 HD 
HETATM   35  H   UNL     1      -5.750  11.726  71.390  1.00  0.00     0.000 HD 
HETATM   36  H   UNL     1      -6.080   8.168  67.001  1.00  0.00     0.000 HD 
HETATM   37  C   UNL     1      -7.515   9.948  69.353  1.00  0.00    -0.108 C  
HETATM   38  O   UNL     1      -8.048  11.078  67.274  1.00  0.00    -0.119 OA 
HETATM   39  O   UNL     1      -6.246   8.942  67.527  1.00  0.00    -0.051 OA 
HETATM   40  O   UNL     1      -6.553  11.422  70.984  1.00  0.00     0.281 OA 
HETATM   41  C   UNL     1      -6.224  10.435  70.006  1.00  0.00    -0.093 C  
HETATM   42  C   UNL     1      -7.249   8.706  68.509  1.00  0.00    -0.081 C  
ENDBRANCH  20  32
ENDBRANCH   4  12
TORSDOF 9
ENDMDL
MODEL      165
REMARK 921   NORMALIZED FREE ENERGY PREDICTED BY IDOCK:   11.06 KCAL/MOL
REMARK 922        TOTAL FREE ENERGY PREDICTED BY IDOCK:   15.58 KCAL/MOL
REMARK 923 INTER-LIGAND FREE ENERGY PREDICTED BY IDOCK:    5.44 KCAL/MOL
REMARK 924 INTRA-LIGAND FREE ENERGY PREDICTED BY IDOCK:   10.14 KCAL/MOL
REMARK 927      BINDING AFFINITY PREDICTED BY RF-SCORE:    0.00 PKD
ROOT
HETATM    1  C   UNL     1      -7.305   2.060  69.144  1.00  0.00    -0.043 C  
HETATM    2  N   UNL     1      -7.437   3.483  69.452  1.00  0.00    -0.049 N  
HETATM    3  O   UNL     1      -6.465   3.994  67.414  1.00  0.00    -0.036 OA 
HETATM    4  C   UNL     1      -6.912   4.380  68.488  1.00  0.00    -0.052 C  
ENDROOT
BRANCH   2   5
HETATM    5  C   UNL     1      -8.329   3.818  70.578  1.00  0.00    -0.061 C  
BRANCH   5   6
HETATM    6  C   UNL     1      -9.830   3.955  70.321  1.00  0.00    -0.098 C  
HETATM    7  H   UNL     1     -11.004   4.575  68.857  1.00  0.00     0.000 HD 
HETATM    8  O   UNL     1     -10.071   4.490  69.017  1.00  0.00    -0.129 OA 
BRANCH   6   9
HETATM    9  C   UNL     1     -10.457   2.545  70.420  1.00  0.00     1.802 C  
HETATM   10  H   UNL     1     -11.274   1.357  71.795  1.00  0.00     0.000 HD 
HETATM   11  O   UNL     1     -10.889   2.223  71.734  1.00  0.00     0.539 OA 
ENDBRANCH   6   9
ENDBRANCH   5   6
ENDBRANCH   2   5
BRANCH   4  12
HETATM   12  C   UNL     1      -6.910   5.864  68.722  1.00  0.00    -0.066 A  
HETATM   13  C   UNL     1      -6.705   6.337  70.022  1.00  0.00    -0.053 A  
HETATM   14  C   UNL     1      -7.179   6.827  67.697  1.00  0.00    -0.094 A  
HETATM   15  C   UNL     1      -6.991   8.226  67.928  1.00  0.00    -0.078 A  
HETATM   16  I   UNL     1      -7.927   6.110  65.800  1.00  0.00    -0.133 I  
HETATM   17  I   UNL     1      -7.228   5.070  71.691  1.00  0.00    -0.075 I  
HETATM   18  C   UNL     1      -6.402   8.592  69.162  1.00  0.00    -0.043 A  
HETATM   19  I   UNL     1      -5.133  10.337  69.237  1.00  0.00    -0.037 I  
HETATM   20  C   UNL     1      -6.351   7.679  70.252  1.00  0.00    -0.034 A  
BRANCH  15  21
HETATM   21  C   UNL     1      -7.308   9.235  66.834  1.00  0.00    -0.090 C  
HETATM   22  O   UNL     1      -6.384   9.936  66.414  1.00  0.00    -0.067 OA 
HETATM   23  N   UNL     1      -8.581   9.328  66.231  1.00  0.00    -0.125 N  
HETATM   24  C   UNL     1      -9.848   8.948  66.846  1.00  0.00    -0.223 C  
BRANCH  23  25
HETATM   25  C   UNL     1      -8.696  10.098  64.968  1.00  0.00    -0.173 C  
BRANCH  25  26
HETATM   26  C   UNL     1      -7.745   9.671  63.829  1.00  0.00    -0.130 C  
HETATM   27  H   UNL     1      -7.664   9.751  61.829  1.00  0.00     0.000 HD 
HETATM   28  O   UNL     1      -8.249  10.014  62.530  1.00  0.00    -0.126 OA 
BRANCH  26  29
HETATM   29  C   UNL     1      -6.374  10.358  63.948  1.00  0.00    -0.043 C  
HETATM   30  H   UNL     1      -5.003  11.053  62.716  1.00  0.00     0.000 HD 
HETATM   31  O   UNL     1      -5.850  10.629  62.643  1.00  0.00    -0.143 OA 
ENDBRANCH  26  29
ENDBRANCH  25  26
ENDBRANCH  23  25
ENDBRANCH  15  21
BRANCH  20  32
HETATM   32  N   UNL     1      -5.864   8.024  71.547  1.00  0.00    -0.034 N  
HETATM   33  C   UNL     1      -6.172   9.234  72.155  1.00  0.00     0.121 C  
HETATM   34  H   UNL     1      -5.270   7.359  72.043  1.00  0.00     0.000 HD 
HETATM   35  H   UNL     1      -6.886   6.566  74.780  1.00  0.00     0.000 HD 
HETATM   36  H   UNL     1      -6.979  12.215  74.456  1.00  0.00     0.000 HD 
HETATM   37  C   UNL     1      -5.685   9.324  73.606  1.00  0.00     0.022 C  
HETATM   38  O   UNL     1      -6.830  10.126  71.623  1.00  0.00     0.157 OA 
HETATM   39  O   UNL     1      -6.987  11.311  74.161  1.00  0.00     4.157 OA 
HETATM   40  O   UNL     1      -6.341   7.096  74.211  1.00  0.00    -0.077 OA 
HETATM   41  C   UNL     1      -6.561   8.472  74.521  1.00  0.00    -0.145 C  
HETATM   42  C   UNL     1      -5.672  10.774  74.079  1.00  0.00     1.103 C  
ENDBRANCH  20  32
ENDBRANCH   4  12
TORSDOF 9
ENDMDL
MODEL      166
REMARK 921   NORMALIZED FREE ENERGY PREDICTED BY IDOCK:   11.09 KCAL/MOL
REMARK 922        TOTAL FREE ENERGY PREDICTED BY IDOCK:   15.62 KCAL/MOL
REMARK 923 INTER-LIGAND FREE ENERGY PREDICTED BY IDOCK:   -1.24 KCAL/MOL
REMARK 924 INTRA-LIGAND FREE ENERGY PREDICTED BY IDOCK:   16.87 KCAL/MOL
REMARK 927      BINDING AFFINITY PREDICTED BY RF-SCORE:    0.00 PKD
ROOT
HETATM    1  C   UNL     1      -9.206   8.809  73.256  1.00  0.00     0.584 C  
HETATM    2  N   UNL     1      -9.173   8.525  71.822  1.00  0.00    -0.222 N  
HETATM    3  O   UNL     1      -9.919  10.675  71.401  1.00  0.00     2.293 OA 
HETATM    4  C   UNL     1      -9.619   9.567  70.972  1.00  0.00    -0.090 C  
ENDROOT
BRANCH   2   5
HETATM    5  C   UNL     1      -8.434   7.312  71.422  1.00  0.00    -0.114 C  
BRANCH   5   6
HETATM    6  C   UNL     1      -7.647   6.539  72.480  1.00  0.00    -0.095 C  
HETATM    7  H   UNL     1      -7.766   6.202  74.423  1.00  0.00     0.000 HD 
HETATM    8  O   UNL     1      -8.256   6.683  73.766  1.00  0.00    -0.106 OA 
BRANCH   6   9
HETATM    9  C   UNL     1      -7.651   5.046  72.075  1.00  0.00    -0.096 C  
HETATM   10  H   UNL     1      -8.959   3.569  71.798  1.00  0.00     0.000 HD 
HETATM   11  O   UNL     1      -8.956   4.486  72.046  1.00  0.00    -0.122 OA 
ENDBRANCH   6   9
ENDBRANCH   5   6
ENDBRANCH   2   5
BRANCH   4  12
HETATM   12  C   UNL     1      -9.714   9.374  69.485  1.00  0.00    -0.191 A  
HETATM   13  C   UNL     1     -10.695  10.078  68.779  1.00  0.00    -0.223 A  
HETATM   14  C   UNL     1      -8.899   8.452  68.753  1.00  0.00    -0.140 A  
HETATM   15  C   UNL     1      -8.904   8.435  67.322  1.00  0.00    -0.137 A  
HETATM   16  I   UNL     1      -7.695   7.050  69.872  1.00  0.00    -0.113 I  
HETATM   17  I   UNL     1     -12.485  10.699  69.816  1.00  0.00     0.354 I  
HETATM   18  C   UNL     1      -9.642   9.456  66.678  1.00  0.00    -0.192 A  
HETATM   19  I   UNL     1      -8.943  10.212  64.780  1.00  0.00    -0.317 I  
HETATM   20  C   UNL     1     -10.619  10.213  67.381  1.00  0.00    -0.272 A  
BRANCH  15  21
HETATM   21  C   UNL     1      -8.051   7.429  66.563  1.00  0.00    -0.117 C  
HETATM   22  O   UNL     1      -7.218   6.782  67.205  1.00  0.00    -0.080 OA 
HETATM   23  N   UNL     1      -8.243   7.148  65.194  1.00  0.00    -0.132 N  
HETATM   24  C   UNL     1      -8.814   8.058  64.207  1.00  0.00     0.560 C  
BRANCH  23  25
HETATM   25  C   UNL     1      -7.598   5.933  64.636  1.00  0.00    -0.089 C  
BRANCH  25  26
HETATM   26  C   UNL     1      -7.519   4.717  65.583  1.00  0.00    -0.081 C  
HETATM   27  H   UNL     1      -7.960   2.763  65.559  1.00  0.00     0.000 HD 
HETATM   28  O   UNL     1      -8.008   3.512  64.977  1.00  0.00    -0.088 OA 
BRANCH  26  29
HETATM   29  C   UNL     1      -6.070   4.422  66.007  1.00  0.00    -0.031 C  
HETATM   30  H   UNL     1      -4.273   5.073  65.534  1.00  0.00     0.000 HD 
HETATM   31  O   UNL     1      -5.168   5.255  65.272  1.00  0.00    -0.012 OA 
ENDBRANCH  26  29
ENDBRANCH  25  26
ENDBRANCH  23  25
ENDBRANCH  15  21
BRANCH  20  32
HETATM   32  N   UNL     1     -11.463  11.180  66.762  1.00  0.00    -0.056 N  
HETATM   33  C   UNL     1     -10.987  12.412  66.332  1.00  0.00    -0.276 C  
HETATM   34  H   UNL     1     -12.451  10.960  66.629  1.00  0.00     0.000 HD 
HETATM   35  H   UNL     1     -12.964  11.008  63.395  1.00  0.00     0.000 HD 
HETATM   36  H   UNL     1     -10.172  15.771  64.634  1.00  0.00     0.000 HD 
HETATM   37  C   UNL     1     -12.024  13.223  65.547  1.00  0.00    -0.445 C  
HETATM   38  O   UNL     1      -9.831  12.799  66.495  1.00  0.00    -0.245 OA 
HETATM   39  O   UNL     1     -10.431  14.858  64.685  1.00  0.00    -0.337 OA 
HETATM   40  O   UNL     1     -12.847  11.369  64.265  1.00  0.00     0.172 OA 
HETATM   41  C   UNL     1     -12.212  12.642  64.148  1.00  0.00    -0.450 C  
HETATM   42  C   UNL     1     -11.609  14.688  65.464  1.00  0.00    -0.335 C  
ENDBRANCH  20  32
ENDBRANCH   4  12
TORSDOF 9
ENDMDL
MODEL      167
REMARK 921   NORMALIZED FREE ENERGY PREDICTED BY IDOCK:   11.75 KCAL/MOL
REMARK 922        TOTAL FREE ENERGY PREDICTED BY IDOCK:   16.63 KCAL/MOL
REMARK 923 INTER-LIGAND FREE ENERGY PREDICTED BY IDOCK:    3.57 KCAL/MOL
REMARK 924 INTRA-LIGAND FREE ENERGY PREDICTED BY IDOCK:   13.06 KCAL/MOL
REMARK 927      BINDING AFFINITY PREDICTED BY RF-SCORE:    0.00 PKD
ROOT
HETATM    1  C   UNL     1      -7.680  21.056  68.414  1.00  0.00     0.800 C  
HETATM    2  N   UNL     1      -8.168  19.678  68.407  1.00  0.00    -0.334 N  
HETATM    3  O   UNL     1      -5.989  18.929  68.194  1.00  0.00    -0.204 OA 
HETATM    4  C   UNL     1      -7.186  18.671  68.234  1.00  0.00    -0.260 C  
ENDROOT
BRANCH   2   5
HETATM    5  C   UNL     1      -9.563  19.486  68.848  1.00  0.00    -0.395 C  
BRANCH   5   6
HETATM    6  C   UNL     1      -9.867  19.421  70.344  1.00  0.00     1.144 C  
HETATM    7  H   UNL     1     -10.593  18.102  71.624  1.00  0.00     0.000 HD 
HETATM    8  O   UNL     1     -10.404  18.142  70.694  1.00  0.00     1.353 OA 
BRANCH   6   9
HETATM    9  C   UNL     1      -8.540  19.646  71.107  1.00  0.00     2.912 C  
HETATM   10  H   UNL     1      -6.737  20.430  70.786  1.00  0.00     0.000 HD 
HETATM   11  O   UNL     1      -7.552  20.292  70.318  1.00  0.00     0.405 OA 
ENDBRANCH   6   9
ENDBRANCH   5   6
ENDBRANCH   2   5
BRANCH   4  12
HETATM   12  C   UNL     1      -7.565  17.221  68.126  1.00  0.00    -0.211 A  
HETATM   13  C   UNL     1      -8.531  16.849  67.186  1.00  0.00    -0.197 A  
HETATM   14  C   UNL     1      -7.043  16.201  68.985  1.00  0.00    -0.187 A  
HETATM   15  C   UNL     1      -7.297  14.817  68.728  1.00  0.00    -0.129 A  
HETATM   16  I   UNL     1      -5.899  16.815  70.713  1.00  0.00     0.987 I  
HETATM   17  I   UNL     1      -9.995  18.307  66.558  1.00  0.00    -0.388 I  
HETATM   18  C   UNL     1      -7.966  14.507  67.521  1.00  0.00    -0.191 A  
HETATM   19  I   UNL     1      -7.495  12.659  66.509  1.00  0.00     1.690 I  
HETATM   20  C   UNL     1      -8.676  15.505  66.796  1.00  0.00    -0.267 A  
BRANCH  15  21
HETATM   21  C   UNL     1      -6.757  13.749  69.669  1.00  0.00    -0.015 C  
HETATM   22  O   UNL     1      -6.909  13.922  70.882  1.00  0.00     0.421 OA 
HETATM   23  N   UNL     1      -6.182  12.547  69.206  1.00  0.00    -0.098 N  
HETATM   24  C   UNL     1      -5.528  12.353  67.915  1.00  0.00    -0.087 C  
BRANCH  23  25
HETATM   25  C   UNL     1      -5.994  11.444  70.182  1.00  0.00    -0.152 C  
BRANCH  25  26
HETATM   26  C   UNL     1      -6.360  10.031  69.680  1.00  0.00    -0.053 C  
HETATM   27  H   UNL     1      -6.239   8.134  70.312  1.00  0.00     0.000 HD 
HETATM   28  O   UNL     1      -6.014   9.004  70.620  1.00  0.00    -0.032 OA 
BRANCH  26  29
HETATM   29  C   UNL     1      -7.872   9.890  69.434  1.00  0.00    -0.127 C  
HETATM   30  H   UNL     1      -9.044   8.836  68.254  1.00  0.00     0.000 HD 
HETATM   31  O   UNL     1      -8.110   8.923  68.407  1.00  0.00    -0.107 OA 
ENDBRANCH  26  29
ENDBRANCH  25  26
ENDBRANCH  23  25
ENDBRANCH  15  21
BRANCH  20  32
HETATM   32  N   UNL     1      -9.452  15.232  65.632  1.00  0.00    -0.402 N  
HETATM   33  C   UNL     1     -10.163  14.049  65.477  1.00  0.00    -0.343 C  
HETATM   34  H   UNL     1      -9.487  15.929  64.889  1.00  0.00     0.000 HD 
HETATM   35  H   UNL     1     -12.626  16.830  64.637  1.00  0.00     0.000 HD 
HETATM   36  H   UNL     1     -12.592  11.172  64.667  1.00  0.00     0.000 HD 
HETATM   37  C   UNL     1     -11.057  14.038  64.233  1.00  0.00    -0.198 C  
HETATM   38  O   UNL     1     -10.143  13.121  66.285  1.00  0.00    -0.272 OA 
HETATM   39  O   UNL     1     -12.329  12.059  64.883  1.00  0.00    -0.367 OA 
HETATM   40  O   UNL     1     -11.862  16.282  64.504  1.00  0.00    -0.305 OA 
HETATM   41  C   UNL     1     -12.285  14.920  64.445  1.00  0.00    -0.381 C  
HETATM   42  C   UNL     1     -11.478  12.613  63.886  1.00  0.00    -0.442 C  
ENDBRANCH  20  32
ENDBRANCH   4  12
TORSDOF 9
ENDMDL
MODEL      168
REMARK 921   NORMALIZED FREE ENERGY PREDICTED BY IDOCK:   13.42 KCAL/MOL
REMARK 922        TOTAL FREE ENERGY PREDICTED BY IDOCK:   19.19 KCAL/MOL
REMARK 923 INTER-LIGAND FREE ENERGY PREDICTED BY IDOCK:   13.85 KCAL/MOL
REMARK 924 INTRA-LIGAND FREE ENERGY PREDICTED BY IDOCK:    5.34 KCAL/MOL
REMARK 927      BINDING AFFINITY PREDICTED BY RF-SCORE:    0.00 PKD
ROOT
HETATM    1  C   UNL     1     -13.165  10.595  63.790  1.00  0.00     5.297 C  
HETATM    2  N   UNL     1     -11.969  11.140  64.430  1.00  0.00     0.540 N  
HETATM    3  O   UNL     1     -12.134   9.518  66.072  1.00  0.00     4.805 OA 
HETATM    4  C   UNL     1     -11.571  10.518  65.638  1.00  0.00     1.685 C  
ENDROOT
BRANCH   2   5
HETATM    5  C   UNL     1     -11.173  12.077  63.614  1.00  0.00    -0.450 C  
BRANCH   5   6
HETATM    6  C   UNL     1     -10.341  13.151  64.315  1.00  0.00    -0.339 C  
HETATM    7  H   UNL     1      -8.476  13.803  64.272  1.00  0.00     0.000 HD 
HETATM    8  O   UNL     1      -8.993  13.136  63.837  1.00  0.00     1.779 OA 
BRANCH   6   9
HETATM    9  C   UNL     1     -10.981  14.524  64.002  1.00  0.00     0.591 C  
HETATM   10  H   UNL     1     -12.769  15.284  63.565  1.00  0.00     0.000 HD 
HETATM   11  O   UNL     1     -12.377  14.440  63.757  1.00  0.00    -0.736 OA 
ENDBRANCH   6   9
ENDBRANCH   5   6
ENDBRANCH   2   5
BRANCH   4  12
HETATM   12  C   UNL     1     -10.409  11.034  66.437  1.00  0.00    -0.302 A  
HETATM   13  C   UNL     1      -9.361  10.158  66.739  1.00  0.00    -0.160 A  
HETATM   14  C   UNL     1     -10.344  12.360  66.973  1.00  0.00    -0.220 A  
HETATM   15  C   UNL     1      -9.144  12.858  67.572  1.00  0.00    -0.191 A  
HETATM   16  I   UNL     1     -12.129  13.575  66.896  1.00  0.00    -0.218 I  
HETATM   17  I   UNL     1      -9.763   8.038  66.827  1.00  0.00    -0.301 I  
HETATM   18  C   UNL     1      -7.999  12.030  67.484  1.00  0.00    -0.159 A  
HETATM   19  I   UNL     1      -6.053  12.951  67.323  1.00  0.00     0.628 I  
HETATM   20  C   UNL     1      -8.114  10.648  67.168  1.00  0.00    -0.121 A  
BRANCH  15  21
HETATM   21  C   UNL     1      -9.104  14.261  68.160  1.00  0.00    -0.193 C  
HETATM   22  O   UNL     1      -9.525  15.188  67.463  1.00  0.00    -0.203 OA 
HETATM   23  N   UNL     1      -8.696  14.519  69.486  1.00  0.00     0.219 N  
HETATM   24  C   UNL     1      -7.787  13.695  70.276  1.00  0.00     2.265 C  
BRANCH  23  25
HETATM   25  C   UNL     1      -9.005  15.852  70.062  1.00  0.00     0.556 C  
BRANCH  25  26
HETATM   26  C   UNL     1      -9.081  17.019  69.055  1.00  0.00    -0.146 C  
HETATM   27  H   UNL     1     -10.351  18.481  68.542  1.00  0.00     0.000 HD 
HETATM   28  O   UNL     1     -10.304  17.762  69.161  1.00  0.00    -0.350 OA 
BRANCH  26  29
HETATM   29  C   UNL     1      -7.946  18.034  69.278  1.00  0.00     0.196 C  
HETATM   30  H   UNL     1      -6.785  19.160  68.155  1.00  0.00     0.000 HD 
HETATM   31  O   UNL     1      -7.486  18.534  68.018  1.00  0.00    -0.239 OA 
ENDBRANCH  26  29
ENDBRANCH  25  26
ENDBRANCH  23  25
ENDBRANCH  15  21
BRANCH  20  32
HETATM   32  N   UNL     1      -7.011   9.745  67.166  1.00  0.00    -0.084 N  
HETATM   33  C   UNL     1      -6.807   8.823  68.185  1.00  0.00    -0.069 C  
HETATM   34  H   UNL     1      -6.349   9.778  66.391  1.00  0.00     0.000 HD 
HETATM   35  H   UNL     1      -6.500   6.843  64.944  1.00  0.00     0.000 HD 
HETATM   36  H   UNL     1      -5.953   5.859  70.490  1.00  0.00     0.000 HD 
HETATM   37  C   UNL     1      -5.663   7.846  67.897  1.00  0.00    -0.037 C  
HETATM   38  O   UNL     1      -7.511   8.739  69.190  1.00  0.00    -0.074 OA 
HETATM   39  O   UNL     1      -6.231   6.293  69.692  1.00  0.00    -0.030 OA 
HETATM   40  O   UNL     1      -6.238   7.483  65.596  1.00  0.00    -0.038 OA 
HETATM   41  C   UNL     1      -6.084   6.818  66.850  1.00  0.00    -0.036 C  
HETATM   42  C   UNL     1      -5.216   7.149  69.178  1.00  0.00    -0.015 C  
ENDBRANCH  20  32
ENDBRANCH   4  12
TORSDOF 9
ENDMDL
MODEL      169
REMARK 921   NORMALIZED FREE ENERGY PREDICTED BY IDOCK:   14.13 KCAL/MOL
REMARK 922        TOTAL FREE ENERGY PREDICTED BY IDOCK:   20.26 KCAL/MOL
REMARK 923 INTER-LIGAND FREE ENERGY PREDICTED BY IDOCK:   -2.26 KCAL/MOL
REMARK 924 INTRA-LIGAND FREE ENERGY PREDICTED BY IDOCK:   22.52 KCAL/MOL
REMARK 927      BINDING AFFINITY PREDICTED BY RF-SCORE:    0.00 PKD
ROOT
HETATM    1  C   UNL     1     -11.087   5.832  71.544  1.00  0.00    -0.214 C  
HETATM    2  N   UNL     1     -10.595   6.770  70.536  1.00  0.00    -0.219 N  
HETATM    3  O   UNL     1     -10.026   4.984  69.180  1.00  0.00    -0.180 OA 
HETATM    4  C   UNL     1     -10.021   6.194  69.376  1.00  0.00    -0.166 C  
ENDROOT
BRANCH   2   5
HETATM    5  C   UNL     1     -10.996   8.178  70.718  1.00  0.00    -0.244 C  
BRANCH   5   6
HETATM    6  C   UNL     1     -11.535   8.628  72.076  1.00  0.00    -0.367 C  
HETATM    7  H   UNL     1     -10.796   9.270  73.793  1.00  0.00     0.000 HD 
HETATM    8  O   UNL     1     -10.461   8.990  72.949  1.00  0.00     0.500 OA 
BRANCH   6   9
HETATM    9  C   UNL     1     -12.440   9.860  71.841  1.00  0.00    -0.347 C  
HETATM   10  H   UNL     1     -13.187  10.907  70.319  1.00  0.00     0.000 HD 
HETATM   11  O   UNL     1     -12.631  10.150  70.464  1.00  0.00    -0.281 OA 
ENDBRANCH   6   9
ENDBRANCH   5   6
ENDBRANCH   2   5
BRANCH   4  12
HETATM   12  C   UNL     1      -9.405   7.046  68.304  1.00  0.00    -0.126 A  
HETATM   13  C   UNL     1      -8.931   6.425  67.144  1.00  0.00    -0.109 A  
HETATM   14  C   UNL     1      -9.207   8.458  68.432  1.00  0.00    -0.135 A  
HETATM   15  C   UNL     1      -8.781   9.249  67.318  1.00  0.00    -0.132 A  
HETATM   16  I   UNL     1      -9.522   9.357  70.371  1.00  0.00    -0.238 I  
HETATM   17  I   UNL     1      -8.323   4.355  67.240  1.00  0.00    -0.103 I  
HETATM   18  C   UNL     1      -8.700   8.593  66.067  1.00  0.00    -0.170 A  
HETATM   19  I   UNL     1      -9.135   9.710  64.271  1.00  0.00    -0.022 I  
HETATM   20  C   UNL     1      -8.670   7.173  65.982  1.00  0.00    -0.147 A  
BRANCH  15  21
HETATM   21  C   UNL     1      -8.550  10.745  67.482  1.00  0.00    -0.125 C  
HETATM   22  O   UNL     1      -7.464  11.111  67.939  1.00  0.00    -0.089 OA 
HETATM   23  N   UNL     1      -9.483  11.711  67.048  1.00  0.00    -0.180 N  
HETATM   24  C   UNL     1     -10.922  11.510  66.915  1.00  0.00    -0.296 C  
BRANCH  23  25
HETATM   25  C   UNL     1      -9.028  13.120  66.948  1.00  0.00    -0.209 C  
BRANCH  25  26
HETATM   26  C   UNL     1      -8.213  13.652  68.147  1.00  0.00    -0.158 C  
HETATM   27  H   UNL     1      -8.490  14.062  70.088  1.00  0.00     0.000 HD 
HETATM   28  O   UNL     1      -8.991  13.735  69.350  1.00  0.00     0.492 OA 
BRANCH  26  29
HETATM   29  C   UNL     1      -7.021  12.736  68.473  1.00  0.00    -0.095 C  
HETATM   30  H   UNL     1      -6.443  11.613  69.984  1.00  0.00     0.000 HD 
HETATM   31  O   UNL     1      -7.179  12.179  69.782  1.00  0.00     0.267 OA 
ENDBRANCH  26  29
ENDBRANCH  25  26
ENDBRANCH  23  25
ENDBRANCH  15  21
BRANCH  20  32
HETATM   32  N   UNL     1      -8.486   6.460  64.761  1.00  0.00    -0.334 N  
HETATM   33  C   UNL     1      -8.539   5.074  64.698  1.00  0.00    -0.150 C  
HETATM   34  H   UNL     1      -8.310   6.986  63.905  1.00  0.00     0.000 HD 
HETATM   35  H   UNL     1     -10.803   6.306  61.892  1.00  0.00     0.000 HD 
HETATM   36  H   UNL     1      -8.941   1.337  63.859  1.00  0.00     0.000 HD 
HETATM   37  C   UNL     1      -8.483   4.530  63.267  1.00  0.00    -0.109 C  
HETATM   38  O   UNL     1      -8.688   4.344  65.677  1.00  0.00    -0.117 OA 
HETATM   39  O   UNL     1      -9.161   2.261  63.858  1.00  0.00    -0.100 OA 
HETATM   40  O   UNL     1      -9.976   6.162  62.338  1.00  0.00     1.559 OA 
HETATM   41  C   UNL     1      -9.811   4.760  62.551  1.00  0.00     0.166 C  
HETATM   42  C   UNL     1      -8.130   3.046  63.270  1.00  0.00    -0.080 C  
ENDBRANCH  20  32
ENDBRANCH   4  12
TORSDOF 9
ENDMDL
MODEL      170
REMARK 921   NORMALIZED FREE ENERGY PREDICTED BY IDOCK:   14.46 KCAL/MOL
REMARK 922        TOTAL FREE ENERGY PREDICTED BY IDOCK:   20.77 KCAL/MOL
REMARK 923 INTER-LIGAND FREE ENERGY PREDICTED BY IDOCK:   11.54 KCAL/MOL
REMARK 924 INTRA-LIGAND FREE ENERGY PREDICTED BY IDOCK:    9.23 KCAL/MOL
REMARK 927      BINDING AFFINITY PREDICTED BY RF-SCORE:    0.00 PKD
ROOT
HETATM    1  C   UNL     1     -10.180  12.342  62.969  1.00  0.00     0.475 C  
HETATM    2  N   UNL     1      -9.680  12.186  64.334  1.00  0.00    -0.103 N  
HETATM    3  O   UNL     1      -8.814  10.119  63.757  1.00  0.00    -0.188 OA 
HETATM    4  C   UNL     1      -9.033  10.959  64.623  1.00  0.00    -0.132 C  
ENDROOT
BRANCH   2   5
HETATM    5  C   UNL     1      -9.665  13.409  65.158  1.00  0.00     0.065 C  
BRANCH   5   6
HETATM    6  C   UNL     1      -9.963  13.302  66.654  1.00  0.00    -0.272 C  
HETATM    7  H   UNL     1      -9.694  14.404  68.272  1.00  0.00     0.000 HD 
HETATM    8  O   UNL     1      -9.508  14.470  67.343  1.00  0.00    -0.195 OA 
BRANCH   6   9
HETATM    9  C   UNL     1     -11.495  13.173  66.822  1.00  0.00    -0.343 C  
HETATM   10  H   UNL     1     -13.139  14.247  66.485  1.00  0.00     0.000 HD 
HETATM   11  O   UNL     1     -12.198  14.326  66.382  1.00  0.00    -0.436 OA 
ENDBRANCH   6   9
ENDBRANCH   5   6
ENDBRANCH   2   5
BRANCH   4  12
HETATM   12  C   UNL     1      -8.548  10.639  66.008  1.00  0.00    -0.177 A  
HETATM   13  C   UNL     1      -7.484  11.379  66.533  1.00  0.00    -0.068 A  
HETATM   14  C   UNL     1      -9.068   9.565  66.800  1.00  0.00    -0.146 A  
HETATM   15  C   UNL     1      -8.699   9.413  68.174  1.00  0.00    -0.124 A  
HETATM   16  I   UNL     1     -10.391   8.147  65.846  1.00  0.00     2.600 I  
HETATM   17  I   UNL     1      -6.077  12.295  65.175  1.00  0.00     7.359 I  
HETATM   18  C   UNL     1      -7.912  10.445  68.737  1.00  0.00    -0.122 A  
HETATM   19  I   UNL     1      -8.169  10.934  70.825  1.00  0.00     5.394 I  
HETATM   20  C   UNL     1      -7.214  11.372  67.914  1.00  0.00    -0.084 A  
BRANCH  15  21
HETATM   21  C   UNL     1      -9.241   8.249  68.991  1.00  0.00    -0.147 C  
HETATM   22  O   UNL     1      -8.515   7.778  69.871  1.00  0.00    -0.129 OA 
HETATM   23  N   UNL     1     -10.557   7.762  68.841  1.00  0.00    -0.188 N  
HETATM   24  C   UNL     1     -11.371   7.855  67.634  1.00  0.00     0.879 C  
BRANCH  23  25
HETATM   25  C   UNL     1     -11.089   6.863  69.895  1.00  0.00    -0.288 C  
BRANCH  25  26
HETATM   26  C   UNL     1     -11.235   7.485  71.301  1.00  0.00    -0.251 C  
HETATM   27  H   UNL     1     -10.068   8.280  72.721  1.00  0.00     0.000 HD 
HETATM   28  O   UNL     1      -9.978   7.897  71.856  1.00  0.00    -0.165 OA 
BRANCH  26  29
HETATM   29  C   UNL     1     -12.121   8.743  71.275  1.00  0.00    -0.296 C  
HETATM   30  H   UNL     1     -11.870  10.683  71.505  1.00  0.00     0.000 HD 
HETATM   31  O   UNL     1     -11.323   9.906  71.521  1.00  0.00    -0.343 OA 
ENDBRANCH  26  29
ENDBRANCH  25  26
ENDBRANCH  23  25
ENDBRANCH  15  21
BRANCH  20  32
HETATM   32  N   UNL     1      -6.327  12.366  68.421  1.00  0.00    -0.052 N  
HETATM   33  C   UNL     1      -6.513  13.720  68.174  1.00  0.00    -0.124 C  
HETATM   34  H   UNL     1      -5.530  12.072  68.985  1.00  0.00     0.000 HD 
HETATM   35  H   UNL     1      -5.949  13.442  71.931  1.00  0.00     0.000 HD 
HETATM   36  H   UNL     1      -6.723  17.565  68.133  1.00  0.00     0.000 HD 
HETATM   37  C   UNL     1      -5.543  14.617  68.951  1.00  0.00    -0.087 C  
HETATM   38  O   UNL     1      -7.406  14.175  67.461  1.00  0.00    -0.170 OA 
HETATM   39  O   UNL     1      -6.747  16.692  68.509  1.00  0.00    -0.138 OA 
HETATM   40  O   UNL     1      -5.705  13.402  71.014  1.00  0.00    -0.194 OA 
HETATM   41  C   UNL     1      -5.935  14.681  70.425  1.00  0.00    -0.165 C  
HETATM   42  C   UNL     1      -5.505  16.017  68.348  1.00  0.00    -0.104 C  
ENDBRANCH  20  32
ENDBRANCH   4  12
TORSDOF 9
ENDMDL
MODEL      171
REMARK 921   NORMALIZED FREE ENERGY PREDICTED BY IDOCK:   14.86 KCAL/MOL
REMARK 922        TOTAL FREE ENERGY PREDICTED BY IDOCK:   21.38 KCAL/MOL
REMARK 923 INTER-LIGAND FREE ENERGY PREDICTED BY IDOCK:   16.56 KCAL/MOL
REMARK 924 INTRA-LIGAND FREE ENERGY PREDICTED BY IDOCK:    4.82 KCAL/MOL
REMARK 927      BINDING AFFINITY PREDICTED BY RF-SCORE:    0.00 PKD
ROOT
HETATM    1  C   UNL     1     -11.575  13.301  71.948  1.00  0.00     2.578 C  
HETATM    2  N   UNL     1     -11.013  13.095  70.615  1.00  0.00     1.558 N  
HETATM    3  O   UNL     1     -10.815  10.835  71.070  1.00  0.00     0.521 OA 
HETATM    4  C   UNL     1     -10.612  11.772  70.306  1.00  0.00     1.591 C  
ENDROOT
BRANCH   2   5
HETATM    5  C   UNL     1     -11.181  14.212  69.665  1.00  0.00    -0.191 C  
BRANCH   5   6
HETATM    6  C   UNL     1     -10.578  15.575  70.007  1.00  0.00    -0.324 C  
HETATM    7  H   UNL     1     -11.140  17.469  69.947  1.00  0.00     0.000 HD 
HETATM    8  O   UNL     1     -11.515  16.622  69.735  1.00  0.00    -0.063 OA 
BRANCH   6   9
HETATM    9  C   UNL     1     -10.233  15.575  71.514  1.00  0.00     1.443 C  
HETATM   10  H   UNL     1     -10.794  16.507  73.184  1.00  0.00     0.000 HD 
HETATM   11  O   UNL     1     -11.006  16.507  72.258  1.00  0.00     0.806 OA 
ENDBRANCH   6   9
ENDBRANCH   5   6
ENDBRANCH   2   5
BRANCH   4  12
HETATM   12  C   UNL     1      -9.945  11.442  69.001  1.00  0.00    -0.087 A  
HETATM   13  C   UNL     1      -8.669  10.870  69.027  1.00  0.00    -0.100 A  
HETATM   14  C   UNL     1     -10.512  11.748  67.723  1.00  0.00    -0.194 A  
HETATM   15  C   UNL     1      -9.923  11.256  66.515  1.00  0.00    -0.247 A  
HETATM   16  I   UNL     1     -12.261  13.017  67.664  1.00  0.00     0.673 I  
HETATM   17  I   UNL     1      -7.393  11.236  70.730  1.00  0.00     4.468 I  
HETATM   18  C   UNL     1      -8.845  10.351  66.658  1.00  0.00    -0.134 A  
HETATM   19  I   UNL     1      -8.585   8.795  65.183  1.00  0.00    -0.114 I  
HETATM   20  C   UNL     1      -8.144  10.230  67.890  1.00  0.00    -0.102 A  
BRANCH  15  21
HETATM   21  C   UNL     1     -10.526  11.615  65.164  1.00  0.00    -0.279 C  
HETATM   22  O   UNL     1     -11.356  10.839  64.682  1.00  0.00     0.260 OA 
HETATM   23  N   UNL     1     -10.243  12.829  64.503  1.00  0.00    -0.329 N  
HETATM   24  C   UNL     1      -9.028  13.623  64.656  1.00  0.00     2.992 C  
BRANCH  23  25
HETATM   25  C   UNL     1     -11.122  13.227  63.375  1.00  0.00     0.325 C  
BRANCH  25  26
HETATM   26  C   UNL     1     -12.591  13.531  63.739  1.00  0.00    -0.074 C  
HETATM   27  H   UNL     1     -13.907  13.077  65.180  1.00  0.00     0.000 HD 
HETATM   28  O   UNL     1     -13.003  12.890  64.956  1.00  0.00    -0.777 OA 
BRANCH  26  29
HETATM   29  C   UNL     1     -12.823  15.037  63.952  1.00  0.00     0.942 C  
HETATM   30  H   UNL     1     -12.441  16.702  62.973  1.00  0.00     0.000 HD 
HETATM   31  O   UNL     1     -12.298  15.772  62.842  1.00  0.00     1.819 OA 
ENDBRANCH  26  29
ENDBRANCH  25  26
ENDBRANCH  23  25
ENDBRANCH  15  21
BRANCH  20  32
HETATM   32  N   UNL     1      -6.988   9.414  68.062  1.00  0.00    -0.078 N  
HETATM   33  C   UNL     1      -7.055   8.146  68.626  1.00  0.00    -0.072 C  
HETATM   34  H   UNL     1      -6.082   9.772  67.761  1.00  0.00     0.000 HD 
HETATM   35  H   UNL     1      -5.028   7.729  65.428  1.00  0.00     0.000 HD 
HETATM   36  H   UNL     1      -6.685   4.483  69.757  1.00  0.00     0.000 HD 
HETATM   37  C   UNL     1      -5.728   7.383  68.561  1.00  0.00    -0.023 C  
HETATM   38  O   UNL     1      -8.085   7.644  69.073  1.00  0.00    -0.122 OA 
HETATM   39  O   UNL     1      -6.681   5.216  69.151  1.00  0.00    -0.049 OA 
HETATM   40  O   UNL     1      -5.196   8.031  66.313  1.00  0.00    -0.024 OA 
HETATM   41  C   UNL     1      -5.456   6.897  67.140  1.00  0.00    -0.017 C  
HETATM   42  C   UNL     1      -5.735   6.208  69.533  1.00  0.00    -0.017 C  
ENDBRANCH  20  32
ENDBRANCH   4  12
TORSDOF 9
ENDMDL
MODEL      172
REMARK 921   NORMALIZED FREE ENERGY PREDICTED BY IDOCK:   15.37 KCAL/MOL
REMARK 922        TOTAL FREE ENERGY PREDICTED BY IDOCK:   22.16 KCAL/MOL
REMARK 923 INTER-LIGAND FREE ENERGY PREDICTED BY IDOCK:    7.11 KCAL/MOL
REMARK 924 INTRA-LIGAND FREE ENERGY PREDICTED BY IDOCK:   15.05 KCAL/MOL
REMARK 927      BINDING AFFINITY PREDICTED BY RF-SCORE:    0.00 PKD
ROOT
HETATM    1  C   UNL     1     -11.718  15.627  68.846  1.00  0.00    -0.384 C  
HETATM    2  N   UNL     1     -11.180  14.339  68.410  1.00  0.00    -0.257 N  
HETATM    3  O   UNL     1     -12.180  13.327  70.235  1.00  0.00    -0.340 OA 
HETATM    4  C   UNL     1     -11.453  13.233  69.252  1.00  0.00    -0.288 C  
ENDROOT
BRANCH   2   5
HETATM    5  C   UNL     1     -10.663  14.292  67.029  1.00  0.00    -0.290 C  
BRANCH   5   6
HETATM    6  C   UNL     1      -9.642  15.339  66.582  1.00  0.00    -0.257 C  
HETATM    7  H   UNL     1      -9.127  16.241  64.901  1.00  0.00     0.000 HD 
HETATM    8  O   UNL     1      -9.761  15.591  65.179  1.00  0.00    -0.267 OA 
BRANCH   6   9
HETATM    9  C   UNL     1      -9.929  16.643  67.362  1.00  0.00    -0.265 C  
HETATM   10  H   UNL     1      -9.469  18.579  67.274  1.00  0.00     0.000 HD 
HETATM   11  O   UNL     1      -9.292  17.778  66.795  1.00  0.00    -0.264 OA 
ENDBRANCH   6   9
ENDBRANCH   5   6
ENDBRANCH   2   5
BRANCH   4  12
HETATM   12  C   UNL     1     -10.889  11.872  68.961  1.00  0.00    -0.235 A  
HETATM   13  C   UNL     1     -10.854  10.926  69.991  1.00  0.00    -0.072 A  
HETATM   14  C   UNL     1     -10.314  11.506  67.702  1.00  0.00    -0.186 A  
HETATM   15  C   UNL     1      -9.954  10.151  67.418  1.00  0.00    -0.238 A  
HETATM   16  I   UNL     1      -9.959  13.071  66.254  1.00  0.00    -0.263 I  
HETATM   17  I   UNL     1     -10.787  11.612  72.038  1.00  0.00    11.905 I  
HETATM   18  C   UNL     1     -10.318   9.182  68.384  1.00  0.00    -0.206 A  
HETATM   19  I   UNL     1     -10.834   7.192  67.724  1.00  0.00    -0.072 I  
HETATM   20  C   UNL     1     -10.669   9.561  69.709  1.00  0.00    -0.239 A  
BRANCH  15  21
HETATM   21  C   UNL     1      -9.319   9.788  66.083  1.00  0.00    -0.191 C  
HETATM   22  O   UNL     1     -10.005   9.923  65.066  1.00  0.00    -0.316 OA 
HETATM   23  N   UNL     1      -7.968   9.399  65.964  1.00  0.00    -0.109 N  
HETATM   24  C   UNL     1      -7.164   8.771  67.007  1.00  0.00    -0.079 C  
BRANCH  23  25
HETATM   25  C   UNL     1      -7.364   9.390  64.608  1.00  0.00    -0.104 C  
BRANCH  25  26
HETATM   26  C   UNL     1      -7.808   8.237  63.681  1.00  0.00    -0.152 C  
HETATM   27  H   UNL     1      -9.414   7.703  62.610  1.00  0.00     0.000 HD 
HETATM   28  O   UNL     1      -9.141   8.412  63.181  1.00  0.00     0.454 OA 
BRANCH  26  29
HETATM   29  C   UNL     1      -6.900   8.125  62.444  1.00  0.00    -0.087 C  
HETATM   30  H   UNL     1      -5.332   9.071  61.721  1.00  0.00     0.000 HD 
HETATM   31  O   UNL     1      -5.892   9.140  62.485  1.00  0.00    -0.090 OA 
ENDBRANCH  26  29
ENDBRANCH  25  26
ENDBRANCH  23  25
ENDBRANCH  15  21
BRANCH  20  32
HETATM   32  N   UNL     1     -10.944   8.626  70.749  1.00  0.00    -0.237 N  
HETATM   33  C   UNL     1     -10.201   7.464  70.916  1.00  0.00    -0.192 C  
HETATM   34  H   UNL     1     -11.712   8.816  71.393  1.00  0.00     0.000 HD 
HETATM   35  H   UNL     1     -10.361   9.071  74.367  1.00  0.00     0.000 HD 
HETATM   36  H   UNL     1      -8.288   4.329  72.077  1.00  0.00     0.000 HD 
HETATM   37  C   UNL     1     -10.559   6.693  72.191  1.00  0.00    -0.238 C  
HETATM   38  O   UNL     1      -9.294   7.112  70.164  1.00  0.00    -0.159 OA 
HETATM   39  O   UNL     1      -8.614   5.221  72.122  1.00  0.00    -0.124 OA 
HETATM   40  O   UNL     1     -10.709   8.630  73.600  1.00  0.00     1.450 OA 
HETATM   41  C   UNL     1     -10.001   7.403  73.422  1.00  0.00    -0.314 C  
HETATM   42  C   UNL     1     -10.036   5.262  72.118  1.00  0.00    -0.190 C  
ENDBRANCH  20  32
ENDBRANCH   4  12
TORSDOF 9
ENDMDL
MODEL      173
REMARK 921   NORMALIZED FREE ENERGY PREDICTED BY IDOCK:   16.04 KCAL/MOL
REMARK 922        TOTAL FREE ENERGY PREDICTED BY IDOCK:   23.19 KCAL/MOL
REMARK 923 INTER-LIGAND FREE ENERGY PREDICTED BY IDOCK:    6.21 KCAL/MOL
REMARK 924 INTRA-LIGAND FREE ENERGY PREDICTED BY IDOCK:   16.98 KCAL/MOL
REMARK 927      BINDING AFFINITY PREDICTED BY RF-SCORE:    0.00 PKD
ROOT
HETATM    1  C   UNL     1      -8.793  11.379  65.053  1.00  0.00     0.155 C  
HETATM    2  N   UNL     1      -9.481  11.564  66.330  1.00  0.00    -0.206 N  
HETATM    3  O   UNL     1      -8.929   9.395  66.917  1.00  0.00    -0.129 OA 
HETATM    4  C   UNL     1      -9.520  10.435  67.185  1.00  0.00    -0.159 C  
ENDROOT
BRANCH   2   5
HETATM    5  C   UNL     1      -9.806  12.957  66.691  1.00  0.00    -0.250 C  
BRANCH   5   6
HETATM    6  C   UNL     1      -8.861  13.726  67.614  1.00  0.00    -0.189 C  
HETATM    7  H   UNL     1      -6.931  14.141  67.700  1.00  0.00     0.000 HD 
HETATM    8  O   UNL     1      -7.518  13.662  67.126  1.00  0.00    -0.094 OA 
BRANCH   6   9
HETATM    9  C   UNL     1      -9.326  15.201  67.644  1.00  0.00    -0.189 C  
HETATM   10  H   UNL     1     -10.846  16.311  66.991  1.00  0.00     0.000 HD 
HETATM   11  O   UNL     1     -10.561  15.405  66.972  1.00  0.00    -0.296 OA 
ENDBRANCH   6   9
ENDBRANCH   5   6
ENDBRANCH   2   5
BRANCH   4  12
HETATM   12  C   UNL     1     -10.265  10.468  68.488  1.00  0.00    -0.190 A  
HETATM   13  C   UNL     1     -10.208  11.630  69.264  1.00  0.00     0.129 A  
HETATM   14  C   UNL     1     -10.977   9.345  69.022  1.00  0.00    -0.067 A  
HETATM   15  C   UNL     1     -11.814   9.480  70.174  1.00  0.00    -0.036 A  
HETATM   16  I   UNL     1     -10.711   7.426  68.064  1.00  0.00    -0.008 I  
HETATM   17  I   UNL     1      -8.502  12.939  69.063  1.00  0.00     0.983 I  
HETATM   18  C   UNL     1     -12.007  10.791  70.669  1.00  0.00    -0.367 A  
HETATM   19  I   UNL     1     -13.900  11.297  71.576  1.00  0.00     1.891 I  
HETATM   20  C   UNL     1     -11.138  11.854  70.296  1.00  0.00     0.688 A  
BRANCH  15  21
HETATM   21  C   UNL     1     -12.541   8.268  70.741  1.00  0.00     0.194 C  
HETATM   22  O   UNL     1     -12.707   7.298  69.996  1.00  0.00     0.512 OA 
HETATM   23  N   UNL     1     -12.938   8.183  72.092  1.00  0.00    -0.293 N  
HETATM   24  C   UNL     1     -13.236   9.312  72.968  1.00  0.00     0.456 C  
BRANCH  23  25
HETATM   25  C   UNL     1     -13.331   6.853  72.619  1.00  0.00     0.880 C  
BRANCH  25  26
HETATM   26  C   UNL     1     -12.197   5.812  72.736  1.00  0.00     0.178 C  
HETATM   27  H   UNL     1     -11.216   4.519  71.562  1.00  0.00     0.000 HD 
HETATM   28  O   UNL     1     -11.915   5.159  71.490  1.00  0.00     0.957 OA 
BRANCH  26  29
HETATM   29  C   UNL     1     -10.876   6.462  73.184  1.00  0.00    -0.254 C  
HETATM   30  H   UNL     1      -8.979   5.943  73.280  1.00  0.00     0.000 HD 
HETATM   31  O   UNL     1      -9.795   5.542  73.003  1.00  0.00    -0.160 OA 
ENDBRANCH  26  29
ENDBRANCH  25  26
ENDBRANCH  23  25
ENDBRANCH  15  21
BRANCH  20  32
HETATM   32  N   UNL     1     -11.221  13.168  70.841  1.00  0.00     0.858 N  
HETATM   33  C   UNL     1     -11.643  14.256  70.088  1.00  0.00    -0.246 C  
HETATM   34  H   UNL     1     -10.961  13.314  71.817  1.00  0.00     0.000 HD 
HETATM   35  H   UNL     1     -13.658  14.412  73.317  1.00  0.00     0.000 HD 
HETATM   36  H   UNL     1     -13.068  17.522  68.626  1.00  0.00     0.000 HD 
HETATM   37  C   UNL     1     -11.816  15.535  70.915  1.00  0.00    -0.413 C  
HETATM   38  O   UNL     1     -11.923  14.201  68.892  1.00  0.00    -0.333 OA 
HETATM   39  O   UNL     1     -13.035  16.759  69.192  1.00  0.00     1.977 OA 
HETATM   40  O   UNL     1     -12.874  14.463  72.783  1.00  0.00    -0.410 OA 
HETATM   41  C   UNL     1     -13.075  15.453  71.774  1.00  0.00    -0.445 C  
HETATM   42  C   UNL     1     -11.869  16.759  70.007  1.00  0.00     1.081 C  
ENDBRANCH  20  32
ENDBRANCH   4  12
TORSDOF 9
ENDMDL
MODEL      174
REMARK 921   NORMALIZED FREE ENERGY PREDICTED BY IDOCK:   16.24 KCAL/MOL
REMARK 922        TOTAL FREE ENERGY PREDICTED BY IDOCK:   23.48 KCAL/MOL
REMARK 923 INTER-LIGAND FREE ENERGY PREDICTED BY IDOCK:    9.92 KCAL/MOL
REMARK 924 INTRA-LIGAND FREE ENERGY PREDICTED BY IDOCK:   13.56 KCAL/MOL
REMARK 927      BINDING AFFINITY PREDICTED BY RF-SCORE:    0.00 PKD
ROOT
HETATM    1  C   UNL     1     -12.272  17.923  69.364  1.00  0.00     6.622 C  
HETATM    2  N   UNL     1     -11.844  16.566  69.029  1.00  0.00     0.041 N  
HETATM    3  O   UNL     1     -12.024  15.980  71.260  1.00  0.00    -0.415 OA 
HETATM    4  C   UNL     1     -11.708  15.670  70.117  1.00  0.00    -0.360 C  
ENDROOT
BRANCH   2   5
HETATM    5  C   UNL     1     -11.872  16.218  67.595  1.00  0.00     0.549 C  
BRANCH   5   6
HETATM    6  C   UNL     1     -11.428  17.260  66.568  1.00  0.00     1.265 C  
HETATM    7  H   UNL     1     -10.711  19.102  66.584  1.00  0.00     0.000 HD 
HETATM    8  O   UNL     1     -10.987  18.454  67.221  1.00  0.00    -0.337 OA 
BRANCH   6   9
HETATM    9  C   UNL     1     -10.256  16.657  65.759  1.00  0.00    -0.307 C  
HETATM   10  H   UNL     1      -9.971  15.425  64.220  1.00  0.00     0.000 HD 
HETATM   11  O   UNL     1     -10.690  15.795  64.717  1.00  0.00    -0.500 OA 
ENDBRANCH   6   9
ENDBRANCH   5   6
ENDBRANCH   2   5
BRANCH   4  12
HETATM   12  C   UNL     1     -11.197  14.272  69.918  1.00  0.00    -0.194 A  
HETATM   13  C   UNL     1     -11.855  13.219  70.563  1.00  0.00    -0.134 A  
HETATM   14  C   UNL     1     -10.023  13.958  69.159  1.00  0.00     0.128 A  
HETATM   15  C   UNL     1      -9.681  12.603  68.852  1.00  0.00     0.183 A  
HETATM   16  I   UNL     1      -8.754  15.590  68.530  1.00  0.00    -0.226 I  
HETATM   17  I   UNL     1     -12.950  13.627  72.379  1.00  0.00    -0.185 I  
HETATM   18  C   UNL     1     -10.623  11.612  69.216  1.00  0.00    -0.044 A  
HETATM   19  I   UNL     1     -10.816   9.851  67.981  1.00  0.00    -0.120 I  
HETATM   20  C   UNL     1     -11.655  11.887  70.156  1.00  0.00    -0.167 A  
BRANCH  15  21
HETATM   21  C   UNL     1      -8.415  12.290  68.068  1.00  0.00    -0.171 C  
HETATM   22  O   UNL     1      -8.543  11.863  66.917  1.00  0.00    -0.176 OA 
HETATM   23  N   UNL     1      -7.123  12.556  68.570  1.00  0.00    -0.101 N  
HETATM   24  C   UNL     1      -6.750  12.622  69.979  1.00  0.00     0.366 C  
BRANCH  23  25
HETATM   25  C   UNL     1      -5.987  12.528  67.615  1.00  0.00    -0.136 C  
BRANCH  25  26
HETATM   26  C   UNL     1      -5.223  13.858  67.437  1.00  0.00     0.361 C  
HETATM   27  H   UNL     1      -4.913  15.234  66.015  1.00  0.00     0.000 HD 
HETATM   28  O   UNL     1      -5.383  14.416  66.125  1.00  0.00     3.648 OA 
BRANCH  26  29
HETATM   29  C   UNL     1      -5.718  14.932  68.420  1.00  0.00    -0.108 C  
HETATM   30  H   UNL     1      -7.388  15.926  68.741  1.00  0.00     0.000 HD 
HETATM   31  O   UNL     1      -7.082  15.262  68.134  1.00  0.00    -0.105 OA 
ENDBRANCH  26  29
ENDBRANCH  25  26
ENDBRANCH  23  25
ENDBRANCH  15  21
BRANCH  20  32
HETATM   32  N   UNL     1     -12.567  10.903  70.636  1.00  0.00    -0.345 N  
HETATM   33  C   UNL     1     -12.403   9.550  70.371  1.00  0.00     0.116 C  
HETATM   34  H   UNL     1     -13.367  11.203  71.194  1.00  0.00     0.000 HD 
HETATM   35  H   UNL     1     -13.012   9.782  74.124  1.00  0.00     0.000 HD 
HETATM   36  H   UNL     1     -12.262   5.702  70.275  1.00  0.00     0.000 HD 
HETATM   37  C   UNL     1     -13.399   8.660  71.122  1.00  0.00    -0.059 C  
HETATM   38  O   UNL     1     -11.508   9.089  69.664  1.00  0.00     0.024 OA 
HETATM   39  O   UNL     1     -12.227   6.569  70.665  1.00  0.00    -0.331 OA 
HETATM   40  O   UNL     1     -13.243   9.841  73.204  1.00  0.00     0.451 OA 
HETATM   41  C   UNL     1     -13.028   8.566  72.599  1.00  0.00    -0.161 C  
HETATM   42  C   UNL     1     -13.454   7.269  70.497  1.00  0.00     0.853 C  
ENDBRANCH  20  32
ENDBRANCH   4  12
TORSDOF 9
ENDMDL
MODEL      175
REMARK 921   NORMALIZED FREE ENERGY PREDICTED BY IDOCK:   16.34 KCAL/MOL
REMARK 922        TOTAL FREE ENERGY PREDICTED BY IDOCK:   23.63 KCAL/MOL
REMARK 923 INTER-LIGAND FREE ENERGY PREDICTED BY IDOCK:   14.18 KCAL/MOL
REMARK 924 INTRA-LIGAND FREE ENERGY PREDICTED BY IDOCK:    9.45 KCAL/MOL
REMARK 927      BINDING AFFINITY PREDICTED BY RF-SCORE:    0.00 PKD
ROOT
HETATM    1  C   UNL     1      -7.824  14.361  72.606  1.00  0.00     6.761 C  
HETATM    2  N   UNL     1      -7.694  14.687  71.187  1.00  0.00     2.121 N  
HETATM    3  O   UNL     1      -9.998  14.833  71.030  1.00  0.00     0.973 OA 
HETATM    4  C   UNL     1      -8.906  14.857  70.474  1.00  0.00     1.556 C  
ENDROOT
BRANCH   2   5
HETATM    5  C   UNL     1      -6.342  15.064  70.734  1.00  0.00     0.144 C  
BRANCH   5   6
HETATM    6  C   UNL     1      -5.378  13.969  70.276  1.00  0.00    -0.106 C  
HETATM    7  H   UNL     1      -5.179  12.017  70.510  1.00  0.00     0.000 HD 
HETATM    8  O   UNL     1      -5.778  12.697  70.795  1.00  0.00    -0.180 OA 
BRANCH   6   9
HETATM    9  C   UNL     1      -5.412  13.926  68.730  1.00  0.00    -0.082 C  
HETATM   10  H   UNL     1      -6.166  12.794  67.276  1.00  0.00     0.000 HD 
HETATM   11  O   UNL     1      -6.145  12.820  68.225  1.00  0.00    -0.063 OA 
ENDBRANCH   6   9
ENDBRANCH   5   6
ENDBRANCH   2   5
BRANCH   4  12
HETATM   12  C   UNL     1      -8.912  15.112  68.994  1.00  0.00    -0.219 A  
HETATM   13  C   UNL     1      -9.242  14.059  68.133  1.00  0.00    -0.196 A  
HETATM   14  C   UNL     1      -8.527  16.358  68.403  1.00  0.00    -0.204 A  
HETATM   15  C   UNL     1      -8.719  16.607  67.008  1.00  0.00    -0.223 A  
HETATM   16  I   UNL     1      -7.599  17.840  69.674  1.00  0.00     1.393 I  
HETATM   17  I   UNL     1      -8.910  12.029  68.790  1.00  0.00     0.419 I  
HETATM   18  C   UNL     1      -9.426  15.621  66.279  1.00  0.00    -0.319 A  
HETATM   19  I   UNL     1     -10.672  16.237  64.627  1.00  0.00     1.216 I  
HETATM   20  C   UNL     1      -9.601  14.307  66.796  1.00  0.00    -0.280 A  
BRANCH  15  21
HETATM   21  C   UNL     1      -8.278  17.928  66.395  1.00  0.00    -0.255 C  
HETATM   22  O   UNL     1      -7.638  17.887  65.340  1.00  0.00    -0.377 OA 
HETATM   23  N   UNL     1      -8.651  19.179  66.932  1.00  0.00    -0.289 N  
HETATM   24  C   UNL     1      -8.987  19.443  68.327  1.00  0.00    -0.336 C  
BRANCH  23  25
HETATM   25  C   UNL     1      -8.455  20.384  66.089  1.00  0.00     0.028 C  
BRANCH  25  26
HETATM   26  C   UNL     1      -9.676  20.830  65.256  1.00  0.00     1.215 C  
HETATM   27  H   UNL     1     -10.189  21.034  63.330  1.00  0.00     0.000 HD 
HETATM   28  O   UNL     1      -9.437  20.760  63.843  1.00  0.00     2.953 OA 
BRANCH  26  29
HETATM   29  C   UNL     1     -10.901  19.938  65.525  1.00  0.00    -0.127 C  
HETATM   30  H   UNL     1     -11.681  18.994  67.067  1.00  0.00     0.000 HD 
HETATM   31  O   UNL     1     -10.925  19.545  66.901  1.00  0.00    -0.462 OA 
ENDBRANCH  26  29
ENDBRANCH  25  26
ENDBRANCH  23  25
ENDBRANCH  15  21
BRANCH  20  32
HETATM   32  N   UNL     1     -10.212  13.247  66.065  1.00  0.00    -0.286 N  
HETATM   33  C   UNL     1     -11.352  13.440  65.295  1.00  0.00    -0.296 C  
HETATM   34  H   UNL     1      -9.799  12.316  66.110  1.00  0.00     0.000 HD 
HETATM   35  H   UNL     1      -8.910  11.572  63.046  1.00  0.00     0.000 HD 
HETATM   36  H   UNL     1     -14.238  13.454  62.745  1.00  0.00     0.000 HD 
HETATM   37  C   UNL     1     -11.738  12.210  64.466  1.00  0.00    -0.410 C  
HETATM   38  O   UNL     1     -11.960  14.506  65.219  1.00  0.00    -0.368 OA 
HETATM   39  O   UNL     1     -13.340  13.385  63.048  1.00  0.00     0.861 OA 
HETATM   40  O   UNL     1      -9.501  11.678  63.782  1.00  0.00    -0.190 OA 
HETATM   41  C   UNL     1     -10.788  12.040  63.283  1.00  0.00    -0.334 C  
HETATM   42  C   UNL     1     -13.179  12.321  63.980  1.00  0.00     0.142 C  
ENDBRANCH  20  32
ENDBRANCH   4  12
TORSDOF 9
ENDMDL
MODEL      176
REMARK 921   NORMALIZED FREE ENERGY PREDICTED BY IDOCK:   17.91 KCAL/MOL
REMARK 922        TOTAL FREE ENERGY PREDICTED BY IDOCK:   26.03 KCAL/MOL
REMARK 923 INTER-LIGAND FREE ENERGY PREDICTED BY IDOCK:   26.50 KCAL/MOL
REMARK 924 INTRA-LIGAND FREE ENERGY PREDICTED BY IDOCK:   -0.47 KCAL/MOL
REMARK 927      BINDING AFFINITY PREDICTED BY RF-SCORE:    0.00 PKD
ROOT
HETATM    1  C   UNL     1     -10.751  17.169  72.735  1.00  0.00     3.790 C  
HETATM    2  N   UNL     1     -10.648  15.942  71.947  1.00  0.00     1.030 N  
HETATM    3  O   UNL     1      -9.961  17.193  70.126  1.00  0.00     0.555 OA 
HETATM    4  C   UNL     1     -10.276  16.103  70.590  1.00  0.00     0.747 C  
ENDROOT
BRANCH   2   5
HETATM    5  C   UNL     1     -10.674  14.681  72.713  1.00  0.00     2.680 C  
BRANCH   5   6
HETATM    6  C   UNL     1     -11.989  13.911  72.833  1.00  0.00     1.045 C  
HETATM    7  H   UNL     1     -13.922  14.311  72.738  1.00  0.00     0.000 HD 
HETATM    8  O   UNL     1     -13.105  14.790  72.663  1.00  0.00    -0.374 OA 
BRANCH   6   9
HETATM    9  C   UNL     1     -12.010  12.835  71.722  1.00  0.00     1.431 C  
HETATM   10  H   UNL     1     -12.188  10.859  71.548  1.00  0.00     0.000 HD 
HETATM   11  O   UNL     1     -12.175  11.519  72.231  1.00  0.00     0.889 OA 
ENDBRANCH   6   9
ENDBRANCH   5   6
ENDBRANCH   2   5
BRANCH   4  12
HETATM   12  C   UNL     1     -10.215  14.931  69.652  1.00  0.00    -0.112 A  
HETATM   13  C   UNL     1     -11.269  14.736  68.753  1.00  0.00    -0.270 A  
HETATM   14  C   UNL     1      -9.169  13.954  69.674  1.00  0.00     1.159 A  
HETATM   15  C   UNL     1      -9.062  12.962  68.649  1.00  0.00     0.044 A  
HETATM   16  I   UNL     1      -7.779  13.990  71.328  1.00  0.00     6.705 I  
HETATM   17  I   UNL     1     -13.223  15.510  69.250  1.00  0.00     3.215 I  
HETATM   18  C   UNL     1      -9.952  13.081  67.555  1.00  0.00    -0.212 A  
HETATM   19  I   UNL     1      -9.290  12.454  65.597  1.00  0.00     0.382 I  
HETATM   20  C   UNL     1     -11.119  13.890  67.640  1.00  0.00    -0.277 A  
BRANCH  15  21
HETATM   21  C   UNL     1      -7.958  11.916  68.705  1.00  0.00    -0.101 C  
HETATM   22  O   UNL     1      -6.872  12.200  68.193  1.00  0.00    -0.065 OA 
HETATM   23  N   UNL     1      -8.104  10.692  69.392  1.00  0.00    -0.131 N  
HETATM   24  C   UNL     1      -9.363  10.002  69.652  1.00  0.00    -0.220 C  
BRANCH  23  25
HETATM   25  C   UNL     1      -6.880   9.899  69.667  1.00  0.00    -0.076 C  
BRANCH  25  26
HETATM   26  C   UNL     1      -6.502   8.850  68.599  1.00  0.00    -0.054 C  
HETATM   27  H   UNL     1      -4.966   8.429  67.383  1.00  0.00     0.000 HD 
HETATM   28  O   UNL     1      -5.199   9.074  68.040  1.00  0.00    -0.034 OA 
BRANCH  26  29
HETATM   29  C   UNL     1      -6.474   7.428  69.185  1.00  0.00    -0.040 C  
HETATM   30  H   UNL     1      -5.113   6.186  69.880  1.00  0.00     0.000 HD 
HETATM   31  O   UNL     1      -5.130   7.065  69.518  1.00  0.00    -0.014 OA 
ENDBRANCH  26  29
ENDBRANCH  25  26
ENDBRANCH  23  25
ENDBRANCH  15  21
BRANCH  20  32
HETATM   32  N   UNL     1     -12.102  13.966  66.611  1.00  0.00    -0.444 N  
HETATM   33  C   UNL     1     -11.969  14.818  65.522  1.00  0.00    -0.189 C  
HETATM   34  H   UNL     1     -12.931  13.376  66.677  1.00  0.00     0.000 HD 
HETATM   35  H   UNL     1     -12.861  11.419  64.050  1.00  0.00     0.000 HD 
HETATM   36  H   UNL     1     -11.967  16.673  62.147  1.00  0.00     0.000 HD 
HETATM   37  C   UNL     1     -13.054  14.616  64.459  1.00  0.00     0.782 C  
HETATM   38  O   UNL     1     -11.040  15.611  65.376  1.00  0.00    -0.325 OA 
HETATM   39  O   UNL     1     -11.930  15.926  62.734  1.00  0.00     2.589 OA 
HETATM   40  O   UNL     1     -13.017  12.218  64.540  1.00  0.00    -0.738 OA 
HETATM   41  C   UNL     1     -12.804  13.332  63.672  1.00  0.00     0.306 C  
HETATM   42  C   UNL     1     -13.113  15.814  63.517  1.00  0.00     2.830 C  
ENDBRANCH  20  32
ENDBRANCH   4  12
TORSDOF 9
ENDMDL
MODEL      177
REMARK 921   NORMALIZED FREE ENERGY PREDICTED BY IDOCK:   18.32 KCAL/MOL
REMARK 922        TOTAL FREE ENERGY PREDICTED BY IDOCK:   26.66 KCAL/MOL
REMARK 923 INTER-LIGAND FREE ENERGY PREDICTED BY IDOCK:   18.07 KCAL/MOL
REMARK 924 INTRA-LIGAND FREE ENERGY PREDICTED BY IDOCK:    8.58 KCAL/MOL
REMARK 927      BINDING AFFINITY PREDICTED BY RF-SCORE:    0.00 PKD
ROOT
HETATM    1  C   UNL     1      -6.731   8.488  63.358  1.00  0.00    -0.089 C  
HETATM    2  N   UNL     1      -7.401   9.052  64.529  1.00  0.00    -0.097 N  
HETATM    3  O   UNL     1      -5.819  10.740  64.594  1.00  0.00    -0.078 OA 
HETATM    4  C   UNL     1      -6.792  10.195  65.104  1.00  0.00    -0.134 C  
ENDROOT
BRANCH   2   5
HETATM    5  C   UNL     1      -8.757   8.540  64.804  1.00  0.00    -0.019 C  
BRANCH   5   6
HETATM    6  C   UNL     1      -9.947   9.494  64.698  1.00  0.00     0.565 C  
HETATM    7  H   UNL     1     -11.265  10.314  65.921  1.00  0.00     0.000 HD 
HETATM    8  O   UNL     1     -10.526   9.722  65.986  1.00  0.00    -0.157 OA 
BRANCH   6   9
HETATM    9  C   UNL     1      -9.429  10.834  64.126  1.00  0.00    -0.268 C  
HETATM   10  H   UNL     1      -8.742  11.568  62.406  1.00  0.00     0.000 HD 
HETATM   11  O   UNL     1      -9.060  10.745  62.757  1.00  0.00    -0.245 OA 
ENDBRANCH   6   9
ENDBRANCH   5   6
ENDBRANCH   2   5
BRANCH   4  12
HETATM   12  C   UNL     1      -7.332  10.820  66.358  1.00  0.00    -0.142 A  
HETATM   13  C   UNL     1      -7.861  12.113  66.287  1.00  0.00     0.482 A  
HETATM   14  C   UNL     1      -7.271  10.195  67.644  1.00  0.00    -0.088 A  
HETATM   15  C   UNL     1      -7.956  10.751  68.770  1.00  0.00    -0.136 A  
HETATM   16  I   UNL     1      -6.073   8.408  67.849  1.00  0.00    -0.049 I  
HETATM   17  I   UNL     1      -7.170  13.443  64.732  1.00  0.00    17.175 I  
HETATM   18  C   UNL     1      -8.797  11.861  68.518  1.00  0.00    -0.108 A  
HETATM   19  I   UNL     1     -10.583  12.111  69.704  1.00  0.00     1.175 I  
HETATM   20  C   UNL     1      -8.681  12.613  67.316  1.00  0.00    -0.198 A  
BRANCH  15  21
HETATM   21  C   UNL     1      -7.857  10.086  70.136  1.00  0.00    -0.123 C  
HETATM   22  O   UNL     1      -8.902   9.917  70.770  1.00  0.00    -0.053 OA 
HETATM   23  N   UNL     1      -6.643   9.580  70.649  1.00  0.00    -0.092 N  
HETATM   24  C   UNL     1      -5.306  10.049  70.301  1.00  0.00    -0.044 C  
BRANCH  23  25
HETATM   25  C   UNL     1      -6.710   8.667  71.818  1.00  0.00    -0.082 C  
BRANCH  25  26
HETATM   26  C   UNL     1      -7.079   7.201  71.508  1.00  0.00    -0.069 C  
HETATM   27  H   UNL     1      -6.300   5.371  71.750  1.00  0.00     0.000 HD 
HETATM   28  O   UNL     1      -6.073   6.274  71.940  1.00  0.00    -0.039 OA 
BRANCH  26  29
HETATM   29  C   UNL     1      -8.377   6.781  72.218  1.00  0.00    -0.106 C  
HETATM   30  H   UNL     1      -9.607   7.561  73.545  1.00  0.00     0.000 HD 
HETATM   31  O   UNL     1      -8.805   7.820  73.105  1.00  0.00    -0.159 OA 
ENDBRANCH  26  29
ENDBRANCH  25  26
ENDBRANCH  23  25
ENDBRANCH  15  21
BRANCH  20  32
HETATM   32  N   UNL     1      -9.427  13.799  67.052  1.00  0.00    -0.246 N  
HETATM   33  C   UNL     1      -9.746  14.201  65.762  1.00  0.00    -0.217 C  
HETATM   34  H   UNL     1      -9.737  14.371  67.838  1.00  0.00     0.000 HD 
HETATM   35  H   UNL     1     -13.011  14.378  67.718  1.00  0.00     0.000 HD 
HETATM   36  H   UNL     1     -11.222  15.592  62.488  1.00  0.00     0.000 HD 
HETATM   37  C   UNL     1     -10.692  15.406  65.719  1.00  0.00    -0.360 C  
HETATM   38  O   UNL     1      -9.374  13.617  64.745  1.00  0.00     0.565 OA 
HETATM   39  O   UNL     1     -11.231  15.190  63.349  1.00  0.00     1.261 OA 
HETATM   40  O   UNL     1     -12.128  14.638  67.482  1.00  0.00    -0.340 OA 
HETATM   41  C   UNL     1     -12.111  14.989  66.098  1.00  0.00     0.155 C  
HETATM   42  C   UNL     1     -10.678  16.051  64.337  1.00  0.00     0.433 C  
ENDBRANCH  20  32
ENDBRANCH   4  12
TORSDOF 9
ENDMDL
MODEL      178
REMARK 921   NORMALIZED FREE ENERGY PREDICTED BY IDOCK:   19.62 KCAL/MOL
REMARK 922        TOTAL FREE ENERGY PREDICTED BY IDOCK:   28.64 KCAL/MOL
REMARK 923 INTER-LIGAND FREE ENERGY PREDICTED BY IDOCK:   20.81 KCAL/MOL
REMARK 924 INTRA-LIGAND FREE ENERGY PREDICTED BY IDOCK:    7.83 KCAL/MOL
REMARK 927      BINDING AFFINITY PREDICTED BY RF-SCORE:    0.00 PKD
ROOT
HETATM    1  C   UNL     1     -10.416  12.243  64.016  1.00  0.00    -0.399 C  
HETATM    2  N   UNL     1      -9.660  11.959  65.235  1.00  0.00    -0.188 N  
HETATM    3  O   UNL     1     -11.244  13.116  66.462  1.00  0.00    -0.295 OA 
HETATM    4  C   UNL     1     -10.175  12.517  66.431  1.00  0.00    -0.244 C  
ENDROOT
BRANCH   2   5
HETATM    5  C   UNL     1      -8.623  10.917  65.120  1.00  0.00    -0.078 C  
BRANCH   5   6
HETATM    6  C   UNL     1      -7.237  11.300  64.600  1.00  0.00     1.268 C  
HETATM    7  H   UNL     1      -5.481  11.785  65.365  1.00  0.00     0.000 HD 
HETATM    8  O   UNL     1      -6.342  11.547  65.688  1.00  0.00     0.262 OA 
BRANCH   6   9
HETATM    9  C   UNL     1      -6.705  10.118  63.757  1.00  0.00    -0.113 C  
HETATM   10  H   UNL     1      -6.409   9.650  61.844  1.00  0.00     0.000 HD 
HETATM   11  O   UNL     1      -6.736  10.376  62.361  1.00  0.00    -0.129 OA 
ENDBRANCH   6   9
ENDBRANCH   5   6
ENDBRANCH   2   5
BRANCH   4  12
HETATM   12  C   UNL     1      -9.449  12.369  67.737  1.00  0.00    -0.199 A  
HETATM   13  C   UNL     1      -9.096  11.085  68.167  1.00  0.00    -0.155 A  
HETATM   14  C   UNL     1      -9.159  13.467  68.610  1.00  0.00     0.012 A  
HETATM   15  C   UNL     1      -8.313  13.301  69.751  1.00  0.00     1.932 A  
HETATM   16  I   UNL     1     -10.075  15.376  68.180  1.00  0.00    -0.231 I  
HETATM   17  I   UNL     1     -10.254   9.398  67.478  1.00  0.00    -0.329 I  
HETATM   18  C   UNL     1      -7.677  12.044  69.893  1.00  0.00     1.528 A  
HETATM   19  I   UNL     1      -5.715  11.962  70.791  1.00  0.00     0.342 I  
HETATM   20  C   UNL     1      -8.134  10.903  69.177  1.00  0.00    -0.100 A  
BRANCH  15  21
HETATM   21  C   UNL     1      -8.038  14.474  70.681  1.00  0.00     2.083 C  
HETATM   22  O   UNL     1      -8.917  15.332  70.797  1.00  0.00     1.135 OA 
HETATM   23  N   UNL     1      -6.873  14.562  71.472  1.00  0.00     1.085 N  
HETATM   24  C   UNL     1      -5.586  13.943  71.170  1.00  0.00    -0.216 C  
BRANCH  23  25
HETATM   25  C   UNL     1      -6.853  15.556  72.574  1.00  0.00     4.249 C  
BRANCH  25  26
HETATM   26  C   UNL     1      -6.756  17.036  72.145  1.00  0.00     5.969 C  
HETATM   27  H   UNL     1      -6.488  18.831  72.992  1.00  0.00     0.000 HD 
HETATM   28  O   UNL     1      -6.548  17.921  73.255  1.00  0.00     4.401 OA 
BRANCH  26  29
HETATM   29  C   UNL     1      -5.576  17.271  71.187  1.00  0.00     0.297 C  
HETATM   30  H   UNL     1      -4.916  18.740  70.053  1.00  0.00     0.000 HD 
HETATM   31  O   UNL     1      -5.645  18.594  70.645  1.00  0.00    -0.232 OA 
ENDBRANCH  26  29
ENDBRANCH  25  26
ENDBRANCH  23  25
ENDBRANCH  15  21
BRANCH  20  32
HETATM   32  N   UNL     1      -7.601   9.594  69.357  1.00  0.00    -0.088 N  
HETATM   33  C   UNL     1      -7.466   9.015  70.612  1.00  0.00    -0.110 C  
HETATM   34  H   UNL     1      -7.309   9.064  68.535  1.00  0.00     0.000 HD 
HETATM   35  H   UNL     1      -9.197   6.388  68.463  1.00  0.00     0.000 HD 
HETATM   36  H   UNL     1      -7.208   6.791  73.745  1.00  0.00     0.000 HD 
HETATM   37  C   UNL     1      -7.031   7.547  70.559  1.00  0.00    -0.052 C  
HETATM   38  O   UNL     1      -7.734   9.587  71.667  1.00  0.00    -0.214 OA 
HETATM   39  O   UNL     1      -7.535   7.074  72.899  1.00  0.00    -0.080 OA 
HETATM   40  O   UNL     1      -8.476   6.941  68.741  1.00  0.00    -0.121 OA 
HETATM   41  C   UNL     1      -8.189   6.659  70.111  1.00  0.00    -0.133 C  
HETATM   42  C   UNL     1      -6.506   7.092  71.917  1.00  0.00    -0.044 C  
ENDBRANCH  20  32
ENDBRANCH   4  12
TORSDOF 9
ENDMDL
MODEL      179
REMARK 921   NORMALIZED FREE ENERGY PREDICTED BY IDOCK:   20.92 KCAL/MOL
REMARK 922        TOTAL FREE ENERGY PREDICTED BY IDOCK:   30.62 KCAL/MOL
REMARK 923 INTER-LIGAND FREE ENERGY PREDICTED BY IDOCK:   29.28 KCAL/MOL
REMARK 924 INTRA-LIGAND FREE ENERGY PREDICTED BY IDOCK:    1.34 KCAL/MOL
REMARK 927      BINDING AFFINITY PREDICTED BY RF-SCORE:    0.00 PKD
ROOT
HETATM    1  C   UNL     1      -7.638  18.131  69.334  1.00  0.00     0.206 C  
HETATM    2  N   UNL     1      -7.851  16.888  68.595  1.00  0.00    -0.233 N  
HETATM    3  O   UNL     1      -8.275  15.797  70.591  1.00  0.00     1.438 OA 
HETATM    4  C   UNL     1      -8.125  15.738  69.376  1.00  0.00    -0.209 C  
ENDROOT
BRANCH   2   5
HETATM    5  C   UNL     1      -8.027  17.028  67.137  1.00  0.00    -0.188 C  
BRANCH   5   6
HETATM    6  C   UNL     1      -9.415  17.346  66.582  1.00  0.00    -0.274 C  
HETATM    7  H   UNL     1     -10.941  18.507  67.061  1.00  0.00     0.000 HD 
HETATM    8  O   UNL     1     -10.078  18.309  67.406  1.00  0.00    -0.321 OA 
BRANCH   6   9
HETATM    9  C   UNL     1      -9.234  17.926  65.160  1.00  0.00     2.416 C  
HETATM   10  H   UNL     1      -8.197  19.359  64.242  1.00  0.00     0.000 HD 
HETATM   11  O   UNL     1      -8.308  19.002  65.115  1.00  0.00     0.608 OA 
ENDBRANCH   6   9
ENDBRANCH   5   6
ENDBRANCH   2   5
BRANCH   4  12
HETATM   12  C   UNL     1      -8.282  14.384  68.745  1.00  0.00    -0.126 A  
HETATM   13  C   UNL     1      -9.487  13.697  68.924  1.00  0.00     0.127 A  
HETATM   14  C   UNL     1      -7.237  13.720  68.026  1.00  0.00    -0.137 A  
HETATM   15  C   UNL     1      -7.490  12.517  67.295  1.00  0.00    -0.125 A  
HETATM   16  I   UNL     1      -5.248  14.563  68.116  1.00  0.00    -0.043 I  
HETATM   17  I   UNL     1     -10.685  14.124  70.669  1.00  0.00     2.144 I  
HETATM   18  C   UNL     1      -8.839  12.098  67.209  1.00  0.00    -0.186 A  
HETATM   19  I   UNL     1      -9.505  11.079  65.426  1.00  0.00    -0.279 I  
HETATM   20  C   UNL     1      -9.827  12.612  68.095  1.00  0.00    -0.226 A  
BRANCH  15  21
HETATM   21  C   UNL     1      -6.359  11.812  66.560  1.00  0.00     0.087 C  
HETATM   22  O   UNL     1      -5.476  11.280  67.240  1.00  0.00    -0.043 OA 
HETATM   23  N   UNL     1      -6.337  11.667  65.157  1.00  0.00     1.682 N  
HETATM   24  C   UNL     1      -6.988  12.552  64.196  1.00  0.00     8.792 C  
BRANCH  23  25
HETATM   25  C   UNL     1      -5.382  10.692  64.573  1.00  0.00    -0.123 C  
BRANCH  25  26
HETATM   26  C   UNL     1      -5.992   9.638  63.623  1.00  0.00    -0.103 C  
HETATM   27  H   UNL     1      -5.564   8.769  61.870  1.00  0.00     0.000 HD 
HETATM   28  O   UNL     1      -5.189   9.417  62.455  1.00  0.00    -0.082 OA 
BRANCH  26  29
HETATM   29  C   UNL     1      -6.129   8.269  64.310  1.00  0.00    -0.065 C  
HETATM   30  H   UNL     1      -6.927   6.520  63.882  1.00  0.00     0.000 HD 
HETATM   31  O   UNL     1      -6.842   7.366  63.458  1.00  0.00    -0.052 OA 
ENDBRANCH  26  29
ENDBRANCH  25  26
ENDBRANCH  23  25
ENDBRANCH  15  21
BRANCH  20  32
HETATM   32  N   UNL     1     -11.176  12.153  68.123  1.00  0.00    -0.246 N  
HETATM   33  C   UNL     1     -11.530  10.930  68.678  1.00  0.00    -0.311 C  
HETATM   34  H   UNL     1     -11.905  12.743  67.722  1.00  0.00     0.000 HD 
HETATM   35  H   UNL     1     -13.941  13.466  70.185  1.00  0.00     0.000 HD 
HETATM   36  H   UNL     1     -13.132   7.868  70.379  1.00  0.00     0.000 HD 
HETATM   37  C   UNL     1     -13.046  10.715  68.751  1.00  0.00     3.128 C  
HETATM   38  O   UNL     1     -10.725  10.120  69.134  1.00  0.00    -0.203 OA 
HETATM   39  O   UNL     1     -12.931   8.787  70.244  1.00  0.00     0.753 OA 
HETATM   40  O   UNL     1     -13.562  12.938  69.492  1.00  0.00     2.559 OA 
HETATM   41  C   UNL     1     -13.656  11.563  69.864  1.00  0.00     2.584 C  
HETATM   42  C   UNL     1     -13.369   9.240  68.968  1.00  0.00     6.329 C  
ENDBRANCH  20  32
ENDBRANCH   4  12
TORSDOF 9
ENDMDL
MODEL      180
REMARK 921   NORMALIZED FREE ENERGY PREDICTED BY IDOCK:   22.57 KCAL/MOL
REMARK 922        TOTAL FREE ENERGY PREDICTED BY IDOCK:   33.15 KCAL/MOL
REMARK 923 INTER-LIGAND FREE ENERGY PREDICTED BY IDOCK:   27.22 KCAL/MOL
REMARK 924 INTRA-LIGAND FREE ENERGY PREDICTED BY IDOCK:    5.93 KCAL/MOL
REMARK 927      BINDING AFFINITY PREDICTED BY RF-SCORE:    0.00 PKD
ROOT
HETATM    1  C   UNL     1      -7.621  18.142  69.376  1.00  0.00     0.206 C  
HETATM    2  N   UNL     1      -7.805  16.732  69.033  1.00  0.00    -0.231 N  
HETATM    3  O   UNL     1      -7.844  16.210  71.287  1.00  0.00     4.029 OA 
HETATM    4  C   UNL     1      -7.854  15.828  70.123  1.00  0.00     0.728 C  
ENDROOT
BRANCH   2   5
HETATM    5  C   UNL     1      -8.188  16.455  67.636  1.00  0.00    -0.153 C  
BRANCH   5   6
HETATM    6  C   UNL     1      -9.234  17.342  66.961  1.00  0.00    -0.246 C  
HETATM    7  H   UNL     1     -10.745  17.112  65.709  1.00  0.00     0.000 HD 
HETATM    8  O   UNL     1     -10.095  16.561  66.128  1.00  0.00    -0.312 OA 
BRANCH   6   9
HETATM    9  C   UNL     1     -10.070  18.017  68.073  1.00  0.00    -0.365 C  
HETATM   10  H   UNL     1     -11.189  17.497  69.636  1.00  0.00     0.000 HD 
HETATM   11  O   UNL     1     -10.675  17.082  68.953  1.00  0.00    -0.335 OA 
ENDBRANCH   6   9
ENDBRANCH   5   6
ENDBRANCH   2   5
BRANCH   4  12
HETATM   12  C   UNL     1      -7.956  14.346  69.903  1.00  0.00     0.571 A  
HETATM   13  C   UNL     1      -8.955  13.635  70.577  1.00  0.00     4.670 A  
HETATM   14  C   UNL     1      -7.039  13.600  69.094  1.00  0.00    -0.036 A  
HETATM   15  C   UNL     1      -7.282  12.227  68.774  1.00  0.00    -0.098 A  
HETATM   16  I   UNL     1      -5.248  14.596  68.408  1.00  0.00    -0.117 I  
HETATM   17  I   UNL     1      -9.719  14.419  72.439  1.00  0.00    10.697 I  
HETATM   18  C   UNL     1      -8.528  11.692  69.180  1.00  0.00     0.293 A  
HETATM   19  I   UNL     1      -9.461  10.177  67.958  1.00  0.00    -0.173 I  
HETATM   20  C   UNL     1      -9.323  12.342  70.164  1.00  0.00     4.014 A  
BRANCH  15  21
HETATM   21  C   UNL     1      -6.281  11.445  67.936  1.00  0.00    -0.051 C  
HETATM   22  O   UNL     1      -5.184  11.192  68.440  1.00  0.00    -0.040 OA 
HETATM   23  N   UNL     1      -6.596  10.928  66.661  1.00  0.00    -0.110 N  
HETATM   24  C   UNL     1      -7.599  11.463  65.746  1.00  0.00     0.373 C  
BRANCH  23  25
HETATM   25  C   UNL     1      -5.684   9.914  66.077  1.00  0.00    -0.059 C  
BRANCH  25  26
HETATM   26  C   UNL     1      -6.143   9.281  64.745  1.00  0.00    -0.067 C  
HETATM   27  H   UNL     1      -5.433   8.996  62.894  1.00  0.00     0.000 HD 
HETATM   28  O   UNL     1      -5.151   9.385  63.714  1.00  0.00    -0.058 OA 
BRANCH  26  29
HETATM   29  C   UNL     1      -6.437   7.780  64.903  1.00  0.00    -0.044 C  
HETATM   30  H   UNL     1      -7.880   6.669  65.654  1.00  0.00     0.000 HD 
HETATM   31  O   UNL     1      -7.698   7.597  65.557  1.00  0.00    -0.090 OA 
ENDBRANCH  26  29
ENDBRANCH  25  26
ENDBRANCH  23  25
ENDBRANCH  15  21
BRANCH  20  32
HETATM   32  N   UNL     1     -10.533  11.799  70.685  1.00  0.00     2.075 N  
HETATM   33  C   UNL     1     -11.624  12.596  71.007  1.00  0.00     1.274 C  
HETATM   34  H   UNL     1     -10.600  10.791  70.826  1.00  0.00     0.000 HD 
HETATM   35  H   UNL     1     -13.028   9.763  68.882  1.00  0.00     0.000 HD 
HETATM   36  H   UNL     1     -15.039  14.230  71.715  1.00  0.00     0.000 HD 
HETATM   37  C   UNL     1     -12.871  11.791  71.389  1.00  0.00    -0.440 C  
HETATM   38  O   UNL     1     -11.629  13.823  70.930  1.00  0.00    -0.066 OA 
HETATM   39  O   UNL     1     -14.411  13.679  71.261  1.00  0.00     0.278 OA 
HETATM   40  O   UNL     1     -12.632  10.152  69.653  1.00  0.00     0.114 OA 
HETATM   41  C   UNL     1     -13.507  11.164  70.151  1.00  0.00     1.161 C  
HETATM   42  C   UNL     1     -13.879  12.674  72.117  1.00  0.00    -0.172 C  
ENDBRANCH  20  32
ENDBRANCH   4  12
TORSDOF 9
ENDMDL
MODEL      181
REMARK 921   NORMALIZED FREE ENERGY PREDICTED BY IDOCK:   22.71 KCAL/MOL
REMARK 922        TOTAL FREE ENERGY PREDICTED BY IDOCK:   33.35 KCAL/MOL
REMARK 923 INTER-LIGAND FREE ENERGY PREDICTED BY IDOCK:   23.25 KCAL/MOL
REMARK 924 INTRA-LIGAND FREE ENERGY PREDICTED BY IDOCK:   10.10 KCAL/MOL
REMARK 927      BINDING AFFINITY PREDICTED BY RF-SCORE:    0.00 PKD
ROOT
HETATM    1  C   UNL     1      -8.328   9.327  64.910  1.00  0.00    -0.158 C  
HETATM    2  N   UNL     1      -8.693   9.923  66.194  1.00  0.00    -0.134 N  
HETATM    3  O   UNL     1      -6.992  11.471  65.936  1.00  0.00     0.217 OA 
HETATM    4  C   UNL     1      -7.883  10.999  66.634  1.00  0.00    -0.153 C  
ENDROOT
BRANCH   2   5
HETATM    5  C   UNL     1     -10.004   9.523  66.740  1.00  0.00    -0.233 C  
BRANCH   5   6
HETATM    6  C   UNL     1     -11.239  10.352  66.391  1.00  0.00     0.419 C  
HETATM    7  H   UNL     1     -12.380  11.703  67.274  1.00  0.00     0.000 HD 
HETATM    8  O   UNL     1     -11.612  11.187  67.491  1.00  0.00    -0.526 OA 
BRANCH   6   9
HETATM    9  C   UNL     1     -10.886  11.237  65.173  1.00  0.00    -0.200 C  
HETATM   10  H   UNL     1     -10.226  11.028  63.305  1.00  0.00     0.000 HD 
HETATM   11  O   UNL     1     -10.442  10.484  64.053  1.00  0.00    -0.226 OA 
ENDBRANCH   6   9
ENDBRANCH   5   6
ENDBRANCH   2   5
BRANCH   4  12
HETATM   12  C   UNL     1      -8.101  11.644  67.973  1.00  0.00    -0.139 A  
HETATM   13  C   UNL     1      -8.356  10.825  69.077  1.00  0.00    -0.136 A  
HETATM   14  C   UNL     1      -8.133  13.061  68.172  1.00  0.00    -0.155 A  
HETATM   15  C   UNL     1      -8.165  13.623  69.488  1.00  0.00     0.905 A  
HETATM   16  I   UNL     1      -8.182  14.333  66.425  1.00  0.00     1.711 I  
HETATM   17  I   UNL     1      -9.241   8.882  68.756  1.00  0.00    -0.143 I  
HETATM   18  C   UNL     1      -8.027  12.718  70.568  1.00  0.00     4.968 A  
HETATM   19  I   UNL     1      -7.023  13.379  72.361  1.00  0.00     8.145 I  
HETATM   20  C   UNL     1      -8.225  11.321  70.387  1.00  0.00     2.944 A  
BRANCH  15  21
HETATM   21  C   UNL     1      -8.227  15.131  69.678  1.00  0.00    -0.080 C  
HETATM   22  O   UNL     1      -7.601  15.617  70.625  1.00  0.00     0.975 OA 
HETATM   23  N   UNL     1      -8.887  15.987  68.770  1.00  0.00    -0.213 N  
HETATM   24  C   UNL     1     -10.001  15.617  67.903  1.00  0.00    -0.223 C  
BRANCH  23  25
HETATM   25  C   UNL     1      -8.612  17.442  68.860  1.00  0.00    -0.151 C  
BRANCH  25  26
HETATM   26  C   UNL     1      -7.594  17.999  67.842  1.00  0.00    -0.231 C  
HETATM   27  H   UNL     1      -7.541  19.328  66.343  1.00  0.00     0.000 HD 
HETATM   28  O   UNL     1      -8.167  18.985  66.970  1.00  0.00    -0.260 OA 
BRANCH  26  29
HETATM   29  C   UNL     1      -6.410  18.688  68.543  1.00  0.00    -0.217 C  
HETATM   30  H   UNL     1      -5.919  19.180  70.385  1.00  0.00     0.000 HD 
HETATM   31  O   UNL     1      -6.650  18.754  69.952  1.00  0.00    -0.143 OA 
ENDBRANCH  26  29
ENDBRANCH  25  26
ENDBRANCH  23  25
ENDBRANCH  15  21
BRANCH  20  32
HETATM   32  N   UNL     1      -8.200  10.377  71.455  1.00  0.00     2.519 N  
HETATM   33  C   UNL     1      -7.285   9.333  71.498  1.00  0.00     0.153 C  
HETATM   34  H   UNL     1      -8.877  10.471  72.212  1.00  0.00     0.000 HD 
HETATM   35  H   UNL     1      -7.127  10.967  74.936  1.00  0.00     0.000 HD 
HETATM   36  H   UNL     1      -4.794   6.517  72.334  1.00  0.00     0.000 HD 
HETATM   37  C   UNL     1      -7.327   8.544  72.811  1.00  0.00    -0.054 C  
HETATM   38  O   UNL     1      -6.466   9.096  70.612  1.00  0.00    -0.051 OA 
HETATM   39  O   UNL     1      -5.230   7.356  72.432  1.00  0.00    -0.036 OA 
HETATM   40  O   UNL     1      -7.525  10.468  74.233  1.00  0.00     3.504 OA 
HETATM   41  C   UNL     1      -6.689   9.347  73.942  1.00  0.00     0.707 C  
HETATM   42  C   UNL     1      -6.628   7.199  72.653  1.00  0.00    -0.056 C  
ENDBRANCH  20  32
ENDBRANCH   4  12
TORSDOF 9
ENDMDL
MODEL      182
REMARK 921   NORMALIZED FREE ENERGY PREDICTED BY IDOCK:   23.59 KCAL/MOL
REMARK 922        TOTAL FREE ENERGY PREDICTED BY IDOCK:   34.70 KCAL/MOL
REMARK 923 INTER-LIGAND FREE ENERGY PREDICTED BY IDOCK:   10.53 KCAL/MOL
REMARK 924 INTRA-LIGAND FREE ENERGY PREDICTED BY IDOCK:   24.17 KCAL/MOL
REMARK 927      BINDING AFFINITY PREDICTED BY RF-SCORE:    0.00 PKD
ROOT
HETATM    1  C   UNL     1      -7.701  21.122  68.706  1.00  0.00     1.807 C  
HETATM    2  N   UNL     1      -8.077  19.739  68.994  1.00  0.00    -0.194 N  
HETATM    3  O   UNL     1      -5.954  19.055  68.380  1.00  0.00    -0.210 OA 
HETATM    4  C   UNL     1      -7.090  18.757  68.732  1.00  0.00    -0.308 C  
ENDROOT
BRANCH   2   5
HETATM    5  C   UNL     1      -9.319  19.557  69.770  1.00  0.00     0.452 C  
BRANCH   5   6
HETATM    6  C   UNL     1     -10.666  19.750  69.073  1.00  0.00     0.565 C  
HETATM    7  H   UNL     1     -12.145  21.061  69.105  1.00  0.00     0.000 HD 
HETATM    8  O   UNL     1     -11.308  20.941  69.539  1.00  0.00     1.191 OA 
BRANCH   6   9
HETATM    9  C   UNL     1     -10.399  19.873  67.554  1.00  0.00    -0.417 C  
HETATM   10  H   UNL     1      -8.962  19.448  66.243  1.00  0.00     0.000 HD 
HETATM   11  O   UNL     1      -9.125  19.373  67.175  1.00  0.00    -0.290 OA 
ENDBRANCH   6   9
ENDBRANCH   5   6
ENDBRANCH   2   5
BRANCH   4  12
HETATM   12  C   UNL     1      -7.377  17.294  68.907  1.00  0.00    -0.243 A  
HETATM   13  C   UNL     1      -8.407  16.718  68.155  1.00  0.00    -0.201 A  
HETATM   14  C   UNL     1      -6.702  16.463  69.858  1.00  0.00     0.067 A  
HETATM   15  C   UNL     1      -6.886  15.044  69.863  1.00  0.00    -0.162 A  
HETATM   16  I   UNL     1      -5.433  17.419  71.322  1.00  0.00     0.960 I  
HETATM   17  I   UNL     1     -10.023  17.972  67.464  1.00  0.00    -0.393 I  
HETATM   18  C   UNL     1      -7.652  14.500  68.805  1.00  0.00    -0.131 A  
HETATM   19  I   UNL     1      -7.161  12.532  68.064  1.00  0.00    -0.157 I  
HETATM   20  C   UNL     1      -8.499  15.322  68.010  1.00  0.00    -0.147 A  
BRANCH  15  21
HETATM   21  C   UNL     1      -6.180  14.181  70.899  1.00  0.00    -0.071 C  
HETATM   22  O   UNL     1      -6.148  14.593  72.062  1.00  0.00     0.211 OA 
HETATM   23  N   UNL     1      -5.654  12.907  70.598  1.00  0.00    -0.171 N  
HETATM   24  C   UNL     1      -5.203  12.457  69.286  1.00  0.00    -0.068 C  
BRANCH  23  25
HETATM   25  C   UNL     1      -5.291  12.020  71.731  1.00  0.00     0.226 C  
BRANCH  25  26
HETATM   26  C   UNL     1      -5.721  10.543  71.596  1.00  0.00     0.274 C  
HETATM   27  H   UNL     1      -5.458   8.806  72.558  1.00  0.00     0.000 HD 
HETATM   28  O   UNL     1      -5.193   9.715  72.641  1.00  0.00    -0.106 OA 
BRANCH  26  29
HETATM   29  C   UNL     1      -7.250  10.390  71.664  1.00  0.00     2.692 C  
HETATM   30  H   UNL     1      -8.542   9.287  72.661  1.00  0.00     0.000 HD 
HETATM   31  O   UNL     1      -7.597   9.382  72.619  1.00  0.00     0.280 OA 
ENDBRANCH  26  29
ENDBRANCH  25  26
ENDBRANCH  23  25
ENDBRANCH  15  21
BRANCH  20  32
HETATM   32  N   UNL     1      -9.369  14.815  67.002  1.00  0.00    -0.223 N  
HETATM   33  C   UNL     1      -9.818  15.602  65.949  1.00  0.00    -0.350 C  
HETATM   34  H   UNL     1      -9.672  13.842  67.055  1.00  0.00     0.000 HD 
HETATM   35  H   UNL     1      -8.540  12.391  64.345  1.00  0.00     0.000 HD 
HETATM   36  H   UNL     1     -11.066  17.165  62.658  1.00  0.00     0.000 HD 
HETATM   37  C   UNL     1     -10.604  14.813  64.895  1.00  0.00    -0.431 C  
HETATM   38  O   UNL     1      -9.561  16.797  65.822  1.00  0.00    -0.506 OA 
HETATM   39  O   UNL     1     -10.564  16.578  63.211  1.00  0.00     3.257 OA 
HETATM   40  O   UNL     1      -9.127  12.922  64.872  1.00  0.00     0.727 OA 
HETATM   41  C   UNL     1      -9.661  13.959  64.050  1.00  0.00     2.382 C  
HETATM   42  C   UNL     1     -11.409  15.756  64.008  1.00  0.00     0.214 C  
ENDBRANCH  20  32
ENDBRANCH   4  12
TORSDOF 9
ENDMDL
MODEL      183
REMARK 921   NORMALIZED FREE ENERGY PREDICTED BY IDOCK:   26.72 KCAL/MOL
REMARK 922        TOTAL FREE ENERGY PREDICTED BY IDOCK:   39.48 KCAL/MOL
REMARK 923 INTER-LIGAND FREE ENERGY PREDICTED BY IDOCK:   26.65 KCAL/MOL
REMARK 924 INTRA-LIGAND FREE ENERGY PREDICTED BY IDOCK:   12.83 KCAL/MOL
REMARK 927      BINDING AFFINITY PREDICTED BY RF-SCORE:    0.00 PKD
ROOT
HETATM    1  C   UNL     1     -10.215  12.513  62.940  1.00  0.00     1.169 C  
HETATM    2  N   UNL     1      -9.579  12.617  64.253  1.00  0.00     0.133 N  
HETATM    3  O   UNL     1      -8.368  10.698  63.795  1.00  0.00    -0.136 OA 
HETATM    4  C   UNL     1      -8.677  11.578  64.591  1.00  0.00     0.499 C  
ENDROOT
BRANCH   2   5
HETATM    5  C   UNL     1      -9.737  13.910  64.945  1.00  0.00     0.220 C  
BRANCH   5   6
HETATM    6  C   UNL     1      -9.896  13.925  66.465  1.00  0.00    -0.290 C  
HETATM    7  H   UNL     1      -9.752  15.246  67.928  1.00  0.00     0.000 HD 
HETATM    8  O   UNL     1      -9.653  15.236  66.984  1.00  0.00    -0.216 OA 
BRANCH   6   9
HETATM    9  C   UNL     1     -11.348  13.506  66.793  1.00  0.00    -0.328 C  
HETATM   10  H   UNL     1     -13.204  14.169  66.505  1.00  0.00     0.000 HD 
HETATM   11  O   UNL     1     -12.313  14.427  66.304  1.00  0.00    -0.409 OA 
ENDBRANCH   6   9
ENDBRANCH   5   6
ENDBRANCH   2   5
BRANCH   4  12
HETATM   12  C   UNL     1      -8.020  11.522  65.941  1.00  0.00     0.267 A  
HETATM   13  C   UNL     1      -7.228  12.602  66.346  1.00  0.00     1.271 A  
HETATM   14  C   UNL     1      -8.100  10.390  66.813  1.00  0.00    -0.120 A  
HETATM   15  C   UNL     1      -7.610  10.454  68.156  1.00  0.00    -0.091 A  
HETATM   16  I   UNL     1      -8.941   8.560  66.029  1.00  0.00    -0.206 I  
HETATM   17  I   UNL     1      -6.299  13.840  64.841  1.00  0.00    21.054 I  
HETATM   18  C   UNL     1      -7.172  11.720  68.612  1.00  0.00    -0.112 A  
HETATM   19  I   UNL     1      -7.435  12.228  70.694  1.00  0.00     6.022 I  
HETATM   20  C   UNL     1      -6.879  12.770  67.698  1.00  0.00    -0.147 A  
BRANCH  15  21
HETATM   21  C   UNL     1      -7.679   9.230  69.058  1.00  0.00    -0.075 C  
HETATM   22  O   UNL     1      -6.782   9.081  69.892  1.00  0.00    -0.043 OA 
HETATM   23  N   UNL     1      -8.765   8.330  69.037  1.00  0.00    -0.142 N  
HETATM   24  C   UNL     1      -9.641   8.074  67.898  1.00  0.00    -0.155 C  
BRANCH  23  25
HETATM   25  C   UNL     1      -8.898   7.374  70.165  1.00  0.00    -0.147 C  
BRANCH  25  26
HETATM   26  C   UNL     1      -7.966   6.145  70.121  1.00  0.00    -0.107 C  
HETATM   27  H   UNL     1      -7.663   4.528  68.977  1.00  0.00     0.000 HD 
HETATM   28  O   UNL     1      -8.237   5.285  69.005  1.00  0.00    -0.085 OA 
BRANCH  26  29
HETATM   29  C   UNL     1      -6.489   6.558  69.990  1.00  0.00    -0.040 C  
HETATM   30  H   UNL     1      -5.092   6.480  68.605  1.00  0.00     0.000 HD 
HETATM   31  O   UNL     1      -6.004   6.225  68.685  1.00  0.00    -0.018 OA 
ENDBRANCH  26  29
ENDBRANCH  25  26
ENDBRANCH  23  25
ENDBRANCH  15  21
BRANCH  20  32
HETATM   32  N   UNL     1      -6.338  14.029  68.092  1.00  0.00    -0.113 N  
HETATM   33  C   UNL     1      -6.941  15.233  67.749  1.00  0.00    -0.165 C  
HETATM   34  H   UNL     1      -5.480  14.047  68.643  1.00  0.00     0.000 HD 
HETATM   35  H   UNL     1      -6.262  15.466  71.490  1.00  0.00     0.000 HD 
HETATM   36  H   UNL     1      -8.341  18.806  67.422  1.00  0.00     0.000 HD 
HETATM   37  C   UNL     1      -6.288  16.449  68.415  1.00  0.00    -0.127 C  
HETATM   38  O   UNL     1      -7.942  15.326  67.041  1.00  0.00    -0.204 OA 
HETATM   39  O   UNL     1      -8.085  18.004  67.865  1.00  0.00    -0.233 OA 
HETATM   40  O   UNL     1      -6.031  15.425  70.570  1.00  0.00    -0.118 OA 
HETATM   41  C   UNL     1      -6.658  16.515  69.894  1.00  0.00     0.024 C  
HETATM   42  C   UNL     1      -6.697  17.735  67.705  1.00  0.00    -0.183 C  
ENDBRANCH  20  32
ENDBRANCH   4  12
TORSDOF 9
ENDMDL
MODEL      184
REMARK 921   NORMALIZED FREE ENERGY PREDICTED BY IDOCK:   27.85 KCAL/MOL
REMARK 922        TOTAL FREE ENERGY PREDICTED BY IDOCK:   41.20 KCAL/MOL
REMARK 923 INTER-LIGAND FREE ENERGY PREDICTED BY IDOCK:   30.32 KCAL/MOL
REMARK 924 INTRA-LIGAND FREE ENERGY PREDICTED BY IDOCK:   10.88 KCAL/MOL
REMARK 927      BINDING AFFINITY PREDICTED BY RF-SCORE:    0.00 PKD
ROOT
HETATM    1  C   UNL     1     -13.253  12.072  65.983  1.00  0.00     4.407 C  
HETATM    2  N   UNL     1     -12.242  12.855  66.692  1.00  0.00    -0.270 N  
HETATM    3  O   UNL     1     -12.382  11.386  68.474  1.00  0.00    -0.504 OA 
HETATM    4  C   UNL     1     -11.919  12.417  68.000  1.00  0.00    -0.203 C  
ENDROOT
BRANCH   2   5
HETATM    5  C   UNL     1     -11.490  13.826  65.874  1.00  0.00    -0.322 C  
BRANCH   5   6
HETATM    6  C   UNL     1     -10.504  13.311  64.826  1.00  0.00    -0.384 C  
HETATM    7  H   UNL     1     -10.583  12.586  62.989  1.00  0.00     0.000 HD 
HETATM    8  O   UNL     1     -11.195  12.907  63.640  1.00  0.00    -0.430 OA 
BRANCH   6   9
HETATM    9  C   UNL     1      -9.532  14.464  64.484  1.00  0.00     2.050 C  
HETATM   10  H   UNL     1      -9.600  16.335  63.805  1.00  0.00     0.000 HD 
HETATM   11  O   UNL     1     -10.197  15.627  64.015  1.00  0.00     0.987 OA 
ENDBRANCH   6   9
ENDBRANCH   5   6
ENDBRANCH   2   5
BRANCH   4  12
HETATM   12  C   UNL     1     -10.957  13.181  68.864  1.00  0.00    -0.270 A  
HETATM   13  C   UNL     1     -10.254  12.491  69.857  1.00  0.00     1.725 A  
HETATM   14  C   UNL     1     -10.771  14.598  68.779  1.00  0.00    -0.249 A  
HETATM   15  C   UNL     1      -9.720  15.250  69.498  1.00  0.00    -0.224 A  
HETATM   16  I   UNL     1     -12.155  15.734  67.570  1.00  0.00     1.591 I  
HETATM   17  I   UNL     1     -11.105  10.683  70.676  1.00  0.00     0.673 I  
HETATM   18  C   UNL     1      -8.803  14.415  70.179  1.00  0.00     1.474 A  
HETATM   19  I   UNL     1      -6.745  15.046  70.352  1.00  0.00     0.544 I  
HETATM   20  C   UNL     1      -9.111  13.054  70.454  1.00  0.00     5.525 A  
BRANCH  15  21
HETATM   21  C   UNL     1      -9.556  16.761  69.415  1.00  0.00    -0.010 C  
HETATM   22  O   UNL     1      -9.354  17.375  70.467  1.00  0.00     2.579 OA 
HETATM   23  N   UNL     1      -9.533  17.459  68.189  1.00  0.00    -0.279 N  
HETATM   24  C   UNL     1     -10.169  17.027  66.949  1.00  0.00    -0.305 C  
BRANCH  23  25
HETATM   25  C   UNL     1      -9.042  18.859  68.194  1.00  0.00    -0.313 C  
BRANCH  25  26
HETATM   26  C   UNL     1      -7.608  19.073  67.661  1.00  0.00    -0.237 C  
HETATM   27  H   UNL     1      -5.799  19.564  68.368  1.00  0.00     0.000 HD 
HETATM   28  O   UNL     1      -6.682  19.433  68.696  1.00  0.00    -0.268 OA 
BRANCH  26  29
HETATM   29  C   UNL     1      -7.048  17.794  67.015  1.00  0.00    -0.181 C  
HETATM   30  H   UNL     1      -7.760  16.275  65.983  1.00  0.00     0.000 HD 
HETATM   31  O   UNL     1      -8.105  17.065  66.383  1.00  0.00    -0.250 OA 
ENDBRANCH  26  29
ENDBRANCH  25  26
ENDBRANCH  23  25
ENDBRANCH  15  21
BRANCH  20  32
HETATM   32  N   UNL     1      -8.274  12.195  71.224  1.00  0.00     9.349 N  
HETATM   33  C   UNL     1      -7.840  10.964  70.749  1.00  0.00     2.845 C  
HETATM   34  H   UNL     1      -7.982  12.496  72.154  1.00  0.00     0.000 HD 
HETATM   35  H   UNL     1      -4.715  12.706  72.058  1.00  0.00     0.000 HD 
HETATM   36  H   UNL     1      -6.054   7.678  69.833  1.00  0.00     0.000 HD 
HETATM   37  C   UNL     1      -6.817  10.287  71.668  1.00  0.00     1.506 C  
HETATM   38  O   UNL     1      -8.178  10.484  69.669  1.00  0.00    -0.128 OA 
HETATM   39  O   UNL     1      -6.131   8.602  70.041  1.00  0.00    -0.030 OA 
HETATM   40  O   UNL     1      -5.561  12.278  72.127  1.00  0.00    -0.148 OA 
HETATM   41  C   UNL     1      -5.459  10.973  71.558  1.00  0.00     0.153 C  
HETATM   42  C   UNL     1      -6.694   8.804  71.333  1.00  0.00    -0.081 C  
ENDBRANCH  20  32
ENDBRANCH   4  12
TORSDOF 9
ENDMDL
MODEL      185
REMARK 921   NORMALIZED FREE ENERGY PREDICTED BY IDOCK:   27.99 KCAL/MOL
REMARK 922        TOTAL FREE ENERGY PREDICTED BY IDOCK:   41.41 KCAL/MOL
REMARK 923 INTER-LIGAND FREE ENERGY PREDICTED BY IDOCK:    6.15 KCAL/MOL
REMARK 924 INTRA-LIGAND FREE ENERGY PREDICTED BY IDOCK:   35.27 KCAL/MOL
REMARK 927      BINDING AFFINITY PREDICTED BY RF-SCORE:    0.00 PKD
ROOT
HETATM    1  C   UNL     1     -13.406  14.023  64.794  1.00  0.00     0.863 C  
HETATM    2  N   UNL     1     -12.340  13.552  65.677  1.00  0.00    -0.455 N  
HETATM    3  O   UNL     1     -10.771  14.358  64.180  1.00  0.00     0.010 OA 
HETATM    4  C   UNL     1     -11.016  13.744  65.212  1.00  0.00    -0.322 C  
ENDROOT
BRANCH   2   5
HETATM    5  C   UNL     1     -12.752  13.188  67.046  1.00  0.00     0.854 C  
BRANCH   5   6
HETATM    6  C   UNL     1     -11.794  13.454  68.207  1.00  0.00    -0.358 C  
HETATM    7  H   UNL     1     -11.852  13.401  70.181  1.00  0.00     0.000 HD 
HETATM    8  O   UNL     1     -12.447  13.236  69.460  1.00  0.00    -0.138 OA 
BRANCH   6   9
HETATM    9  C   UNL     1     -10.604  12.475  68.072  1.00  0.00    -0.223 C  
HETATM   10  H   UNL     1      -8.646  12.530  67.709  1.00  0.00     0.000 HD 
HETATM   11  O   UNL     1      -9.377  13.132  67.792  1.00  0.00    -0.190 OA 
ENDBRANCH   6   9
ENDBRANCH   5   6
ENDBRANCH   2   5
BRANCH   4  12
HETATM   12  C   UNL     1      -9.835  13.231  65.985  1.00  0.00    -0.271 A  
HETATM   13  C   UNL     1      -8.829  14.132  66.348  1.00  0.00     0.064 A  
HETATM   14  C   UNL     1      -9.641  11.850  66.310  1.00  0.00    -0.229 A  
HETATM   15  C   UNL     1      -8.596  11.438  67.197  1.00  0.00    -0.151 A  
HETATM   16  I   UNL     1     -10.945  10.395  65.385  1.00  0.00     1.444 I  
HETATM   17  I   UNL     1      -8.541  15.913  65.161  1.00  0.00     5.668 I  
HETATM   18  C   UNL     1      -7.861  12.466  67.833  1.00  0.00    -0.145 A  
HETATM   19  I   UNL     1      -7.103  12.129  69.826  1.00  0.00     1.196 I  
HETATM   20  C   UNL     1      -7.893  13.803  67.346  1.00  0.00    -0.153 A  
BRANCH  15  21
HETATM   21  C   UNL     1      -8.391   9.962  67.509  1.00  0.00    -0.114 C  
HETATM   22  O   UNL     1      -9.392   9.244  67.573  1.00  0.00    -0.127 OA 
HETATM   23  N   UNL     1      -7.110   9.382  67.631  1.00  0.00    -0.081 N  
HETATM   24  C   UNL     1      -5.890  10.079  68.025  1.00  0.00    -0.038 C  
BRANCH  23  25
HETATM   25  C   UNL     1      -7.013   7.901  67.604  1.00  0.00    -0.074 C  
BRANCH  25  26
HETATM   26  C   UNL     1      -7.231   7.187  68.955  1.00  0.00    -0.086 C  
HETATM   27  H   UNL     1      -8.020   7.581  70.754  1.00  0.00     0.000 HD 
HETATM   28  O   UNL     1      -7.885   8.021  69.923  1.00  0.00    -0.097 OA 
BRANCH  26  29
HETATM   29  C   UNL     1      -8.119   5.940  68.800  1.00  0.00    -0.103 C  
HETATM   30  H   UNL     1      -8.043   4.046  69.335  1.00  0.00     0.000 HD 
HETATM   31  O   UNL     1      -7.495   4.816  69.431  1.00  0.00    -0.052 OA 
ENDBRANCH  26  29
ENDBRANCH  25  26
ENDBRANCH  23  25
ENDBRANCH  15  21
BRANCH  20  32
HETATM   32  N   UNL     1      -7.096  14.856  67.881  1.00  0.00    -0.137 N  
HETATM   33  C   UNL     1      -7.061  16.122  67.310  1.00  0.00    -0.196 C  
HETATM   34  H   UNL     1      -6.532  14.674  68.711  1.00  0.00     0.000 HD 
HETATM   35  H   UNL     1      -7.650  16.700  71.029  1.00  0.00     0.000 HD 
HETATM   36  H   UNL     1      -6.856  19.858  66.401  1.00  0.00     0.000 HD 
HETATM   37  C   UNL     1      -6.274  17.140  68.142  1.00  0.00    -0.136 C  
HETATM   38  O   UNL     1      -7.656  16.429  66.279  1.00  0.00    -0.234 OA 
HETATM   39  O   UNL     1      -7.077  19.097  66.926  1.00  0.00    -0.203 OA 
HETATM   40  O   UNL     1      -7.154  16.441  70.262  1.00  0.00     0.564 OA 
HETATM   41  C   UNL     1      -7.070  17.557  69.376  1.00  0.00    -0.046 C  
HETATM   42  C   UNL     1      -5.918  18.361  67.300  1.00  0.00    -0.156 C  
ENDBRANCH  20  32
ENDBRANCH   4  12
TORSDOF 9
ENDMDL
MODEL      186
REMARK 921   NORMALIZED FREE ENERGY PREDICTED BY IDOCK:   29.46 KCAL/MOL
REMARK 922        TOTAL FREE ENERGY PREDICTED BY IDOCK:   43.66 KCAL/MOL
REMARK 923 INTER-LIGAND FREE ENERGY PREDICTED BY IDOCK:   24.50 KCAL/MOL
REMARK 924 INTRA-LIGAND FREE ENERGY PREDICTED BY IDOCK:   19.16 KCAL/MOL
REMARK 927      BINDING AFFINITY PREDICTED BY RF-SCORE:    0.00 PKD
ROOT
HETATM    1  C   UNL     1      -9.678  14.876  65.544  1.00  0.00    -0.240 C  
HETATM    2  N   UNL     1     -10.472  14.036  66.439  1.00  0.00    -0.280 N  
HETATM    3  O   UNL     1     -11.072  15.920  67.641  1.00  0.00    -0.323 OA 
HETATM    4  C   UNL     1     -11.104  14.700  67.518  1.00  0.00    -0.313 C  
ENDROOT
BRANCH   2   5
HETATM    5  C   UNL     1     -10.743  12.666  65.964  1.00  0.00    -0.269 C  
BRANCH   5   6
HETATM    6  C   UNL     1     -10.245  11.480  66.791  1.00  0.00    -0.219 C  
HETATM    7  H   UNL     1      -9.743   9.595  66.473  1.00  0.00     0.000 HD 
HETATM    8  O   UNL     1     -10.052  10.332  65.959  1.00  0.00    -0.235 OA 
BRANCH   6   9
HETATM    9  C   UNL     1      -8.896  11.882  67.430  1.00  0.00    -0.171 C  
HETATM   10  H   UNL     1      -6.957  11.883  66.973  1.00  0.00     0.000 HD 
HETATM   11  O   UNL     1      -7.786  11.635  66.580  1.00  0.00    -0.123 OA 
ENDBRANCH   6   9
ENDBRANCH   5   6
ENDBRANCH   2   5
BRANCH   4  12
HETATM   12  C   UNL     1     -11.881  13.941  68.556  1.00  0.00    -0.401 A  
HETATM   13  C   UNL     1     -12.249  12.619  68.284  1.00  0.00     0.112 A  
HETATM   14  C   UNL     1     -12.333  14.518  69.786  1.00  0.00    -0.272 A  
HETATM   15  C   UNL     1     -12.911  13.709  70.814  1.00  0.00    -0.205 A  
HETATM   16  I   UNL     1     -12.160  16.659  70.027  1.00  0.00     2.747 I  
HETATM   17  I   UNL     1     -12.467  11.997  66.227  1.00  0.00     2.938 I  
HETATM   18  C   UNL     1     -12.888  12.309  70.609  1.00  0.00     0.066 A  
HETATM   19  I   UNL     1     -12.690  11.006  72.320  1.00  0.00     1.845 I  
HETATM   20  C   UNL     1     -12.659  11.758  69.318  1.00  0.00     0.454 A  
BRANCH  15  21
HETATM   21  C   UNL     1     -13.410  14.346  72.104  1.00  0.00    -0.398 C  
HETATM   22  O   UNL     1     -13.728  13.595  73.030  1.00  0.00    -0.554 OA 
HETATM   23  N   UNL     1     -13.430  15.743  72.304  1.00  0.00    -0.462 N  
HETATM   24  C   UNL     1     -13.531  16.755  71.258  1.00  0.00     5.272 C  
BRANCH  23  25
HETATM   25  C   UNL     1     -13.614  16.244  73.689  1.00  0.00     0.198 C  
BRANCH  25  26
HETATM   26  C   UNL     1     -12.609  17.319  74.156  1.00  0.00     0.843 C  
HETATM   27  H   UNL     1     -10.720  17.426  74.812  1.00  0.00     0.000 HD 
HETATM   28  O   UNL     1     -11.338  16.765  74.526  1.00  0.00     0.982 OA 
BRANCH  26  29
HETATM   29  C   UNL     1     -12.319  18.344  73.045  1.00  0.00     6.619 C  
HETATM   30  H   UNL     1     -11.022  19.791  72.728  1.00  0.00     0.000 HD 
HETATM   31  O   UNL     1     -11.201  19.158  73.414  1.00  0.00     2.317 OA 
ENDBRANCH  26  29
ENDBRANCH  25  26
ENDBRANCH  23  25
ENDBRANCH  15  21
BRANCH  20  32
HETATM   32  N   UNL     1     -12.726  10.364  69.032  1.00  0.00     0.381 N  
HETATM   33  C   UNL     1     -11.613   9.538  69.111  1.00  0.00     0.379 C  
HETATM   34  H   UNL     1     -13.623   9.959  68.761  1.00  0.00     0.000 HD 
HETATM   35  H   UNL     1     -14.349   7.742  71.061  1.00  0.00     0.000 HD 
HETATM   36  H   UNL     1      -8.999   6.738  69.516  1.00  0.00     0.000 HD 
HETATM   37  C   UNL     1     -11.945   8.053  68.928  1.00  0.00     2.172 C  
HETATM   38  O   UNL     1     -10.478   9.933  69.372  1.00  0.00    -0.203 OA 
HETATM   39  O   UNL     1      -9.784   7.236  69.714  1.00  0.00    -0.166 OA 
HETATM   40  O   UNL     1     -13.924   8.088  70.285  1.00  0.00     1.328 OA 
HETATM   41  C   UNL     1     -12.629   7.498  70.175  1.00  0.00     0.815 C  
HETATM   42  C   UNL     1     -10.685   7.255  68.612  1.00  0.00    -0.138 C  
ENDBRANCH  20  32
ENDBRANCH   4  12
TORSDOF 9
ENDMDL
MODEL      187
REMARK 921   NORMALIZED FREE ENERGY PREDICTED BY IDOCK:   32.27 KCAL/MOL
REMARK 922        TOTAL FREE ENERGY PREDICTED BY IDOCK:   47.95 KCAL/MOL
REMARK 923 INTER-LIGAND FREE ENERGY PREDICTED BY IDOCK:   37.15 KCAL/MOL
REMARK 924 INTRA-LIGAND FREE ENERGY PREDICTED BY IDOCK:   10.80 KCAL/MOL
REMARK 927      BINDING AFFINITY PREDICTED BY RF-SCORE:    0.00 PKD
ROOT
HETATM    1  C   UNL     1      -8.732  13.659  73.311  1.00  0.00    13.361 C  
HETATM    2  N   UNL     1      -8.404  13.918  71.910  1.00  0.00     8.069 N  
HETATM    3  O   UNL     1     -10.657  14.184  71.453  1.00  0.00     1.920 OA 
HETATM    4  C   UNL     1      -9.504  14.125  71.041  1.00  0.00     4.597 C  
ENDROOT
BRANCH   2   5
HETATM    5  C   UNL     1      -6.985  14.203  71.624  1.00  0.00     2.437 C  
BRANCH   5   6
HETATM    6  C   UNL     1      -6.059  13.051  71.236  1.00  0.00     0.732 C  
HETATM    7  H   UNL     1      -6.221  11.114  70.876  1.00  0.00     0.000 HD 
HETATM    8  O   UNL     1      -6.796  11.830  71.117  1.00  0.00     1.580 OA 
BRANCH   6   9
HETATM    9  C   UNL     1      -5.418  13.397  69.872  1.00  0.00    -0.099 C  
HETATM   10  H   UNL     1      -5.907  14.311  68.171  1.00  0.00     0.000 HD 
HETATM   11  O   UNL     1      -6.301  14.098  69.009  1.00  0.00    -0.088 OA 
ENDBRANCH   6   9
ENDBRANCH   5   6
ENDBRANCH   2   5
BRANCH   4  12
HETATM   12  C   UNL     1      -9.307  14.320  69.565  1.00  0.00     0.506 A  
HETATM   13  C   UNL     1      -9.866  13.387  68.686  1.00  0.00    -0.112 A  
HETATM   14  C   UNL     1      -8.514  15.371  69.004  1.00  0.00    -0.229 A  
HETATM   15  C   UNL     1      -8.503  15.619  67.595  1.00  0.00    -0.169 A  
HETATM   16  I   UNL     1      -7.292  16.548  70.344  1.00  0.00     3.071 I  
HETATM   17  I   UNL     1     -10.221  11.374  69.384  1.00  0.00     0.555 I  
HETATM   18  C   UNL     1      -9.410  14.867  66.812  1.00  0.00    -0.250 A  
HETATM   19  I   UNL     1     -10.267  15.774  65.049  1.00  0.00     0.589 I  
HETATM   20  C   UNL     1     -10.018  13.686  67.319  1.00  0.00    -0.240 A  
BRANCH  15  21
HETATM   21  C   UNL     1      -7.631  16.725  67.016  1.00  0.00    -0.200 C  
HETATM   22  O   UNL     1      -7.290  16.627  65.834  1.00  0.00     0.084 OA 
HETATM   23  N   UNL     1      -7.286  17.882  67.745  1.00  0.00    -0.205 N  
HETATM   24  C   UNL     1      -7.199  17.983  69.198  1.00  0.00    -0.148 C  
BRANCH  23  25
HETATM   25  C   UNL     1      -6.725  19.034  66.996  1.00  0.00    -0.197 C  
BRANCH  25  26
HETATM   26  C   UNL     1      -7.750  19.923  66.260  1.00  0.00    -0.315 C  
HETATM   27  H   UNL     1      -9.241  21.185  66.706  1.00  0.00     0.000 HD 
HETATM   28  O   UNL     1      -8.610  20.637  67.159  1.00  0.00    -0.312 OA 
BRANCH  26  29
HETATM   29  C   UNL     1      -7.057  20.991  65.396  1.00  0.00     0.325 C  
HETATM   30  H   UNL     1      -6.025  21.035  63.719  1.00  0.00     0.000 HD 
HETATM   31  O   UNL     1      -6.454  20.376  64.253  1.00  0.00    -0.277 OA 
ENDBRANCH  26  29
ENDBRANCH  25  26
ENDBRANCH  23  25
ENDBRANCH  15  21
BRANCH  20  32
HETATM   32  N   UNL     1     -10.857  12.835  66.543  1.00  0.00    -0.254 N  
HETATM   33  C   UNL     1     -10.513  12.423  65.262  1.00  0.00    -0.286 C  
HETATM   34  H   UNL     1     -11.741  12.517  66.942  1.00  0.00     0.000 HD 
HETATM   35  H   UNL     1     -11.541   9.252  67.106  1.00  0.00     0.000 HD 
HETATM   36  H   UNL     1      -9.925  10.685  61.876  1.00  0.00     0.000 HD 
HETATM   37  C   UNL     1     -11.475  11.382  64.681  1.00  0.00    -0.090 C  
HETATM   38  O   UNL     1      -9.501  12.792  64.668  1.00  0.00     0.190 OA 
HETATM   39  O   UNL     1     -10.031  10.750  62.819  1.00  0.00    -0.274 OA 
HETATM   40  O   UNL     1     -11.678  10.099  66.698  1.00  0.00     0.701 OA 
HETATM   41  C   UNL     1     -11.255  10.021  65.337  1.00  0.00     1.884 C  
HETATM   42  C   UNL     1     -11.305  11.278  63.169  1.00  0.00     0.294 C  
ENDBRANCH  20  32
ENDBRANCH   4  12
TORSDOF 9
ENDMDL
MODEL      188
REMARK 921   NORMALIZED FREE ENERGY PREDICTED BY IDOCK:   36.62 KCAL/MOL
REMARK 922        TOTAL FREE ENERGY PREDICTED BY IDOCK:   54.58 KCAL/MOL
REMARK 923 INTER-LIGAND FREE ENERGY PREDICTED BY IDOCK:   41.05 KCAL/MOL
REMARK 924 INTRA-LIGAND FREE ENERGY PREDICTED BY IDOCK:   13.53 KCAL/MOL
REMARK 927      BINDING AFFINITY PREDICTED BY RF-SCORE:    0.00 PKD
ROOT
HETATM    1  C   UNL     1      -8.493  20.645  71.618  1.00  0.00     2.498 C  
HETATM    2  N   UNL     1      -8.850  19.536  70.733  1.00  0.00     2.034 N  
HETATM    3  O   UNL     1      -6.771  18.592  71.112  1.00  0.00     1.468 OA 
HETATM    4  C   UNL     1      -7.843  18.564  70.517  1.00  0.00     3.071 C  
ENDROOT
BRANCH   2   5
HETATM    5  C   UNL     1     -10.281  19.417  70.396  1.00  0.00     1.234 C  
BRANCH   5   6
HETATM    6  C   UNL     1     -10.872  20.335  69.325  1.00  0.00     0.980 C  
HETATM    7  H   UNL     1     -10.315  21.944  68.322  1.00  0.00     0.000 HD 
HETATM    8  O   UNL     1      -9.948  21.373  68.987  1.00  0.00     1.296 OA 
BRANCH   6   9
HETATM    9  C   UNL     1     -11.158  19.476  68.072  1.00  0.00     0.329 C  
HETATM   10  H   UNL     1     -11.120  17.562  67.521  1.00  0.00     0.000 HD 
HETATM   11  O   UNL     1     -10.944  18.089  68.291  1.00  0.00    -0.177 OA 
ENDBRANCH   6   9
ENDBRANCH   5   6
ENDBRANCH   2   5
BRANCH   4  12
HETATM   12  C   UNL     1      -8.052  17.420  69.566  1.00  0.00     0.576 A  
HETATM   13  C   UNL     1      -7.987  17.671  68.191  1.00  0.00    -0.256 A  
HETATM   14  C   UNL     1      -8.389  16.094  69.986  1.00  0.00     0.978 A  
HETATM   15  C   UNL     1      -8.403  15.005  69.058  1.00  0.00    -0.194 A  
HETATM   16  I   UNL     1      -8.925  15.788  72.057  1.00  0.00    10.720 I  
HETATM   17  I   UNL     1      -8.429  19.657  67.469  1.00  0.00    -0.390 I  
HETATM   18  C   UNL     1      -7.939  15.280  67.749  1.00  0.00    -0.146 A  
HETATM   19  I   UNL     1      -6.922  13.724  66.653  1.00  0.00     3.408 I  
HETATM   20  C   UNL     1      -7.828  16.617  67.274  1.00  0.00    -0.166 A  
BRANCH  15  21
HETATM   21  C   UNL     1      -8.790  13.607  69.519  1.00  0.00     1.173 C  
HETATM   22  O   UNL     1      -8.575  13.311  70.697  1.00  0.00     4.714 OA 
HETATM   23  N   UNL     1      -9.462  12.689  68.683  1.00  0.00    -0.070 N  
HETATM   24  C   UNL     1      -9.405  12.661  67.225  1.00  0.00    -0.195 C  
BRANCH  23  25
HETATM   25  C   UNL     1     -10.082  11.498  69.316  1.00  0.00     0.129 C  
BRANCH  25  26
HETATM   26  C   UNL     1     -11.600  11.592  69.583  1.00  0.00    -0.333 C  
HETATM   27  H   UNL     1     -13.265  10.557  69.170  1.00  0.00     0.000 HD 
HETATM   28  O   UNL     1     -12.331  10.500  69.006  1.00  0.00    -0.259 OA 
BRANCH  26  29
HETATM   29  C   UNL     1     -11.913  11.564  71.089  1.00  0.00     0.147 C  
HETATM   30  H   UNL     1     -13.113  10.565  72.290  1.00  0.00     0.000 HD 
HETATM   31  O   UNL     1     -12.919  10.582  71.359  1.00  0.00    -0.382 OA 
ENDBRANCH  26  29
ENDBRANCH  25  26
ENDBRANCH  23  25
ENDBRANCH  15  21
BRANCH  20  32
HETATM   32  N   UNL     1      -7.467  16.950  65.936  1.00  0.00     0.011 N  
HETATM   33  C   UNL     1      -7.278  18.264  65.526  1.00  0.00     0.029 C  
HETATM   34  H   UNL     1      -7.342  16.199  65.258  1.00  0.00     0.000 HD 
HETATM   35  H   UNL     1      -4.217  16.364  64.287  1.00  0.00     0.000 HD 
HETATM   36  H   UNL     1      -6.275  21.624  63.934  1.00  0.00     0.000 HD 
HETATM   37  C   UNL     1      -6.732  18.380  64.099  1.00  0.00     3.020 C  
HETATM   38  O   UNL     1      -7.459  19.244  66.246  1.00  0.00    -0.246 OA 
HETATM   39  O   UNL     1      -6.149  20.744  64.270  1.00  0.00    -0.282 OA 
HETATM   40  O   UNL     1      -5.137  16.600  64.313  1.00  0.00     3.531 OA 
HETATM   41  C   UNL     1      -5.254  18.000  64.056  1.00  0.00     0.521 C  
HETATM   42  C   UNL     1      -6.934  19.793  63.560  1.00  0.00     2.277 C  
ENDBRANCH  20  32
ENDBRANCH   4  12
TORSDOF 9
ENDMDL
MODEL      189
REMARK 921   NORMALIZED FREE ENERGY PREDICTED BY IDOCK:   41.26 KCAL/MOL
REMARK 922        TOTAL FREE ENERGY PREDICTED BY IDOCK:   61.67 KCAL/MOL
REMARK 923 INTER-LIGAND FREE ENERGY PREDICTED BY IDOCK:   26.79 KCAL/MOL
REMARK 924 INTRA-LIGAND FREE ENERGY PREDICTED BY IDOCK:   34.88 KCAL/MOL
REMARK 927      BINDING AFFINITY PREDICTED BY RF-SCORE:    0.00 PKD
ROOT
HETATM    1  C   UNL     1     -12.925  14.179  65.849  1.00  0.00    -0.110 C  
HETATM    2  N   UNL     1     -12.253  12.882  65.907  1.00  0.00    -0.443 N  
HETATM    3  O   UNL     1     -12.628  12.813  68.190  1.00  0.00     0.227 OA 
HETATM    4  C   UNL     1     -12.122  12.306  67.195  1.00  0.00     0.057 C  
ENDROOT
BRANCH   2   5
HETATM    5  C   UNL     1     -12.041  12.209  64.612  1.00  0.00    -0.311 C  
BRANCH   5   6
HETATM    6  C   UNL     1     -10.751  12.479  63.836  1.00  0.00    -0.437 C  
HETATM    7  H   UNL     1      -8.835  12.737  64.247  1.00  0.00     0.000 HD 
HETATM    8  O   UNL     1      -9.637  12.570  64.729  1.00  0.00    -0.006 OA 
BRANCH   6   9
HETATM    9  C   UNL     1     -10.531  11.299  62.860  1.00  0.00     0.006 C  
HETATM   10  H   UNL     1     -11.170   9.432  62.591  1.00  0.00     0.000 HD 
HETATM   11  O   UNL     1     -11.306  10.156  63.191  1.00  0.00     2.595 OA 
ENDBRANCH   6   9
ENDBRANCH   5   6
ENDBRANCH   2   5
BRANCH   4  12
HETATM   12  C   UNL     1     -11.379  11.017  67.402  1.00  0.00    -0.306 A  
HETATM   13  C   UNL     1     -10.990  10.669  68.699  1.00  0.00    -0.246 A  
HETATM   14  C   UNL     1     -10.981  10.153  66.332  1.00  0.00     0.193 A  
HETATM   15  C   UNL     1     -10.436   8.856  66.592  1.00  0.00    -0.231 A  
HETATM   16  I   UNL     1     -11.181  10.883  64.308  1.00  0.00     1.498 I  
HETATM   17  I   UNL     1     -10.686  12.234  70.155  1.00  0.00     2.554 I  
HETATM   18  C   UNL     1     -10.439   8.425  67.940  1.00  0.00    -0.193 A  
HETATM   19  I   UNL     1     -10.692   6.323  68.364  1.00  0.00    -0.367 I  
HETATM   20  C   UNL     1     -10.612   9.349  69.008  1.00  0.00    -0.213 A  
BRANCH  15  21
HETATM   21  C   UNL     1      -9.993   7.963  65.441  1.00  0.00     1.608 C  
HETATM   22  O   UNL     1     -10.133   8.395  64.294  1.00  0.00     3.107 OA 
HETATM   23  N   UNL     1      -9.353   6.722  65.644  1.00  0.00     0.192 N  
HETATM   24  C   UNL     1      -9.495   5.869  66.819  1.00  0.00    -0.142 C  
BRANCH  23  25
HETATM   25  C   UNL     1      -8.672   6.094  64.485  1.00  0.00     0.267 C  
BRANCH  25  26
HETATM   26  C   UNL     1      -7.225   5.616  64.731  1.00  0.00    -0.065 C  
HETATM   27  H   UNL     1      -5.383   5.976  64.030  1.00  0.00     0.000 HD 
HETATM   28  O   UNL     1      -6.274   6.270  63.879  1.00  0.00    -0.028 OA 
BRANCH  26  29
HETATM   29  C   UNL     1      -6.771   5.903  66.173  1.00  0.00    -0.060 C  
HETATM   30  H   UNL     1      -6.739   7.453  67.388  1.00  0.00     0.000 HD 
HETATM   31  O   UNL     1      -7.019   7.275  66.497  1.00  0.00    -0.069 OA 
ENDBRANCH  26  29
ENDBRANCH  25  26
ENDBRANCH  23  25
ENDBRANCH  15  21
BRANCH  20  32
HETATM   32  N   UNL     1     -10.522   8.990  70.384  1.00  0.00    -0.201 N  
HETATM   33  C   UNL     1      -9.505   9.458  71.206  1.00  0.00    -0.043 C  
HETATM   34  H   UNL     1     -11.228   8.368  70.778  1.00  0.00     0.000 HD 
HETATM   35  H   UNL     1     -12.734  10.081  73.129  1.00  0.00     0.000 HD 
HETATM   36  H   UNL     1      -7.180  10.716  74.007  1.00  0.00     0.000 HD 
HETATM   37  C   UNL     1      -9.696   9.084  72.680  1.00  0.00     0.600 C  
HETATM   38  O   UNL     1      -8.575  10.164  70.819  1.00  0.00     0.220 OA 
HETATM   39  O   UNL     1      -7.994  10.613  73.527  1.00  0.00     7.693 OA 
HETATM   40  O   UNL     1     -12.049   9.553  72.736  1.00  0.00     0.368 OA 
HETATM   41  C   UNL     1     -10.798   9.931  73.311  1.00  0.00     7.073 C  
HETATM   42  C   UNL     1      -8.390   9.248  73.450  1.00  0.00     2.000 C  
ENDBRANCH  20  32
ENDBRANCH   4  12
TORSDOF 9
ENDMDL
MODEL      190
REMARK 921   NORMALIZED FREE ENERGY PREDICTED BY IDOCK:   42.51 KCAL/MOL
REMARK 922        TOTAL FREE ENERGY PREDICTED BY IDOCK:   63.58 KCAL/MOL
REMARK 923 INTER-LIGAND FREE ENERGY PREDICTED BY IDOCK:   37.21 KCAL/MOL
REMARK 924 INTRA-LIGAND FREE ENERGY PREDICTED BY IDOCK:   26.37 KCAL/MOL
REMARK 927      BINDING AFFINITY PREDICTED BY RF-SCORE:    0.00 PKD
ROOT
HETATM    1  C   UNL     1     -10.589   9.798  74.163  1.00  0.00    12.823 C  
HETATM    2  N   UNL     1     -10.464   9.915  72.712  1.00  0.00     3.958 N  
HETATM    3  O   UNL     1     -10.856  12.189  72.882  1.00  0.00    10.846 OA 
HETATM    4  C   UNL     1     -10.677  11.207  72.171  1.00  0.00     7.763 C  
ENDROOT
BRANCH   2   5
HETATM    5  C   UNL     1      -9.870   8.755  72.021  1.00  0.00    -0.306 C  
BRANCH   5   6
HETATM    6  C   UNL     1      -9.374   7.570  72.850  1.00  0.00    -0.181 C  
HETATM    7  H   UNL     1      -9.925   6.610  74.487  1.00  0.00     0.000 HD 
HETATM    8  O   UNL     1     -10.233   7.346  73.972  1.00  0.00    -0.262 OA 
BRANCH   6   9
HETATM    9  C   UNL     1      -9.384   6.319  71.940  1.00  0.00    -0.149 C  
HETATM   10  H   UNL     1     -10.299   5.664  70.297  1.00  0.00     0.000 HD 
HETATM   11  O   UNL     1     -10.293   6.432  70.855  1.00  0.00    -0.196 OA 
ENDBRANCH   6   9
ENDBRANCH   5   6
ENDBRANCH   2   5
BRANCH   4  12
HETATM   12  C   UNL     1     -10.659  11.446  70.688  1.00  0.00     2.058 A  
HETATM   13  C   UNL     1     -11.088  12.686  70.203  1.00  0.00     0.693 A  
HETATM   14  C   UNL     1     -10.294  10.446  69.730  1.00  0.00    -0.208 A  
HETATM   15  C   UNL     1     -10.121  10.774  68.348  1.00  0.00    -0.183 A  
HETATM   16  I   UNL     1     -10.056   8.413  70.423  1.00  0.00    -0.240 I  
HETATM   17  I   UNL     1     -12.484  13.841  71.378  1.00  0.00    -0.134 I  
HETATM   18  C   UNL     1     -10.196  12.145  68.006  1.00  0.00    -0.201 A  
HETATM   19  I   UNL     1      -8.983  12.884  66.380  1.00  0.00     0.310 I  
HETATM   20  C   UNL     1     -10.777  13.094  68.893  1.00  0.00    -0.169 A  
BRANCH  15  21
HETATM   21  C   UNL     1      -9.760   9.691  67.341  1.00  0.00    -0.156 C  
HETATM   22  O   UNL     1      -9.701   8.527  67.746  1.00  0.00    -0.152 OA 
HETATM   23  N   UNL     1      -9.585   9.958  65.966  1.00  0.00    -0.206 N  
HETATM   24  C   UNL     1      -9.180  11.235  65.388  1.00  0.00    -0.183 C  
BRANCH  23  25
HETATM   25  C   UNL     1      -9.565   8.806  65.031  1.00  0.00     0.571 C  
BRANCH  25  26
HETATM   26  C   UNL     1      -9.090   9.112  63.594  1.00  0.00     0.196 C  
HETATM   27  H   UNL     1      -8.258  10.624  62.576  1.00  0.00     0.000 HD 
HETATM   28  O   UNL     1      -8.551  10.435  63.460  1.00  0.00    -0.173 OA 
BRANCH  26  29
HETATM   29  C   UNL     1      -7.974   8.151  63.150  1.00  0.00    -0.151 C  
HETATM   30  H   UNL     1      -7.222   6.439  63.766  1.00  0.00     0.000 HD 
HETATM   31  O   UNL     1      -7.911   7.033  64.041  1.00  0.00    -0.118 OA 
ENDBRANCH  26  29
ENDBRANCH  25  26
ENDBRANCH  23  25
ENDBRANCH  15  21
BRANCH  20  32
HETATM   32  N   UNL     1     -10.972  14.466  68.562  1.00  0.00    -0.242 N  
HETATM   33  C   UNL     1     -10.039  15.192  67.834  1.00  0.00    -0.222 C  
HETATM   34  H   UNL     1     -11.827  14.931  68.871  1.00  0.00     0.000 HD 
HETATM   35  H   UNL     1     -13.387  15.861  66.145  1.00  0.00     0.000 HD 
HETATM   36  H   UNL     1      -8.022  17.565  65.568  1.00  0.00     0.000 HD 
HETATM   37  C   UNL     1     -10.526  16.593  67.450  1.00  0.00    -0.314 C  
HETATM   38  O   UNL     1      -8.954  14.746  67.464  1.00  0.00    -0.175 OA 
HETATM   39  O   UNL     1      -8.753  17.015  65.827  1.00  0.00    -0.522 OA 
HETATM   40  O   UNL     1     -12.745  15.910  66.843  1.00  0.00     2.027 OA 
HETATM   41  C   UNL     1     -11.559  16.514  66.328  1.00  0.00     1.070 C  
HETATM   42  C   UNL     1      -9.353  17.475  67.033  1.00  0.00    -0.259 C  
ENDBRANCH  20  32
ENDBRANCH   4  12
TORSDOF 9
ENDMDL
MODEL      191
REMARK 921   NORMALIZED FREE ENERGY PREDICTED BY IDOCK:   44.15 KCAL/MOL
REMARK 922        TOTAL FREE ENERGY PREDICTED BY IDOCK:   66.07 KCAL/MOL
REMARK 923 INTER-LIGAND FREE ENERGY PREDICTED BY IDOCK:   59.05 KCAL/MOL
REMARK 924 INTRA-LIGAND FREE ENERGY PREDICTED BY IDOCK:    7.02 KCAL/MOL
REMARK 927      BINDING AFFINITY PREDICTED BY RF-SCORE:    0.00 PKD
ROOT
HETATM    1  C   UNL     1     -10.223  13.347  73.632  1.00  0.00    12.502 C  
HETATM    2  N   UNL     1     -10.222  12.901  72.240  1.00  0.00    12.543 N  
HETATM    3  O   UNL     1     -10.669  10.745  72.952  1.00  0.00     7.444 OA 
HETATM    4  C   UNL     1     -10.416  11.513  72.030  1.00  0.00    10.074 C  
ENDROOT
BRANCH   2   5
HETATM    5  C   UNL     1     -10.295  13.967  71.222  1.00  0.00     4.292 C  
BRANCH   5   6
HETATM    6  C   UNL     1      -9.133  14.951  71.092  1.00  0.00     3.118 C  
HETATM    7  H   UNL     1      -7.371  15.010  70.199  1.00  0.00     0.000 HD 
HETATM    8  O   UNL     1      -8.093  14.398  70.280  1.00  0.00     0.787 OA 
BRANCH   6   9
HETATM    9  C   UNL     1      -9.675  16.237  70.425  1.00  0.00     1.165 C  
HETATM   10  H   UNL     1      -9.507  17.220  68.701  1.00  0.00     0.000 HD 
HETATM   11  O   UNL     1      -9.174  16.431  69.110  1.00  0.00    -0.257 OA 
ENDBRANCH   6   9
ENDBRANCH   5   6
ENDBRANCH   2   5
BRANCH   4  12
HETATM   12  C   UNL     1     -10.354  10.915  70.654  1.00  0.00     1.445 A  
HETATM   13  C   UNL     1      -9.603   9.750  70.462  1.00  0.00    -0.103 A  
HETATM   14  C   UNL     1     -10.964  11.511  69.504  1.00  0.00    -0.125 A  
HETATM   15  C   UNL     1     -11.028  10.814  68.256  1.00  0.00    -0.307 A  
HETATM   16  I   UNL     1     -11.745  13.517  69.693  1.00  0.00    -0.270 I  
HETATM   17  I   UNL     1      -7.961   9.333  71.801  1.00  0.00     1.256 I  
HETATM   18  C   UNL     1     -10.585   9.470  68.256  1.00  0.00    -0.216 A  
HETATM   19  I   UNL     1     -11.539   8.056  66.932  1.00  0.00     5.374 I  
HETATM   20  C   UNL     1      -9.780   8.960  69.312  1.00  0.00    -0.165 A  
BRANCH  15  21
HETATM   21  C   UNL     1     -11.657  11.476  67.038  1.00  0.00    -0.122 C  
HETATM   22  O   UNL     1     -12.733  12.060  67.194  1.00  0.00     0.839 OA 
HETATM   23  N   UNL     1     -11.016  11.524  65.782  1.00  0.00    -0.277 N  
HETATM   24  C   UNL     1     -10.027  10.570  65.290  1.00  0.00    -0.299 C  
BRANCH  23  25
HETATM   25  C   UNL     1     -11.549  12.464  64.765  1.00  0.00    -0.341 C  
BRANCH  25  26
HETATM   26  C   UNL     1     -11.393  13.966  65.088  1.00  0.00    -0.318 C  
HETATM   27  H   UNL     1     -11.530  15.184  66.672  1.00  0.00     0.000 HD 
HETATM   28  O   UNL     1     -11.626  14.260  66.473  1.00  0.00    -0.349 OA 
BRANCH  26  29
HETATM   29  C   UNL     1      -9.972  14.467  64.780  1.00  0.00     0.083 C  
HETATM   30  H   UNL     1      -8.491  13.948  63.590  1.00  0.00     0.000 HD 
HETATM   31  O   UNL     1      -9.369  13.638  63.780  1.00  0.00     1.954 OA 
ENDBRANCH  26  29
ENDBRANCH  25  26
ENDBRANCH  23  25
ENDBRANCH  15  21
BRANCH  20  32
HETATM   32  N   UNL     1      -9.221   7.650  69.315  1.00  0.00    -0.145 N  
HETATM   33  C   UNL     1      -8.119   7.313  68.540  1.00  0.00    -0.125 C  
HETATM   34  H   UNL     1      -9.644   6.934  69.906  1.00  0.00     0.000 HD 
HETATM   35  H   UNL     1      -7.327   6.033  72.039  1.00  0.00     0.000 HD 
HETATM   36  H   UNL     1      -4.912   5.922  66.923  1.00  0.00     0.000 HD 
HETATM   37  C   UNL     1      -7.585   5.905  68.823  1.00  0.00    -0.090 C  
HETATM   38  O   UNL     1      -7.570   8.081  67.752  1.00  0.00    -0.098 OA 
HETATM   39  O   UNL     1      -5.480   6.213  67.627  1.00  0.00    -0.004 OA 
HETATM   40  O   UNL     1      -7.789   6.055  71.210  1.00  0.00    -0.107 OA 
HETATM   41  C   UNL     1      -6.843   5.871  70.157  1.00  0.00    -0.053 C  
HETATM   42  C   UNL     1      -6.673   5.439  67.694  1.00  0.00    -0.055 C  
ENDBRANCH  20  32
ENDBRANCH   4  12
TORSDOF 9
ENDMDL
MODEL      192
REMARK 921   NORMALIZED FREE ENERGY PREDICTED BY IDOCK:   45.37 KCAL/MOL
REMARK 922        TOTAL FREE ENERGY PREDICTED BY IDOCK:   67.95 KCAL/MOL
REMARK 923 INTER-LIGAND FREE ENERGY PREDICTED BY IDOCK:   40.14 KCAL/MOL
REMARK 924 INTRA-LIGAND FREE ENERGY PREDICTED BY IDOCK:   27.81 KCAL/MOL
REMARK 927      BINDING AFFINITY PREDICTED BY RF-SCORE:    0.00 PKD
ROOT
HETATM    1  C   UNL     1     -12.307  18.306  69.196  1.00  0.00     8.116 C  
HETATM    2  N   UNL     1     -11.876  16.970  68.788  1.00  0.00     0.750 N  
HETATM    3  O   UNL     1     -11.825  16.331  71.012  1.00  0.00    -0.373 OA 
HETATM    4  C   UNL     1     -11.611  16.055  69.837  1.00  0.00    -0.299 C  
ENDROOT
BRANCH   2   5
HETATM    5  C   UNL     1     -12.031  16.652  67.356  1.00  0.00     1.314 C  
BRANCH   5   6
HETATM    6  C   UNL     1     -12.114  15.188  66.924  1.00  0.00     0.276 C  
HETATM    7  H   UNL     1     -11.180  13.496  67.335  1.00  0.00     0.000 HD 
HETATM    8  O   UNL     1     -11.129  14.406  67.604  1.00  0.00    -0.282 OA 
BRANCH   6   9
HETATM    9  C   UNL     1     -13.524  14.666  67.289  1.00  0.00     4.727 C  
HETATM   10  H   UNL     1     -15.174  15.309  68.201  1.00  0.00     0.000 HD 
HETATM   11  O   UNL     1     -14.308  15.630  67.977  1.00  0.00     8.620 OA 
ENDBRANCH   6   9
ENDBRANCH   5   6
ENDBRANCH   2   5
BRANCH   4  12
HETATM   12  C   UNL     1     -11.083  14.677  69.556  1.00  0.00    -0.294 A  
HETATM   13  C   UNL     1     -11.564  13.607  70.318  1.00  0.00    -0.092 A  
HETATM   14  C   UNL     1     -10.056  14.403  68.597  1.00  0.00    -0.242 A  
HETATM   15  C   UNL     1      -9.716  13.060  68.241  1.00  0.00    -0.221 A  
HETATM   16  I   UNL     1      -8.999  16.079  67.734  1.00  0.00    -0.201 I  
HETATM   17  I   UNL     1     -12.324  13.994  72.302  1.00  0.00     0.404 I  
HETATM   18  C   UNL     1     -10.530  12.035  68.778  1.00  0.00    -0.183 A  
HETATM   19  I   UNL     1     -10.866  10.249  67.612  1.00  0.00    -0.227 I  
HETATM   20  C   UNL     1     -11.383  12.279  69.890  1.00  0.00    -0.007 A  
BRANCH  15  21
HETATM   21  C   UNL     1      -8.602  12.790  67.238  1.00  0.00    -0.197 C  
HETATM   22  O   UNL     1      -8.920  12.334  66.137  1.00  0.00    -0.138 OA 
HETATM   23  N   UNL     1      -7.255  13.125  67.489  1.00  0.00    -0.157 N  
HETATM   24  C   UNL     1      -6.632  13.236  68.804  1.00  0.00    -0.099 C  
BRANCH  23  25
HETATM   25  C   UNL     1      -6.314  13.130  66.341  1.00  0.00     2.847 C  
BRANCH  25  26
HETATM   26  C   UNL     1      -6.669  12.181  65.176  1.00  0.00     4.294 C  
HETATM   27  H   UNL     1      -5.971  10.498  64.342  1.00  0.00     0.000 HD 
HETATM   28  O   UNL     1      -5.753  11.082  65.059  1.00  0.00    -0.056 OA 
BRANCH  26  29
HETATM   29  C   UNL     1      -8.062  11.555  65.358  1.00  0.00     0.605 C  
HETATM   30  H   UNL     1      -8.945  10.367  66.656  1.00  0.00     0.000 HD 
HETATM   31  O   UNL     1      -8.085  10.753  66.543  1.00  0.00    -0.134 OA 
ENDBRANCH  26  29
ENDBRANCH  25  26
ENDBRANCH  23  25
ENDBRANCH  15  21
BRANCH  20  32
HETATM   32  N   UNL     1     -12.146  11.264  70.537  1.00  0.00    -0.366 N  
HETATM   33  C   UNL     1     -11.624  10.487  71.563  1.00  0.00     0.300 C  
HETATM   34  H   UNL     1     -13.107  11.102  70.235  1.00  0.00     0.000 HD 
HETATM   35  H   UNL     1     -14.991  11.731  72.840  1.00  0.00     0.000 HD 
HETATM   36  H   UNL     1     -10.856   8.319  74.652  1.00  0.00     0.000 HD 
HETATM   37  C   UNL     1     -12.666   9.577  72.224  1.00  0.00    -0.388 C  
HETATM   38  O   UNL     1     -10.464  10.561  71.962  1.00  0.00     2.892 OA 
HETATM   39  O   UNL     1     -11.281   9.005  74.150  1.00  0.00     5.351 OA 
HETATM   40  O   UNL     1     -14.409  11.225  72.285  1.00  0.00     0.724 OA 
HETATM   41  C   UNL     1     -13.601  10.390  73.115  1.00  0.00     2.428 C  
HETATM   42  C   UNL     1     -11.984   8.477  73.030  1.00  0.00     0.449 C  
ENDBRANCH  20  32
ENDBRANCH   4  12
TORSDOF 9
ENDMDL
MODEL      193
REMARK 921   NORMALIZED FREE ENERGY PREDICTED BY IDOCK:   46.74 KCAL/MOL
REMARK 922        TOTAL FREE ENERGY PREDICTED BY IDOCK:   70.03 KCAL/MOL
REMARK 923 INTER-LIGAND FREE ENERGY PREDICTED BY IDOCK:   39.51 KCAL/MOL
REMARK 924 INTRA-LIGAND FREE ENERGY PREDICTED BY IDOCK:   30.52 KCAL/MOL
REMARK 927      BINDING AFFINITY PREDICTED BY RF-SCORE:    0.00 PKD
ROOT
HETATM    1  C   UNL     1      -7.845  15.777  63.954  1.00  0.00    17.465 C  
HETATM    2  N   UNL     1      -8.469  14.685  64.699  1.00  0.00     5.974 N  
HETATM    3  O   UNL     1      -6.747  14.779  66.241  1.00  0.00     1.994 OA 
HETATM    4  C   UNL     1      -7.766  14.228  65.841  1.00  0.00     3.792 C  
ENDROOT
BRANCH   2   5
HETATM    5  C   UNL     1      -9.867  14.377  64.340  1.00  0.00     1.269 C  
BRANCH   5   6
HETATM    6  C   UNL     1     -10.597  13.259  65.084  1.00  0.00    -0.330 C  
HETATM    7  H   UNL     1     -10.142  11.835  66.377  1.00  0.00     0.000 HD 
HETATM    8  O   UNL     1      -9.688  12.530  65.915  1.00  0.00    -0.256 OA 
BRANCH   6   9
HETATM    9  C   UNL     1     -11.686  13.911  65.967  1.00  0.00    -0.366 C  
HETATM   10  H   UNL     1     -12.102  14.164  67.899  1.00  0.00     0.000 HD 
HETATM   11  O   UNL     1     -11.433  13.763  67.357  1.00  0.00    -0.311 OA 
ENDBRANCH   6   9
ENDBRANCH   5   6
ENDBRANCH   2   5
BRANCH   4  12
HETATM   12  C   UNL     1      -8.257  13.058  66.644  1.00  0.00     0.239 A  
HETATM   13  C   UNL     1      -8.127  11.773  66.106  1.00  0.00     0.209 A  
HETATM   14  C   UNL     1      -8.920  13.187  67.907  1.00  0.00    -0.200 A  
HETATM   15  C   UNL     1      -9.208  12.040  68.712  1.00  0.00     0.059 A  
HETATM   16  I   UNL     1      -9.520  15.164  68.541  1.00  0.00    -0.224 I  
HETATM   17  I   UNL     1      -8.050  11.542  63.960  1.00  0.00     2.193 I  
HETATM   18  C   UNL     1      -8.687  10.803  68.264  1.00  0.00    -0.136 A  
HETATM   19  I   UNL     1      -8.095   9.329  69.726  1.00  0.00    -0.182 I  
HETATM   20  C   UNL     1      -8.240  10.635  66.925  1.00  0.00    -0.123 A  
BRANCH  15  21
HETATM   21  C   UNL     1      -9.938  12.197  70.039  1.00  0.00     2.368 C  
HETATM   22  O   UNL     1      -9.619  11.443  70.962  1.00  0.00     4.493 OA 
HETATM   23  N   UNL     1     -10.883  13.219  70.271  1.00  0.00     0.930 N  
HETATM   24  C   UNL     1     -11.692  13.882  69.255  1.00  0.00    -0.334 C  
BRANCH  23  25
HETATM   25  C   UNL     1     -11.284  13.488  71.675  1.00  0.00     3.111 C  
BRANCH  25  26
HETATM   26  C   UNL     1     -12.322  14.614  71.874  1.00  0.00    -0.338 C  
HETATM   27  H   UNL     1     -13.552  15.739  70.763  1.00  0.00     0.000 HD 
HETATM   28  O   UNL     1     -12.913  15.046  70.641  1.00  0.00    -0.364 OA 
BRANCH  26  29
HETATM   29  C   UNL     1     -13.488  14.157  72.768  1.00  0.00    -0.489 C  
HETATM   30  H   UNL     1     -14.236  12.446  73.391  1.00  0.00     0.000 HD 
HETATM   31  O   UNL     1     -13.516  12.728  72.839  1.00  0.00    -0.326 OA 
ENDBRANCH  26  29
ENDBRANCH  25  26
ENDBRANCH  23  25
ENDBRANCH  15  21
BRANCH  20  32
HETATM   32  N   UNL     1      -7.803   9.388  66.390  1.00  0.00    -0.100 N  
HETATM   33  C   UNL     1      -7.451   9.237  65.055  1.00  0.00    -0.106 C  
HETATM   34  H   UNL     1      -7.746   8.579  67.009  1.00  0.00     0.000 HD 
HETATM   35  H   UNL     1      -4.597   7.679  67.038  1.00  0.00     0.000 HD 
HETATM   36  H   UNL     1      -6.019   8.323  61.599  1.00  0.00     0.000 HD 
HETATM   37  C   UNL     1      -6.854   7.863  64.737  1.00  0.00    -0.055 C  
HETATM   38  O   UNL     1      -7.538  10.130  64.214  1.00  0.00    -0.140 OA 
HETATM   39  O   UNL     1      -6.005   8.486  62.535  1.00  0.00    -0.082 OA 
HETATM   40  O   UNL     1      -5.483   7.744  66.703  1.00  0.00    -0.027 OA 
HETATM   41  C   UNL     1      -5.430   7.758  65.276  1.00  0.00    -0.033 C  
HETATM   42  C   UNL     1      -6.875   7.602  63.234  1.00  0.00    -0.067 C  
ENDBRANCH  20  32
ENDBRANCH   4  12
TORSDOF 9
ENDMDL
MODEL      194
REMARK 921   NORMALIZED FREE ENERGY PREDICTED BY IDOCK:   58.46 KCAL/MOL
REMARK 922        TOTAL FREE ENERGY PREDICTED BY IDOCK:   87.91 KCAL/MOL
REMARK 923 INTER-LIGAND FREE ENERGY PREDICTED BY IDOCK:   84.11 KCAL/MOL
REMARK 924 INTRA-LIGAND FREE ENERGY PREDICTED BY IDOCK:    3.81 KCAL/MOL
REMARK 927      BINDING AFFINITY PREDICTED BY RF-SCORE:    0.00 PKD
ROOT
HETATM    1  C   UNL     1      -9.985  17.700  72.008  1.00  0.00     7.148 C  
HETATM    2  N   UNL     1     -10.142  16.543  71.129  1.00  0.00     2.150 N  
HETATM    3  O   UNL     1     -10.122  17.957  69.298  1.00  0.00    -0.281 OA 
HETATM    4  C   UNL     1     -10.251  16.823  69.745  1.00  0.00     0.005 C  
ENDROOT
BRANCH   2   5
HETATM    5  C   UNL     1      -9.896  15.226  71.748  1.00  0.00     2.921 C  
BRANCH   5   6
HETATM    6  C   UNL     1     -11.087  14.387  72.208  1.00  0.00     1.804 C  
HETATM    7  H   UNL     1     -11.516  13.172  73.707  1.00  0.00     0.000 HD 
HETATM    8  O   UNL     1     -10.776  13.694  73.421  1.00  0.00     5.594 OA 
BRANCH   6   9
HETATM    9  C   UNL     1     -12.274  15.346  72.457  1.00  0.00    -0.404 C  
HETATM   10  H   UNL     1     -13.644  16.343  71.410  1.00  0.00     0.000 HD 
HETATM   11  O   UNL     1     -12.915  15.754  71.257  1.00  0.00    -0.489 OA 
ENDBRANCH   6   9
ENDBRANCH   5   6
ENDBRANCH   2   5
BRANCH   4  12
HETATM   12  C   UNL     1     -10.498  15.731  68.744  1.00  0.00    -0.228 A  
HETATM   13  C   UNL     1     -11.695  15.744  68.019  1.00  0.00    -0.110 A  
HETATM   14  C   UNL     1      -9.607  14.629  68.538  1.00  0.00    -0.221 A  
HETATM   15  C   UNL     1      -9.798  13.715  67.454  1.00  0.00    -0.234 A  
HETATM   16  I   UNL     1      -7.989  14.356  69.944  1.00  0.00     1.326 I  
HETATM   17  I   UNL     1     -13.422  16.720  68.870  1.00  0.00     9.827 I  
HETATM   18  C   UNL     1     -10.820  14.033  66.528  1.00  0.00    -0.300 A  
HETATM   19  I   UNL     1     -10.561  13.484  64.457  1.00  0.00    -0.105 I  
HETATM   20  C   UNL     1     -11.836  14.976  66.849  1.00  0.00    -0.098 A  
BRANCH  15  21
HETATM   21  C   UNL     1      -8.855  12.535  67.269  1.00  0.00    -0.195 C  
HETATM   22  O   UNL     1      -7.841  12.711  66.589  1.00  0.00     0.081 OA 
HETATM   23  N   UNL     1      -9.051  11.296  67.916  1.00  0.00    -0.146 N  
HETATM   24  C   UNL     1     -10.332  10.757  68.361  1.00  0.00    -0.180 C  
BRANCH  23  25
HETATM   25  C   UNL     1      -7.919  10.336  67.937  1.00  0.00    -0.102 C  
BRANCH  25  26
HETATM   26  C   UNL     1      -6.779  10.616  66.934  1.00  0.00    -0.091 C  
HETATM   27  H   UNL     1      -4.810  10.980  66.961  1.00  0.00     0.000 HD 
HETATM   28  O   UNL     1      -5.512  10.808  67.578  1.00  0.00    -0.043 OA 
BRANCH  26  29
HETATM   29  C   UNL     1      -6.586   9.446  65.955  1.00  0.00    -0.076 C  
HETATM   30  H   UNL     1      -6.357   9.221  64.012  1.00  0.00     0.000 HD 
HETATM   31  O   UNL     1      -6.476   9.944  64.617  1.00  0.00    -0.105 OA 
ENDBRANCH  26  29
ENDBRANCH  25  26
ENDBRANCH  23  25
ENDBRANCH  15  21
BRANCH  20  32
HETATM   32  N   UNL     1     -12.945  15.259  66.000  1.00  0.00     0.904 N  
HETATM   33  C   UNL     1     -12.915  16.280  65.058  1.00  0.00     3.296 C  
HETATM   34  H   UNL     1     -13.790  14.692  66.086  1.00  0.00     0.000 HD 
HETATM   35  H   UNL     1     -14.190  13.213  63.191  1.00  0.00     0.000 HD 
HETATM   36  H   UNL     1     -13.272  18.684  62.071  1.00  0.00     0.000 HD 
HETATM   37  C   UNL     1     -14.145  16.298  64.144  1.00  0.00     5.874 C  
HETATM   38  O   UNL     1     -11.972  17.055  64.912  1.00  0.00     0.774 OA 
HETATM   39  O   UNL     1     -13.197  17.847  62.515  1.00  0.00    16.542 OA 
HETATM   40  O   UNL     1     -14.232  13.921  63.823  1.00  0.00     5.563 OA 
HETATM   41  C   UNL     1     -14.078  15.159  63.129  1.00  0.00     7.821 C  
HETATM   42  C   UNL     1     -14.266  17.641  63.432  1.00  0.00    15.885 C  
ENDBRANCH  20  32
ENDBRANCH   4  12
TORSDOF 9
ENDMDL
