MODEL        1
REMARK 921   NORMALIZED FREE ENERGY PREDICTED BY IDOCK:   -6.24 KCAL/MOL
REMARK 922        TOTAL FREE ENERGY PREDICTED BY IDOCK:   -7.07 KCAL/MOL
REMARK 923 INTER-LIGAND FREE ENERGY PREDICTED BY IDOCK:   -6.97 KCAL/MOL
REMARK 924 INTRA-LIGAND FREE ENERGY PREDICTED BY IDOCK:   -0.10 KCAL/MOL
REMARK 927      BINDING AFFINITY PREDICTED BY RF-SCORE:    0.00 PKD
ROOT
HETATM    1  C   UNL     1     -11.515  14.776  64.758  1.00  0.00    -0.410 C  
HETATM    2  C   UNL     1     -11.157  13.309  64.936  1.00  0.00    -0.345 C  
HETATM    3  C   UNL     1     -11.294  12.784  66.382  1.00  0.00    -0.323 C  
HETATM    4  C   UNL     1     -12.064  12.472  64.059  1.00  0.00    -0.473 C  
HETATM    5  O   UNL     1     -13.275  12.406  64.205  1.00  0.00    -0.761 OA 
HETATM    6  O   UNL     1     -11.416  11.802  63.083  1.00  0.00    -0.290 OA 
ENDROOT
BRANCH   3   7
HETATM    7  N   UNL     1     -10.382  13.392  67.381  1.00  0.00    -0.239 N  
HETATM    8  C   UNL     1      -9.049  12.951  67.403  1.00  0.00    -0.197 C  
HETATM    9  O   UNL     1      -8.606  12.120  66.609  1.00  0.00    -0.185 OA 
HETATM   10  C   UNL     1      -8.108  13.603  68.395  1.00  0.00    -0.146 C  
BRANCH   7  11
HETATM   11  C   UNL     1     -11.011  13.820  68.608  1.00  0.00    -0.266 A  
HETATM   12  C   UNL     1     -11.201  15.195  68.904  1.00  0.00    -0.283 A  
HETATM   13  I   UNL     1     -10.381  16.783  67.776  1.00  0.00    -0.323 I  
HETATM   14  C   UNL     1     -11.966  15.589  70.002  1.00  0.00    -0.385 A  
HETATM   15  C   UNL     1     -12.508  14.637  70.862  1.00  0.00    -0.336 A  
HETATM   16  C   UNL     1     -12.251  13.264  70.685  1.00  0.00    -0.338 A  
HETATM   17  I   UNL     1     -13.718  15.336  72.441  1.00  0.00    -0.661 I  
HETATM   18  N   UNL     1     -12.877  12.310  71.517  1.00  0.00    -0.340 NA 
HETATM   19  C   UNL     1     -11.549  12.874  69.516  1.00  0.00    -0.282 A  
HETATM   20  H1  UNL     1     -12.691  11.315  71.388  1.00  0.00     0.000 HD 
HETATM   21  I   UNL     1     -11.405  10.778  69.154  1.00  0.00    -0.390 I  
HETATM   22  H2  UNL     1     -13.886  12.457  71.472  1.00  0.00     0.000 HD 
ENDBRANCH   7  11
ENDBRANCH   3   7
TORSDOF 2
ENDMDL
MODEL        2
REMARK 921   NORMALIZED FREE ENERGY PREDICTED BY IDOCK:   -5.65 KCAL/MOL
REMARK 922        TOTAL FREE ENERGY PREDICTED BY IDOCK:   -6.41 KCAL/MOL
REMARK 923 INTER-LIGAND FREE ENERGY PREDICTED BY IDOCK:   -6.33 KCAL/MOL
REMARK 924 INTRA-LIGAND FREE ENERGY PREDICTED BY IDOCK:   -0.09 KCAL/MOL
REMARK 927      BINDING AFFINITY PREDICTED BY RF-SCORE:    0.00 PKD
ROOT
HETATM    1  C   UNL     1     -11.388  14.622  64.714  1.00  0.00    -0.398 C  
HETATM    2  C   UNL     1     -11.130  13.140  64.939  1.00  0.00    -0.335 C  
HETATM    3  C   UNL     1     -11.360  12.660  66.389  1.00  0.00    -0.331 C  
HETATM    4  C   UNL     1     -12.051  12.340  64.043  1.00  0.00    -0.471 C  
HETATM    5  O   UNL     1     -13.269  12.352  64.139  1.00  0.00    -0.761 OA 
HETATM    6  O   UNL     1     -11.408  11.607  63.111  1.00  0.00    -0.272 OA 
ENDROOT
BRANCH   3   7
HETATM    7  N   UNL     1     -10.454  13.234  67.413  1.00  0.00    -0.242 N  
HETATM    8  C   UNL     1      -9.141  12.738  67.477  1.00  0.00    -0.193 C  
HETATM    9  O   UNL     1      -8.710  11.884  66.699  1.00  0.00    -0.192 OA 
HETATM   10  C   UNL     1      -8.203  13.355  68.494  1.00  0.00    -0.093 C  
BRANCH   7  11
HETATM   11  C   UNL     1     -11.100  13.695  68.619  1.00  0.00    -0.272 A  
HETATM   12  C   UNL     1     -11.615  12.787  69.579  1.00  0.00    -0.276 A  
HETATM   13  I   UNL     1     -11.766  10.699  69.287  1.00  0.00    -0.189 I  
HETATM   14  C   UNL     1     -12.073  13.240  70.817  1.00  0.00    -0.311 A  
HETATM   15  C   UNL     1     -12.087  14.602  71.107  1.00  0.00    -0.342 A  
HETATM   16  C   UNL     1     -11.699  15.557  70.147  1.00  0.00    -0.347 A  
HETATM   17  I   UNL     1     -12.719  15.174  73.036  1.00  0.00    -0.723 I  
HETATM   18  N   UNL     1     -11.641  16.926  70.489  1.00  0.00    -0.028 NA 
HETATM   19  C   UNL     1     -11.152  15.077  68.929  1.00  0.00    -0.266 A  
HETATM   20  H1  UNL     1     -11.360  17.617  69.793  1.00  0.00     0.000 HD 
HETATM   21  I   UNL     1     -10.343  16.546  67.613  1.00  0.00    -0.286 I  
HETATM   22  H2  UNL     1     -11.037  17.028  71.305  1.00  0.00     0.000 HD 
ENDBRANCH   7  11
ENDBRANCH   3   7
TORSDOF 2
ENDMDL
MODEL        3
REMARK 921   NORMALIZED FREE ENERGY PREDICTED BY IDOCK:   -5.57 KCAL/MOL
REMARK 922        TOTAL FREE ENERGY PREDICTED BY IDOCK:   -6.32 KCAL/MOL
REMARK 923 INTER-LIGAND FREE ENERGY PREDICTED BY IDOCK:   -6.31 KCAL/MOL
REMARK 924 INTRA-LIGAND FREE ENERGY PREDICTED BY IDOCK:   -0.02 KCAL/MOL
REMARK 927      BINDING AFFINITY PREDICTED BY RF-SCORE:    0.00 PKD
ROOT
HETATM    1  C   UNL     1     -12.439  14.036  66.111  1.00  0.00    -0.467 C  
HETATM    2  C   UNL     1     -11.601  13.006  65.369  1.00  0.00    -0.374 C  
HETATM    3  C   UNL     1     -11.299  11.723  66.173  1.00  0.00    -0.280 C  
HETATM    4  C   UNL     1     -12.332  12.594  64.110  1.00  0.00    -0.436 C  
HETATM    5  O   UNL     1     -13.410  12.019  64.109  1.00  0.00    -0.725 OA 
HETATM    6  O   UNL     1     -11.690  12.925  62.970  1.00  0.00    -0.354 OA 
ENDROOT
BRANCH   3   7
HETATM    7  N   UNL     1     -10.468  11.900  67.388  1.00  0.00    -0.213 N  
HETATM    8  C   UNL     1      -9.086  12.084  67.215  1.00  0.00    -0.178 C  
HETATM    9  O   UNL     1      -8.554  12.142  66.105  1.00  0.00    -0.008 OA 
HETATM   10  C   UNL     1      -8.244  12.308  68.453  1.00  0.00    -0.146 C  
BRANCH   7  11
HETATM   11  C   UNL     1     -10.953  11.228  68.570  1.00  0.00    -0.220 A  
HETATM   12  C   UNL     1     -11.665  11.925  69.580  1.00  0.00    -0.343 A  
HETATM   13  I   UNL     1     -11.883  14.026  69.654  1.00  0.00    -0.390 I  
HETATM   14  C   UNL     1     -12.281  11.235  70.625  1.00  0.00    -0.489 A  
HETATM   15  C   UNL     1     -12.158   9.851  70.725  1.00  0.00    -0.308 A  
HETATM   16  C   UNL     1     -11.364   9.123  69.819  1.00  0.00     0.030 A  
HETATM   17  I   UNL     1     -13.198   8.898  72.292  1.00  0.00    -0.421 I  
HETATM   18  N   UNL     1     -11.318   7.712  69.887  1.00  0.00    -0.458 NA 
HETATM   19  C   UNL     1     -10.819   9.825  68.713  1.00  0.00    -0.188 A  
HETATM   20  H1  UNL     1     -10.743   7.185  69.230  1.00  0.00     0.000 HD 
HETATM   21  I   UNL     1      -9.842   8.643  67.231  1.00  0.00    -0.339 I  
HETATM   22  H2  UNL     1     -12.273   7.357  69.836  1.00  0.00     0.000 HD 
ENDBRANCH   7  11
ENDBRANCH   3   7
TORSDOF 2
ENDMDL
MODEL        4
REMARK 921   NORMALIZED FREE ENERGY PREDICTED BY IDOCK:   -5.46 KCAL/MOL
REMARK 922        TOTAL FREE ENERGY PREDICTED BY IDOCK:   -6.20 KCAL/MOL
REMARK 923 INTER-LIGAND FREE ENERGY PREDICTED BY IDOCK:   -6.12 KCAL/MOL
REMARK 924 INTRA-LIGAND FREE ENERGY PREDICTED BY IDOCK:   -0.08 KCAL/MOL
REMARK 927      BINDING AFFINITY PREDICTED BY RF-SCORE:    0.00 PKD
ROOT
HETATM    1  C   UNL     1     -10.829  14.313  64.465  1.00  0.00    -0.305 C  
HETATM    2  C   UNL     1     -10.184  12.949  64.654  1.00  0.00    -0.321 C  
HETATM    3  C   UNL     1     -10.473  12.283  66.017  1.00  0.00    -0.254 C  
HETATM    4  C   UNL     1     -10.687  12.015  63.574  1.00  0.00    -0.455 C  
HETATM    5  O   UNL     1     -11.854  11.674  63.462  1.00  0.00    -0.431 OA 
HETATM    6  O   UNL     1      -9.726  11.589  62.728  1.00  0.00    -0.340 OA 
ENDROOT
BRANCH   3   7
HETATM    7  N   UNL     1      -9.937  12.985  67.208  1.00  0.00    -0.229 N  
HETATM    8  C   UNL     1      -8.576  12.812  67.513  1.00  0.00    -0.187 C  
HETATM    9  O   UNL     1      -7.816  12.139  66.814  1.00  0.00    -0.109 OA 
HETATM   10  C   UNL     1      -8.020  13.563  68.703  1.00  0.00    -0.073 C  
BRANCH   7  11
HETATM   11  C   UNL     1     -10.884  13.198  68.276  1.00  0.00    -0.253 A  
HETATM   12  C   UNL     1     -11.317  12.133  69.107  1.00  0.00    -0.276 A  
HETATM   13  I   UNL     1     -10.881  10.094  68.758  1.00  0.00    -0.235 I  
HETATM   14  C   UNL     1     -12.089  12.381  70.242  1.00  0.00    -0.377 A  
HETATM   15  C   UNL     1     -12.498  13.677  70.547  1.00  0.00    -0.324 A  
HETATM   16  C   UNL     1     -12.198  14.756  69.693  1.00  0.00    -0.270 A  
HETATM   17  I   UNL     1     -13.589  13.955  72.329  1.00  0.00    -0.678 I  
HETATM   18  N   UNL     1     -12.549  16.074  70.061  1.00  0.00    -0.558 NA 
HETATM   19  C   UNL     1     -11.338  14.502  68.593  1.00  0.00    -0.276 A  
HETATM   20  H1  UNL     1     -12.331  16.855  69.442  1.00  0.00     0.000 HD 
HETATM   21  I   UNL     1     -10.703  16.204  67.478  1.00  0.00    -0.172 I  
HETATM   22  H2  UNL     1     -12.147  16.269  70.978  1.00  0.00     0.000 HD 
ENDBRANCH   7  11
ENDBRANCH   3   7
TORSDOF 2
ENDMDL
MODEL        5
REMARK 921   NORMALIZED FREE ENERGY PREDICTED BY IDOCK:   -5.37 KCAL/MOL
REMARK 922        TOTAL FREE ENERGY PREDICTED BY IDOCK:   -6.09 KCAL/MOL
REMARK 923 INTER-LIGAND FREE ENERGY PREDICTED BY IDOCK:   -6.02 KCAL/MOL
REMARK 924 INTRA-LIGAND FREE ENERGY PREDICTED BY IDOCK:   -0.08 KCAL/MOL
REMARK 927      BINDING AFFINITY PREDICTED BY RF-SCORE:    0.00 PKD
ROOT
HETATM    1  C   UNL     1      -7.483  13.474  67.639  1.00  0.00    -0.187 C  
HETATM    2  C   UNL     1      -8.164  14.783  68.009  1.00  0.00    -0.142 C  
HETATM    3  C   UNL     1      -9.475  14.623  68.808  1.00  0.00    -0.199 C  
HETATM    4  C   UNL     1      -7.215  15.609  68.851  1.00  0.00    -0.146 C  
HETATM    5  O   UNL     1      -6.815  15.268  69.954  1.00  0.00    -0.177 OA 
HETATM    6  O   UNL     1      -6.834  16.766  68.271  1.00  0.00    -0.147 OA 
ENDROOT
BRANCH   3   7
HETATM    7  N   UNL     1     -10.589  13.949  68.098  1.00  0.00    -0.246 N  
HETATM    8  C   UNL     1     -11.297  14.691  67.138  1.00  0.00    -0.356 C  
HETATM    9  O   UNL     1     -11.005  15.851  66.841  1.00  0.00    -0.283 OA 
HETATM   10  C   UNL     1     -12.406  13.989  66.382  1.00  0.00    -0.468 C  
BRANCH   7  11
HETATM   11  C   UNL     1     -11.273  12.927  68.854  1.00  0.00    -0.279 A  
HETATM   12  C   UNL     1     -11.130  11.551  68.540  1.00  0.00    -0.236 A  
HETATM   13  I   UNL     1     -10.157  10.815  66.815  1.00  0.00    -0.301 I  
HETATM   14  C   UNL     1     -11.650  10.569  69.384  1.00  0.00    -0.318 A  
HETATM   15  C   UNL     1     -12.370  10.926  70.521  1.00  0.00    -0.374 A  
HETATM   16  C   UNL     1     -12.644  12.275  70.817  1.00  0.00    -0.213 A  
HETATM   17  I   UNL     1     -13.038   9.366  71.773  1.00  0.00    -0.575 I  
HETATM   18  N   UNL     1     -13.304  12.620  72.018  1.00  0.00    -0.504 NA 
HETATM   19  C   UNL     1     -12.035  13.262  70.001  1.00  0.00    -0.329 A  
HETATM   20  H1  UNL     1     -13.503  13.598  72.232  1.00  0.00     0.000 HD 
HETATM   21  I   UNL     1     -12.265  15.285  70.634  1.00  0.00    -0.537 I  
HETATM   22  H2  UNL     1     -12.782  12.220  72.798  1.00  0.00     0.000 HD 
ENDBRANCH   7  11
ENDBRANCH   3   7
TORSDOF 2
ENDMDL
MODEL        6
REMARK 921   NORMALIZED FREE ENERGY PREDICTED BY IDOCK:   -5.32 KCAL/MOL
REMARK 922        TOTAL FREE ENERGY PREDICTED BY IDOCK:   -6.04 KCAL/MOL
REMARK 923 INTER-LIGAND FREE ENERGY PREDICTED BY IDOCK:   -6.08 KCAL/MOL
REMARK 924 INTRA-LIGAND FREE ENERGY PREDICTED BY IDOCK:    0.04 KCAL/MOL
REMARK 927      BINDING AFFINITY PREDICTED BY RF-SCORE:    0.00 PKD
ROOT
HETATM    1  C   UNL     1     -11.071  15.740  64.727  1.00  0.00    -0.413 C  
HETATM    2  C   UNL     1     -10.618  15.837  66.175  1.00  0.00    -0.318 C  
HETATM    3  C   UNL     1      -9.715  14.676  66.646  1.00  0.00    -0.270 C  
HETATM    4  C   UNL     1      -9.840  17.123  66.361  1.00  0.00    -0.300 C  
HETATM    5  O   UNL     1      -8.782  17.363  65.800  1.00  0.00    -0.522 OA 
HETATM    6  O   UNL     1     -10.425  17.999  67.205  1.00  0.00    -0.367 OA 
ENDROOT
BRANCH   3   7
HETATM    7  N   UNL     1     -10.344  13.333  66.666  1.00  0.00    -0.270 N  
HETATM    8  C   UNL     1     -11.079  12.971  67.807  1.00  0.00    -0.262 C  
HETATM    9  O   UNL     1     -11.250  13.733  68.761  1.00  0.00    -0.244 OA 
HETATM   10  C   UNL     1     -11.757  11.617  67.808  1.00  0.00    -0.315 C  
BRANCH   7  11
HETATM   11  C   UNL     1      -9.647  12.315  65.916  1.00  0.00    -0.198 A  
HETATM   12  C   UNL     1      -8.482  11.685  66.424  1.00  0.00    -0.114 A  
HETATM   13  I   UNL     1      -7.456  12.301  68.166  1.00  0.00    -0.145 I  
HETATM   14  C   UNL     1      -7.925  10.583  65.774  1.00  0.00    -0.158 A  
HETATM   15  C   UNL     1      -8.470  10.120  64.579  1.00  0.00    -0.177 A  
HETATM   16  C   UNL     1      -9.553  10.780  63.967  1.00  0.00    -0.291 A  
HETATM   17  I   UNL     1      -7.605   8.398  63.723  1.00  0.00    -0.155 I  
HETATM   18  N   UNL     1     -10.145  10.247  62.801  1.00  0.00    -0.599 NA 
HETATM   19  C   UNL     1     -10.164  11.841  64.684  1.00  0.00    -0.284 A  
HETATM   20  H1  UNL     1     -10.929  10.726  62.358  1.00  0.00     0.000 HD 
HETATM   21  I   UNL     1     -11.952  12.643  63.845  1.00  0.00    -0.671 I  
HETATM   22  H2  UNL     1     -10.423   9.284  62.994  1.00  0.00     0.000 HD 
ENDBRANCH   7  11
ENDBRANCH   3   7
TORSDOF 2
ENDMDL
MODEL        7
REMARK 921   NORMALIZED FREE ENERGY PREDICTED BY IDOCK:   -5.31 KCAL/MOL
REMARK 922        TOTAL FREE ENERGY PREDICTED BY IDOCK:   -6.03 KCAL/MOL
REMARK 923 INTER-LIGAND FREE ENERGY PREDICTED BY IDOCK:   -5.98 KCAL/MOL
REMARK 924 INTRA-LIGAND FREE ENERGY PREDICTED BY IDOCK:   -0.04 KCAL/MOL
REMARK 927      BINDING AFFINITY PREDICTED BY RF-SCORE:    0.00 PKD
ROOT
HETATM    1  C   UNL     1     -12.289  13.152  70.726  1.00  0.00    -0.404 C  
HETATM    2  C   UNL     1     -11.605  14.503  70.864  1.00  0.00    -0.243 C  
HETATM    3  C   UNL     1     -11.127  15.122  69.532  1.00  0.00    -0.277 C  
HETATM    4  C   UNL     1     -12.571  15.480  71.500  1.00  0.00    -0.418 C  
HETATM    5  O   UNL     1     -13.618  15.834  70.980  1.00  0.00    -0.568 OA 
HETATM    6  O   UNL     1     -12.179  15.929  72.711  1.00  0.00    -0.410 OA 
ENDROOT
BRANCH   3   7
HETATM    7  N   UNL     1     -10.068  14.373  68.813  1.00  0.00    -0.239 N  
HETATM    8  C   UNL     1      -8.733  14.749  69.036  1.00  0.00    -0.139 C  
HETATM    9  O   UNL     1      -8.414  15.639  69.827  1.00  0.00    -0.170 OA 
HETATM   10  C   UNL     1      -7.651  13.956  68.335  1.00  0.00    -0.130 C  
BRANCH   7  11
HETATM   11  C   UNL     1     -10.453  13.847  67.525  1.00  0.00    -0.248 A  
HETATM   12  C   UNL     1     -10.730  12.468  67.339  1.00  0.00    -0.229 A  
HETATM   13  I   UNL     1     -10.371  10.973  68.789  1.00  0.00    -0.229 I  
HETATM   14  C   UNL     1     -11.272  12.004  66.140  1.00  0.00    -0.394 A  
HETATM   15  C   UNL     1     -11.495  12.881  65.081  1.00  0.00    -0.313 A  
HETATM   16  C   UNL     1     -11.127  14.237  65.168  1.00  0.00    -0.352 A  
HETATM   17  I   UNL     1     -12.395  12.093  63.345  1.00  0.00    -0.060 I  
HETATM   18  N   UNL     1     -11.438  15.127  64.116  1.00  0.00    -0.671 NA 
HETATM   19  C   UNL     1     -10.663  14.712  66.422  1.00  0.00    -0.309 A  
HETATM   20  H1  UNL     1     -11.171  16.110  64.179  1.00  0.00     0.000 HD 
HETATM   21  I   UNL     1     -10.362  16.816  66.584  1.00  0.00    -0.182 I  
HETATM   22  H2  UNL     1     -12.441  15.077  63.938  1.00  0.00     0.000 HD 
ENDBRANCH   7  11
ENDBRANCH   3   7
TORSDOF 2
ENDMDL
MODEL        8
REMARK 921   NORMALIZED FREE ENERGY PREDICTED BY IDOCK:   -5.24 KCAL/MOL
REMARK 922        TOTAL FREE ENERGY PREDICTED BY IDOCK:   -5.95 KCAL/MOL
REMARK 923 INTER-LIGAND FREE ENERGY PREDICTED BY IDOCK:   -5.93 KCAL/MOL
REMARK 924 INTRA-LIGAND FREE ENERGY PREDICTED BY IDOCK:   -0.01 KCAL/MOL
REMARK 927      BINDING AFFINITY PREDICTED BY RF-SCORE:    0.00 PKD
ROOT
HETATM    1  C   UNL     1      -7.287  13.053  67.521  1.00  0.00    -0.154 C  
HETATM    2  C   UNL     1      -7.867  14.428  67.228  1.00  0.00    -0.188 C  
HETATM    3  C   UNL     1      -9.222  14.714  67.913  1.00  0.00    -0.197 C  
HETATM    4  C   UNL     1      -6.888  15.483  67.697  1.00  0.00    -0.181 C  
HETATM    5  O   UNL     1      -6.569  15.641  68.866  1.00  0.00    -0.108 OA 
HETATM    6  O   UNL     1      -6.383  16.242  66.702  1.00  0.00    -0.281 OA 
ENDROOT
BRANCH   3   7
HETATM    7  N   UNL     1     -10.358  13.862  67.483  1.00  0.00    -0.244 N  
HETATM    8  C   UNL     1     -11.236  14.382  66.517  1.00  0.00    -0.340 C  
HETATM    9  O   UNL     1     -11.077  15.486  65.994  1.00  0.00    -0.289 OA 
HETATM   10  C   UNL     1     -12.370  13.495  66.047  1.00  0.00    -0.486 C  
BRANCH   7  11
HETATM   11  C   UNL     1     -10.859  12.952  68.485  1.00  0.00    -0.257 A  
HETATM   12  C   UNL     1     -11.576  13.416  69.617  1.00  0.00    -0.268 A  
HETATM   13  I   UNL     1     -11.781  15.451  70.149  1.00  0.00    -0.468 I  
HETATM   14  C   UNL     1     -12.207  12.518  70.480  1.00  0.00    -0.382 A  
HETATM   15  C   UNL     1     -12.092  11.146  70.275  1.00  0.00    -0.377 A  
HETATM   16  C   UNL     1     -11.294  10.627  69.237  1.00  0.00    -0.282 A  
HETATM   17  I   UNL     1     -13.153   9.879  71.585  1.00  0.00    -0.522 I  
HETATM   18  N   UNL     1     -11.258   9.236  68.995  1.00  0.00    -0.442 NA 
HETATM   19  C   UNL     1     -10.734  11.550  68.317  1.00  0.00    -0.211 A  
HETATM   20  H1  UNL     1     -10.680   8.860  68.242  1.00  0.00     0.000 HD 
HETATM   21  I   UNL     1      -9.751  10.715  66.620  1.00  0.00    -0.256 I  
HETATM   22  H2  UNL     1     -12.215   8.908  68.858  1.00  0.00     0.000 HD 
ENDBRANCH   7  11
ENDBRANCH   3   7
TORSDOF 2
ENDMDL
MODEL        9
REMARK 921   NORMALIZED FREE ENERGY PREDICTED BY IDOCK:   -5.08 KCAL/MOL
REMARK 922        TOTAL FREE ENERGY PREDICTED BY IDOCK:   -5.77 KCAL/MOL
REMARK 923 INTER-LIGAND FREE ENERGY PREDICTED BY IDOCK:   -5.70 KCAL/MOL
REMARK 924 INTRA-LIGAND FREE ENERGY PREDICTED BY IDOCK:   -0.07 KCAL/MOL
REMARK 927      BINDING AFFINITY PREDICTED BY RF-SCORE:    0.00 PKD
ROOT
HETATM    1  C   UNL     1     -12.122  13.928  66.451  1.00  0.00    -0.489 C  
HETATM    2  C   UNL     1     -11.412  12.867  65.625  1.00  0.00    -0.368 C  
HETATM    3  C   UNL     1     -11.280  11.493  66.318  1.00  0.00    -0.222 C  
HETATM    4  C   UNL     1     -12.178  12.655  64.336  1.00  0.00    -0.443 C  
HETATM    5  O   UNL     1     -13.319  12.221  64.289  1.00  0.00    -0.777 OA 
HETATM    6  O   UNL     1     -11.489  12.997  63.228  1.00  0.00    -0.383 OA 
ENDROOT
BRANCH   3   7
HETATM    7  N   UNL     1     -10.443  11.463  67.543  1.00  0.00    -0.195 N  
HETATM    8  C   UNL     1      -9.100  11.857  67.427  1.00  0.00    -0.178 C  
HETATM    9  O   UNL     1      -8.609  12.257  66.370  1.00  0.00    -0.102 OA 
HETATM   10  C   UNL     1      -8.259  11.867  68.686  1.00  0.00    -0.072 C  
BRANCH   7  11
HETATM   11  C   UNL     1     -10.811  10.461  68.515  1.00  0.00    -0.237 A  
HETATM   12  C   UNL     1     -10.406   9.109  68.377  1.00  0.00    -0.206 A  
HETATM   13  I   UNL     1      -9.475   8.311  66.655  1.00  0.00    -0.299 I  
HETATM   14  C   UNL     1     -10.614   8.192  69.409  1.00  0.00    -0.206 A  
HETATM   15  C   UNL     1     -11.276   8.579  70.571  1.00  0.00    -0.242 A  
HETATM   16  C   UNL     1     -11.804   9.876  70.713  1.00  0.00    -0.330 A  
HETATM   17  I   UNL     1     -11.462   7.141  72.102  1.00  0.00    -0.326 I  
HETATM   18  N   UNL     1     -12.399  10.273  71.932  1.00  0.00    -0.263 NA 
HETATM   19  C   UNL     1     -11.508  10.820  69.696  1.00  0.00    -0.305 A  
HETATM   20  H1  UNL     1     -12.781  11.214  72.034  1.00  0.00     0.000 HD 
HETATM   21  I   UNL     1     -12.104  12.832  70.070  1.00  0.00    -0.054 I  
HETATM   22  H2  UNL     1     -11.727  10.116  72.683  1.00  0.00     0.000 HD 
ENDBRANCH   7  11
ENDBRANCH   3   7
TORSDOF 2
ENDMDL
MODEL       10
REMARK 921   NORMALIZED FREE ENERGY PREDICTED BY IDOCK:   -5.07 KCAL/MOL
REMARK 922        TOTAL FREE ENERGY PREDICTED BY IDOCK:   -5.76 KCAL/MOL
REMARK 923 INTER-LIGAND FREE ENERGY PREDICTED BY IDOCK:   -5.92 KCAL/MOL
REMARK 924 INTRA-LIGAND FREE ENERGY PREDICTED BY IDOCK:    0.16 KCAL/MOL
REMARK 927      BINDING AFFINITY PREDICTED BY RF-SCORE:    0.00 PKD
ROOT
HETATM    1  C   UNL     1     -11.940  13.467  69.743  1.00  0.00    -0.405 C  
HETATM    2  C   UNL     1     -11.065  14.496  70.442  1.00  0.00    -0.037 C  
HETATM    3  C   UNL     1     -10.303  15.445  69.492  1.00  0.00    -0.266 C  
HETATM    4  C   UNL     1     -11.934  15.351  71.340  1.00  0.00    -0.378 C  
HETATM    5  O   UNL     1     -12.821  16.084  70.927  1.00  0.00    -0.393 OA 
HETATM    6  O   UNL     1     -11.651  15.230  72.653  1.00  0.00    -0.449 OA 
ENDROOT
BRANCH   3   7
HETATM    7  N   UNL     1      -9.293  14.808  68.612  1.00  0.00    -0.195 N  
HETATM    8  C   UNL     1      -7.979  15.302  68.660  1.00  0.00    -0.149 C  
HETATM    9  O   UNL     1      -7.632  16.205  69.423  1.00  0.00    -0.234 OA 
HETATM   10  C   UNL     1      -6.939  14.623  67.794  1.00  0.00    -0.194 C  
BRANCH   7  11
HETATM   11  C   UNL     1      -9.806  14.268  67.375  1.00  0.00    -0.235 A  
HETATM   12  C   UNL     1      -9.915  12.869  67.165  1.00  0.00    -0.240 A  
HETATM   13  I   UNL     1      -9.118  11.402  68.461  1.00  0.00    -0.043 I  
HETATM   14  C   UNL     1     -10.575  12.365  66.043  1.00  0.00    -0.286 A  
HETATM   15  C   UNL     1     -11.088  13.230  65.080  1.00  0.00    -0.297 A  
HETATM   16  C   UNL     1     -10.905  14.623  65.178  1.00  0.00    -0.401 A  
HETATM   17  I   UNL     1     -12.141  12.369  63.469  1.00  0.00    -0.454 I  
HETATM   18  N   UNL     1     -11.504  15.487  64.236  1.00  0.00    -0.737 NA 
HETATM   19  C   UNL     1     -10.312  15.124  66.365  1.00  0.00    -0.286 A  
HETATM   20  H1  UNL     1     -11.371  16.497  64.307  1.00  0.00     0.000 HD 
HETATM   21  I   UNL     1     -10.285  17.244  66.587  1.00  0.00    -0.244 I  
HETATM   22  H2  UNL     1     -12.506  15.296  64.216  1.00  0.00     0.000 HD 
ENDBRANCH   7  11
ENDBRANCH   3   7
TORSDOF 2
ENDMDL
MODEL       11
REMARK 921   NORMALIZED FREE ENERGY PREDICTED BY IDOCK:   -5.07 KCAL/MOL
REMARK 922        TOTAL FREE ENERGY PREDICTED BY IDOCK:   -5.76 KCAL/MOL
REMARK 923 INTER-LIGAND FREE ENERGY PREDICTED BY IDOCK:   -5.88 KCAL/MOL
REMARK 924 INTRA-LIGAND FREE ENERGY PREDICTED BY IDOCK:    0.12 KCAL/MOL
REMARK 927      BINDING AFFINITY PREDICTED BY RF-SCORE:    0.00 PKD
ROOT
HETATM    1  C   UNL     1     -10.192  12.878  64.599  1.00  0.00    -0.321 C  
HETATM    2  C   UNL     1     -11.472  12.319  65.204  1.00  0.00    -0.390 C  
HETATM    3  C   UNL     1     -11.663  12.629  66.704  1.00  0.00    -0.398 C  
HETATM    4  C   UNL     1     -12.658  12.900  64.464  1.00  0.00    -0.350 C  
HETATM    5  O   UNL     1     -12.937  14.089  64.457  1.00  0.00    -0.586 OA 
HETATM    6  O   UNL     1     -13.388  11.983  63.795  1.00  0.00    -0.681 OA 
ENDROOT
BRANCH   3   7
HETATM    7  N   UNL     1     -10.665  12.028  67.622  1.00  0.00    -0.211 N  
HETATM    8  C   UNL     1     -11.136  11.170  68.630  1.00  0.00    -0.239 C  
HETATM    9  O   UNL     1     -12.325  10.872  68.752  1.00  0.00    -0.495 OA 
HETATM   10  C   UNL     1     -10.112  10.523  69.539  1.00  0.00    -0.208 C  
BRANCH   7  11
HETATM   11  C   UNL     1      -9.488  12.829  67.862  1.00  0.00    -0.208 A  
HETATM   12  C   UNL     1      -8.210  12.428  67.394  1.00  0.00    -0.180 A  
HETATM   13  I   UNL     1      -7.787  10.538  66.548  1.00  0.00    -0.148 I  
HETATM   14  C   UNL     1      -7.117  13.292  67.475  1.00  0.00    -0.156 A  
HETATM   15  C   UNL     1      -7.251  14.543  68.072  1.00  0.00    -0.142 A  
HETATM   16  C   UNL     1      -8.466  14.945  68.659  1.00  0.00    -0.166 A  
HETATM   17  I   UNL     1      -5.560  15.804  68.066  1.00  0.00    -0.150 I  
HETATM   18  N   UNL     1      -8.605  16.249  69.185  1.00  0.00    -0.241 NA 
HETATM   19  C   UNL     1      -9.589  14.095  68.490  1.00  0.00    -0.214 A  
HETATM   20  H1  UNL     1      -9.486  16.540  69.611  1.00  0.00     0.000 HD 
HETATM   21  I   UNL     1     -11.461  14.856  69.169  1.00  0.00    -0.398 I  
HETATM   22  H2  UNL     1      -8.366  16.918  68.452  1.00  0.00     0.000 HD 
ENDBRANCH   7  11
ENDBRANCH   3   7
TORSDOF 2
ENDMDL
MODEL       12
REMARK 921   NORMALIZED FREE ENERGY PREDICTED BY IDOCK:   -5.06 KCAL/MOL
REMARK 922        TOTAL FREE ENERGY PREDICTED BY IDOCK:   -5.75 KCAL/MOL
REMARK 923 INTER-LIGAND FREE ENERGY PREDICTED BY IDOCK:   -5.75 KCAL/MOL
REMARK 924 INTRA-LIGAND FREE ENERGY PREDICTED BY IDOCK:    0.00 KCAL/MOL
REMARK 927      BINDING AFFINITY PREDICTED BY RF-SCORE:    0.00 PKD
ROOT
HETATM    1  C   UNL     1     -11.990  13.955  67.945  1.00  0.00    -0.393 C  
HETATM    2  C   UNL     1     -11.337  13.677  66.600  1.00  0.00    -0.343 C  
HETATM    3  C   UNL     1     -11.062  12.184  66.314  1.00  0.00    -0.310 C  
HETATM    4  C   UNL     1     -12.241  14.192  65.500  1.00  0.00    -0.432 C  
HETATM    5  O   UNL     1     -13.359  13.751  65.279  1.00  0.00    -0.710 OA 
HETATM    6  O   UNL     1     -11.706  15.198  64.777  1.00  0.00    -0.384 OA 
ENDROOT
BRANCH   3   7
HETATM    7  N   UNL     1     -10.084  11.522  67.212  1.00  0.00    -0.197 N  
HETATM    8  C   UNL     1      -8.836  12.142  67.392  1.00  0.00    -0.181 C  
HETATM    9  O   UNL     1      -8.544  13.219  66.869  1.00  0.00    -0.191 OA 
HETATM   10  C   UNL     1      -7.856  11.489  68.343  1.00  0.00    -0.136 C  
BRANCH   7  11
HETATM   11  C   UNL     1     -10.180  10.083  67.273  1.00  0.00    -0.222 A  
HETATM   12  C   UNL     1      -9.651   9.260  66.246  1.00  0.00    -0.248 A  
HETATM   13  I   UNL     1      -8.916   9.980  64.399  1.00  0.00    -0.324 I  
HETATM   14  C   UNL     1      -9.590   7.875  66.401  1.00  0.00    -0.251 A  
HETATM   15  C   UNL     1     -10.103   7.271  67.546  1.00  0.00    -0.193 A  
HETATM   16  C   UNL     1     -10.746   8.028  68.544  1.00  0.00    -0.018 A  
HETATM   17  I   UNL     1      -9.884   5.181  67.719  1.00  0.00    -0.176 I  
HETATM   18  N   UNL     1     -11.184   7.409  69.736  1.00  0.00    -0.445 NA 
HETATM   19  C   UNL     1     -10.720   9.440  68.414  1.00  0.00    -0.168 A  
HETATM   20  H1  UNL     1     -11.650   7.958  70.459  1.00  0.00     0.000 HD 
HETATM   21  I   UNL     1     -11.475  10.556  70.067  1.00  0.00    -0.427 I  
HETATM   22  H2  UNL     1     -10.390   6.928  70.159  1.00  0.00     0.000 HD 
ENDBRANCH   7  11
ENDBRANCH   3   7
TORSDOF 2
ENDMDL
MODEL       13
REMARK 921   NORMALIZED FREE ENERGY PREDICTED BY IDOCK:   -4.97 KCAL/MOL
REMARK 922        TOTAL FREE ENERGY PREDICTED BY IDOCK:   -5.65 KCAL/MOL
REMARK 923 INTER-LIGAND FREE ENERGY PREDICTED BY IDOCK:   -5.56 KCAL/MOL
REMARK 924 INTRA-LIGAND FREE ENERGY PREDICTED BY IDOCK:   -0.09 KCAL/MOL
REMARK 927      BINDING AFFINITY PREDICTED BY RF-SCORE:    0.00 PKD
ROOT
HETATM    1  C   UNL     1     -10.987  15.797  64.952  1.00  0.00    -0.443 C  
HETATM    2  C   UNL     1     -10.336  15.782  66.326  1.00  0.00    -0.320 C  
HETATM    3  C   UNL     1      -9.557  14.490  66.655  1.00  0.00    -0.276 C  
HETATM    4  C   UNL     1      -9.362  16.938  66.421  1.00  0.00    -0.276 C  
HETATM    5  O   UNL     1      -8.365  17.043  65.724  1.00  0.00    -0.500 OA 
HETATM    6  O   UNL     1      -9.696  17.860  67.347  1.00  0.00    -0.276 OA 
ENDROOT
BRANCH   3   7
HETATM    7  N   UNL     1     -10.365  13.250  66.743  1.00  0.00    -0.255 N  
HETATM    8  C   UNL     1     -11.031  12.987  67.952  1.00  0.00    -0.241 C  
HETATM    9  O   UNL     1     -10.999  13.758  68.913  1.00  0.00    -0.244 OA 
HETATM   10  C   UNL     1     -11.892  11.744  68.027  1.00  0.00    -0.304 C  
BRANCH   7  11
HETATM   11  C   UNL     1      -9.896  12.149  65.935  1.00  0.00    -0.247 A  
HETATM   12  C   UNL     1     -10.542  11.789  64.725  1.00  0.00    -0.301 A  
HETATM   13  I   UNL     1     -12.386  12.589  64.072  1.00  0.00    -0.495 I  
HETATM   14  C   UNL     1      -9.976  10.844  63.868  1.00  0.00    -0.400 A  
HETATM   15  C   UNL     1      -8.794  10.196  64.215  1.00  0.00    -0.222 A  
HETATM   16  C   UNL     1      -8.174  10.427  65.458  1.00  0.00    -0.162 A  
HETATM   17  I   UNL     1      -7.979   8.850  62.812  1.00  0.00    -0.170 I  
HETATM   18  N   UNL     1      -6.933   9.823  65.757  1.00  0.00    -0.098 NA 
HETATM   19  C   UNL     1      -8.711  11.453  66.278  1.00  0.00    -0.173 A  
HETATM   20  H1  UNL     1      -6.483   9.991  66.658  1.00  0.00     0.000 HD 
HETATM   21  I   UNL     1      -7.595  11.946  68.027  1.00  0.00    -0.157 I  
HETATM   22  H2  UNL     1      -6.272  10.064  65.019  1.00  0.00     0.000 HD 
ENDBRANCH   7  11
ENDBRANCH   3   7
TORSDOF 2
ENDMDL
MODEL       14
REMARK 921   NORMALIZED FREE ENERGY PREDICTED BY IDOCK:   -4.92 KCAL/MOL
REMARK 922        TOTAL FREE ENERGY PREDICTED BY IDOCK:   -5.59 KCAL/MOL
REMARK 923 INTER-LIGAND FREE ENERGY PREDICTED BY IDOCK:   -5.64 KCAL/MOL
REMARK 924 INTRA-LIGAND FREE ENERGY PREDICTED BY IDOCK:    0.05 KCAL/MOL
REMARK 927      BINDING AFFINITY PREDICTED BY RF-SCORE:    0.00 PKD
ROOT
HETATM    1  C   UNL     1     -11.067   6.117  69.063  1.00  0.00    -0.437 C  
HETATM    2  C   UNL     1     -10.928   6.935  70.337  1.00  0.00    -0.315 C  
HETATM    3  C   UNL     1     -10.921   8.464  70.123  1.00  0.00    -0.215 C  
HETATM    4  C   UNL     1     -12.085   6.610  71.258  1.00  0.00    -0.341 C  
HETATM    5  O   UNL     1     -13.253   6.847  70.989  1.00  0.00    -0.234 OA 
HETATM    6  O   UNL     1     -11.716   6.019  72.413  1.00  0.00    -0.309 OA 
ENDROOT
BRANCH   3   7
HETATM    7  N   UNL     1      -9.778   9.005  69.349  1.00  0.00    -0.166 N  
HETATM    8  C   UNL     1      -8.667   9.479  70.066  1.00  0.00    -0.221 C  
HETATM    9  O   UNL     1      -8.593   9.426  71.295  1.00  0.00    -0.299 OA 
HETATM   10  C   UNL     1      -7.482   9.990  69.274  1.00  0.00    -0.103 C  
BRANCH   7  11
HETATM   11  C   UNL     1     -10.122   9.614  68.086  1.00  0.00    -0.175 A  
HETATM   12  C   UNL     1     -10.882  10.810  68.021  1.00  0.00    -0.255 A  
HETATM   13  I   UNL     1     -11.836  11.709  69.679  1.00  0.00    -0.361 I  
HETATM   14  C   UNL     1     -11.055  11.482  66.810  1.00  0.00    -0.361 A  
HETATM   15  C   UNL     1     -10.529  10.957  65.632  1.00  0.00    -0.208 A  
HETATM   16  C   UNL     1      -9.868   9.714  65.619  1.00  0.00    -0.299 A  
HETATM   17  I   UNL     1     -10.772  12.094  63.873  1.00  0.00    -0.585 I  
HETATM   18  N   UNL     1      -9.271   9.238  64.430  1.00  0.00    -0.433 NA 
HETATM   19  C   UNL     1      -9.624   9.088  66.868  1.00  0.00    -0.185 A  
HETATM   20  H1  UNL     1      -8.792   8.337  64.421  1.00  0.00     0.000 HD 
HETATM   21  I   UNL     1      -8.400   7.342  66.827  1.00  0.00    -0.137 I  
HETATM   22  H2  UNL     1      -8.624   9.950  64.089  1.00  0.00     0.000 HD 
ENDBRANCH   7  11
ENDBRANCH   3   7
TORSDOF 2
ENDMDL
MODEL       15
REMARK 921   NORMALIZED FREE ENERGY PREDICTED BY IDOCK:   -4.88 KCAL/MOL
REMARK 922        TOTAL FREE ENERGY PREDICTED BY IDOCK:   -5.54 KCAL/MOL
REMARK 923 INTER-LIGAND FREE ENERGY PREDICTED BY IDOCK:   -5.64 KCAL/MOL
REMARK 924 INTRA-LIGAND FREE ENERGY PREDICTED BY IDOCK:    0.10 KCAL/MOL
REMARK 927      BINDING AFFINITY PREDICTED BY RF-SCORE:    0.00 PKD
ROOT
HETATM    1  C   UNL     1     -10.759  15.354  70.325  1.00  0.00    -0.320 C  
HETATM    2  C   UNL     1     -12.081  15.005  69.659  1.00  0.00    -0.337 C  
HETATM    3  C   UNL     1     -12.009  13.825  68.665  1.00  0.00    -0.366 C  
HETATM    4  C   UNL     1     -13.088  14.639  70.728  1.00  0.00    -0.323 C  
HETATM    5  O   UNL     1     -12.971  13.674  71.468  1.00  0.00    -0.340 OA 
HETATM    6  O   UNL     1     -14.137  15.484  70.804  1.00  0.00    -0.378 OA 
ENDROOT
BRANCH   3   7
HETATM    7  N   UNL     1     -11.167  14.040  67.463  1.00  0.00    -0.298 N  
HETATM    8  C   UNL     1     -11.800  14.022  66.209  1.00  0.00    -0.411 C  
HETATM    9  O   UNL     1     -13.017  13.876  66.078  1.00  0.00    -0.378 OA 
HETATM   10  C   UNL     1     -10.948  14.285  64.986  1.00  0.00    -0.394 C  
BRANCH   7  11
HETATM   11  C   UNL     1      -9.802  13.585  67.578  1.00  0.00    -0.227 A  
HETATM   12  C   UNL     1      -9.483  12.204  67.657  1.00  0.00    -0.187 A  
HETATM   13  I   UNL     1     -10.909  10.662  67.894  1.00  0.00    -0.388 I  
HETATM   14  C   UNL     1      -8.158  11.772  67.587  1.00  0.00    -0.144 A  
HETATM   15  C   UNL     1      -7.120  12.695  67.495  1.00  0.00    -0.152 A  
HETATM   16  C   UNL     1      -7.370  14.081  67.533  1.00  0.00    -0.170 A  
HETATM   17  I   UNL     1      -5.162  11.935  67.308  1.00  0.00    -0.070 I  
HETATM   18  N   UNL     1      -6.313  15.000  67.355  1.00  0.00    -0.321 NA 
HETATM   19  C   UNL     1      -8.724  14.503  67.514  1.00  0.00    -0.188 A  
HETATM   20  H1  UNL     1      -6.494  16.004  67.382  1.00  0.00     0.000 HD 
HETATM   21  I   UNL     1      -9.058  16.599  67.312  1.00  0.00    -0.251 I  
HETATM   22  H2  UNL     1      -5.842  14.782  66.476  1.00  0.00     0.000 HD 
ENDBRANCH   7  11
ENDBRANCH   3   7
TORSDOF 2
ENDMDL
MODEL       16
REMARK 921   NORMALIZED FREE ENERGY PREDICTED BY IDOCK:   -4.85 KCAL/MOL
REMARK 922        TOTAL FREE ENERGY PREDICTED BY IDOCK:   -5.52 KCAL/MOL
REMARK 923 INTER-LIGAND FREE ENERGY PREDICTED BY IDOCK:   -5.44 KCAL/MOL
REMARK 924 INTRA-LIGAND FREE ENERGY PREDICTED BY IDOCK:   -0.08 KCAL/MOL
REMARK 927      BINDING AFFINITY PREDICTED BY RF-SCORE:    0.00 PKD
ROOT
HETATM    1  C   UNL     1      -8.183  11.402  68.719  1.00  0.00    -0.107 C  
HETATM    2  C   UNL     1      -7.859  12.327  67.556  1.00  0.00    -0.166 C  
HETATM    3  C   UNL     1      -8.631  13.664  67.563  1.00  0.00    -0.197 C  
HETATM    4  C   UNL     1      -6.381  12.654  67.587  1.00  0.00    -0.147 C  
HETATM    5  O   UNL     1      -5.841  13.269  68.494  1.00  0.00    -0.074 OA 
HETATM    6  O   UNL     1      -5.696  12.196  66.518  1.00  0.00    -0.246 OA 
ENDROOT
BRANCH   3   7
HETATM    7  N   UNL     1     -10.102  13.564  67.405  1.00  0.00    -0.235 N  
HETATM    8  C   UNL     1     -10.639  13.782  66.126  1.00  0.00    -0.291 C  
HETATM    9  O   UNL     1      -9.939  14.010  65.138  1.00  0.00    -0.322 OA 
HETATM   10  C   UNL     1     -12.137  13.636  65.957  1.00  0.00    -0.480 C  
BRANCH   7  11
HETATM   11  C   UNL     1     -10.873  13.924  68.572  1.00  0.00    -0.259 A  
HETATM   12  C   UNL     1     -11.554  12.947  69.342  1.00  0.00    -0.302 A  
HETATM   13  I   UNL     1     -11.775  10.923  68.777  1.00  0.00    -0.086 I  
HETATM   14  C   UNL     1     -12.144  13.283  70.562  1.00  0.00    -0.391 A  
HETATM   15  C   UNL     1     -12.123  14.599  71.015  1.00  0.00    -0.329 A  
HETATM   16  C   UNL     1     -11.565  15.631  70.235  1.00  0.00    -0.356 A  
HETATM   17  I   UNL     1     -12.967  14.984  72.909  1.00  0.00    -0.696 I  
HETATM   18  N   UNL     1     -11.480  16.944  70.749  1.00  0.00    -0.210 NA 
HETATM   19  C   UNL     1     -10.892  15.261  69.043  1.00  0.00    -0.244 A  
HETATM   20  H1  UNL     1     -11.075  17.691  70.183  1.00  0.00     0.000 HD 
HETATM   21  I   UNL     1      -9.844  16.815  68.027  1.00  0.00    -0.302 I  
HETATM   22  H2  UNL     1     -10.982  16.909  71.638  1.00  0.00     0.000 HD 
ENDBRANCH   7  11
ENDBRANCH   3   7
TORSDOF 2
ENDMDL
MODEL       17
REMARK 921   NORMALIZED FREE ENERGY PREDICTED BY IDOCK:   -4.85 KCAL/MOL
REMARK 922        TOTAL FREE ENERGY PREDICTED BY IDOCK:   -5.52 KCAL/MOL
REMARK 923 INTER-LIGAND FREE ENERGY PREDICTED BY IDOCK:   -5.74 KCAL/MOL
REMARK 924 INTRA-LIGAND FREE ENERGY PREDICTED BY IDOCK:    0.23 KCAL/MOL
REMARK 927      BINDING AFFINITY PREDICTED BY RF-SCORE:    0.00 PKD
ROOT
HETATM    1  C   UNL     1     -12.903  13.829  66.282  1.00  0.00    -0.081 C  
HETATM    2  C   UNL     1     -11.791  14.669  65.672  1.00  0.00    -0.273 C  
HETATM    3  C   UNL     1     -10.366  14.129  65.921  1.00  0.00    -0.316 C  
HETATM    4  C   UNL     1     -11.996  14.742  64.174  1.00  0.00    -0.259 C  
HETATM    5  O   UNL     1     -11.946  13.770  63.435  1.00  0.00    -0.301 OA 
HETATM    6  O   UNL     1     -12.250  15.985  63.715  1.00  0.00    -0.895 OA 
ENDROOT
BRANCH   3   7
HETATM    7  N   UNL     1      -9.920  14.105  67.336  1.00  0.00    -0.238 N  
HETATM    8  C   UNL     1      -8.592  14.472  67.610  1.00  0.00    -0.179 C  
HETATM    9  O   UNL     1      -7.809  14.846  66.735  1.00  0.00    -0.071 OA 
HETATM   10  C   UNL     1      -8.151  14.489  69.058  1.00  0.00    -0.085 C  
BRANCH   7  11
HETATM   11  C   UNL     1     -10.575  13.126  68.171  1.00  0.00    -0.245 A  
HETATM   12  C   UNL     1     -10.337  11.737  68.013  1.00  0.00    -0.198 A  
HETATM   13  I   UNL     1      -9.248  10.887  66.413  1.00  0.00    -0.225 I  
HETATM   14  C   UNL     1     -10.834  10.817  68.938  1.00  0.00    -0.269 A  
HETATM   15  C   UNL     1     -11.623  11.245  70.002  1.00  0.00    -0.321 A  
HETATM   16  C   UNL     1     -11.989  12.598  70.141  1.00  0.00    -0.299 A  
HETATM   17  I   UNL     1     -12.251   9.786  71.389  1.00  0.00    -0.506 I  
HETATM   18  N   UNL     1     -12.720  13.025  71.272  1.00  0.00    -0.348 NA 
HETATM   19  C   UNL     1     -11.404  13.531  69.247  1.00  0.00    -0.262 A  
HETATM   20  H1  UNL     1     -12.985  14.005  71.373  1.00  0.00     0.000 HD 
HETATM   21  I   UNL     1     -11.781  15.590  69.649  1.00  0.00    -0.371 I  
HETATM   22  H2  UNL     1     -12.209  12.743  72.110  1.00  0.00     0.000 HD 
ENDBRANCH   7  11
ENDBRANCH   3   7
TORSDOF 2
ENDMDL
MODEL       18
REMARK 921   NORMALIZED FREE ENERGY PREDICTED BY IDOCK:   -4.83 KCAL/MOL
REMARK 922        TOTAL FREE ENERGY PREDICTED BY IDOCK:   -5.50 KCAL/MOL
REMARK 923 INTER-LIGAND FREE ENERGY PREDICTED BY IDOCK:   -5.78 KCAL/MOL
REMARK 924 INTRA-LIGAND FREE ENERGY PREDICTED BY IDOCK:    0.28 KCAL/MOL
REMARK 927      BINDING AFFINITY PREDICTED BY RF-SCORE:    0.00 PKD
ROOT
HETATM    1  C   UNL     1     -12.777  13.789  66.532  1.00  0.00    -0.073 C  
HETATM    2  C   UNL     1     -11.718  14.633  65.839  1.00  0.00    -0.301 C  
HETATM    3  C   UNL     1     -10.263  14.201  66.124  1.00  0.00    -0.304 C  
HETATM    4  C   UNL     1     -11.931  14.556  64.342  1.00  0.00    -0.449 C  
HETATM    5  O   UNL     1     -11.827  13.526  63.694  1.00  0.00    -0.418 OA 
HETATM    6  O   UNL     1     -12.259  15.736  63.775  1.00  0.00    -0.699 OA 
ENDROOT
BRANCH   3   7
HETATM    7  N   UNL     1      -9.812  14.331  67.531  1.00  0.00    -0.228 N  
HETATM    8  C   UNL     1      -8.533  14.865  67.762  1.00  0.00    -0.154 C  
HETATM    9  O   UNL     1      -7.800  15.258  66.853  1.00  0.00    -0.209 OA 
HETATM   10  C   UNL     1      -8.091  15.038  69.199  1.00  0.00    -0.192 C  
BRANCH   7  11
HETATM   11  C   UNL     1     -10.349  13.351  68.444  1.00  0.00    -0.251 A  
HETATM   12  C   UNL     1     -11.293  13.704  69.443  1.00  0.00    -0.245 A  
HETATM   13  I   UNL     1     -11.835  15.690  69.923  1.00  0.00    -0.295 I  
HETATM   14  C   UNL     1     -11.936  12.722  70.198  1.00  0.00    -0.371 A  
HETATM   15  C   UNL     1     -11.618  11.378  70.022  1.00  0.00    -0.299 A  
HETATM   16  C   UNL     1     -10.605  10.979  69.129  1.00  0.00    -0.219 A  
HETATM   17  I   UNL     1     -12.708   9.970  71.151  1.00  0.00    -0.492 I  
HETATM   18  N   UNL     1     -10.355   9.607  68.904  1.00  0.00    -0.196 NA 
HETATM   19  C   UNL     1     -10.024  11.978  68.307  1.00  0.00    -0.203 A  
HETATM   20  H1  UNL     1      -9.620   9.318  68.257  1.00  0.00     0.000 HD 
HETATM   21  I   UNL     1      -8.683  11.297  66.796  1.00  0.00    -0.180 I  
HETATM   22  H2  UNL     1     -11.228   9.164  68.617  1.00  0.00     0.000 HD 
ENDBRANCH   7  11
ENDBRANCH   3   7
TORSDOF 2
ENDMDL
MODEL       19
REMARK 921   NORMALIZED FREE ENERGY PREDICTED BY IDOCK:   -4.73 KCAL/MOL
REMARK 922        TOTAL FREE ENERGY PREDICTED BY IDOCK:   -5.38 KCAL/MOL
REMARK 923 INTER-LIGAND FREE ENERGY PREDICTED BY IDOCK:   -5.30 KCAL/MOL
REMARK 924 INTRA-LIGAND FREE ENERGY PREDICTED BY IDOCK:   -0.08 KCAL/MOL
REMARK 927      BINDING AFFINITY PREDICTED BY RF-SCORE:    0.00 PKD
ROOT
HETATM    1  C   UNL     1     -10.120  10.311  69.659  1.00  0.00    -0.257 C  
HETATM    2  C   UNL     1     -11.038  11.524  69.674  1.00  0.00    -0.211 C  
HETATM    3  C   UNL     1     -11.310  12.144  68.286  1.00  0.00    -0.289 C  
HETATM    4  C   UNL     1     -12.374  11.121  70.262  1.00  0.00    -0.315 C  
HETATM    5  O   UNL     1     -13.123  10.304  69.747  1.00  0.00     0.060 OA 
HETATM    6  O   UNL     1     -12.671  11.740  71.423  1.00  0.00    -0.372 OA 
ENDROOT
BRANCH   3   7
HETATM    7  N   UNL     1     -10.133  12.724  67.595  1.00  0.00    -0.216 N  
HETATM    8  C   UNL     1      -9.925  14.109  67.708  1.00  0.00    -0.235 C  
HETATM    9  O   UNL     1     -10.651  14.841  68.383  1.00  0.00    -0.233 OA 
HETATM   10  C   UNL     1      -8.700  14.694  67.038  1.00  0.00    -0.258 C  
BRANCH   7  11
HETATM   11  C   UNL     1      -9.726  12.040  66.391  1.00  0.00    -0.225 A  
HETATM   12  C   UNL     1      -8.552  11.245  66.350  1.00  0.00    -0.174 A  
HETATM   13  I   UNL     1      -7.114  11.159  67.897  1.00  0.00    -0.094 I  
HETATM   14  C   UNL     1      -8.267  10.448  65.240  1.00  0.00    -0.162 A  
HETATM   15  C   UNL     1      -9.103  10.466  64.127  1.00  0.00    -0.242 A  
HETATM   16  C   UNL     1     -10.217  11.325  64.065  1.00  0.00    -0.348 A  
HETATM   17  I   UNL     1      -8.629   9.162  62.539  1.00  0.00    -0.128 I  
HETATM   18  N   UNL     1     -11.099  11.268  62.964  1.00  0.00    -0.841 NA 
HETATM   19  C   UNL     1     -10.543  12.060  65.233  1.00  0.00    -0.287 A  
HETATM   20  H1  UNL     1     -11.907  11.891  62.919  1.00  0.00     0.000 HD 
HETATM   21  I   UNL     1     -12.376  13.149  65.184  1.00  0.00    -0.473 I  
HETATM   22  H2  UNL     1     -11.429  10.308  62.866  1.00  0.00     0.000 HD 
ENDBRANCH   7  11
ENDBRANCH   3   7
TORSDOF 2
ENDMDL
MODEL       20
REMARK 921   NORMALIZED FREE ENERGY PREDICTED BY IDOCK:   -4.71 KCAL/MOL
REMARK 922        TOTAL FREE ENERGY PREDICTED BY IDOCK:   -5.36 KCAL/MOL
REMARK 923 INTER-LIGAND FREE ENERGY PREDICTED BY IDOCK:   -5.26 KCAL/MOL
REMARK 924 INTRA-LIGAND FREE ENERGY PREDICTED BY IDOCK:   -0.10 KCAL/MOL
REMARK 927      BINDING AFFINITY PREDICTED BY RF-SCORE:    0.00 PKD
ROOT
HETATM    1  C   UNL     1     -10.602  17.290  65.609  1.00  0.00    -0.173 C  
HETATM    2  C   UNL     1      -9.616  17.205  66.763  1.00  0.00    -0.279 C  
HETATM    3  C   UNL     1      -8.930  15.831  66.924  1.00  0.00    -0.240 C  
HETATM    4  C   UNL     1      -8.527  18.236  66.556  1.00  0.00    -0.268 C  
HETATM    5  O   UNL     1      -7.745  18.217  65.617  1.00  0.00    -0.532 OA 
HETATM    6  O   UNL     1      -8.495  19.197  67.502  1.00  0.00    -0.281 OA 
ENDROOT
BRANCH   3   7
HETATM    7  N   UNL     1      -9.822  14.697  67.268  1.00  0.00    -0.229 N  
HETATM    8  C   UNL     1     -10.509  14.753  68.492  1.00  0.00    -0.249 C  
HETATM    9  O   UNL     1     -10.428  15.713  69.260  1.00  0.00    -0.215 OA 
HETATM   10  C   UNL     1     -11.453  13.616  68.822  1.00  0.00    -0.346 C  
BRANCH   7  11
HETATM   11  C   UNL     1      -9.426  13.416  66.732  1.00  0.00    -0.261 A  
HETATM   12  C   UNL     1      -8.351  12.679  67.289  1.00  0.00    -0.189 A  
HETATM   13  I   UNL     1      -7.025  13.425  68.757  1.00  0.00    -0.042 I  
HETATM   14  C   UNL     1      -8.094  11.370  66.879  1.00  0.00    -0.158 A  
HETATM   15  C   UNL     1      -8.857  10.785  65.871  1.00  0.00    -0.179 A  
HETATM   16  C   UNL     1      -9.859  11.512  65.200  1.00  0.00    -0.257 A  
HETATM   17  I   UNL     1      -8.443   8.775  65.387  1.00  0.00    -0.197 I  
HETATM   18  N   UNL     1     -10.676  10.876  64.239  1.00  0.00    -0.388 NA 
HETATM   19  C   UNL     1     -10.167  12.808  65.688  1.00  0.00    -0.279 A  
HETATM   20  H1  UNL     1     -11.403  11.403  63.753  1.00  0.00     0.000 HD 
HETATM   21  I   UNL     1     -11.857  13.770  64.814  1.00  0.00    -0.505 I  
HETATM   22  H2  UNL     1     -11.108  10.060  64.674  1.00  0.00     0.000 HD 
ENDBRANCH   7  11
ENDBRANCH   3   7
TORSDOF 2
ENDMDL
MODEL       21
REMARK 921   NORMALIZED FREE ENERGY PREDICTED BY IDOCK:   -4.70 KCAL/MOL
REMARK 922        TOTAL FREE ENERGY PREDICTED BY IDOCK:   -5.35 KCAL/MOL
REMARK 923 INTER-LIGAND FREE ENERGY PREDICTED BY IDOCK:   -5.33 KCAL/MOL
REMARK 924 INTRA-LIGAND FREE ENERGY PREDICTED BY IDOCK:   -0.02 KCAL/MOL
REMARK 927      BINDING AFFINITY PREDICTED BY RF-SCORE:    0.00 PKD
ROOT
HETATM    1  C   UNL     1     -12.306  11.335  70.990  1.00  0.00    -0.472 C  
HETATM    2  C   UNL     1     -11.537  10.482  69.994  1.00  0.00    -0.392 C  
HETATM    3  C   UNL     1     -10.346  11.197  69.319  1.00  0.00    -0.120 C  
HETATM    4  C   UNL     1     -10.991   9.264  70.708  1.00  0.00    -0.284 C  
HETATM    5  O   UNL     1     -10.167   9.318  71.608  1.00  0.00    -0.332 OA 
HETATM    6  O   UNL     1     -11.503   8.096  70.268  1.00  0.00    -0.200 OA 
ENDROOT
BRANCH   3   7
HETATM    7  N   UNL     1     -10.688  12.352  68.454  1.00  0.00    -0.228 N  
HETATM    8  C   UNL     1     -11.447  12.101  67.298  1.00  0.00    -0.345 C  
HETATM    9  O   UNL     1     -11.865  10.980  67.003  1.00  0.00    -0.322 OA 
HETATM   10  C   UNL     1     -11.834  13.287  66.439  1.00  0.00    -0.446 C  
BRANCH   7  11
HETATM   11  C   UNL     1      -9.728  13.429  68.455  1.00  0.00    -0.201 A  
HETATM   12  C   UNL     1      -9.990  14.658  69.114  1.00  0.00    -0.143 A  
HETATM   13  I   UNL     1     -11.863  15.196  69.933  1.00  0.00    -0.430 I  
HETATM   14  C   UNL     1      -8.989  15.618  69.260  1.00  0.00    -0.267 A  
HETATM   15  C   UNL     1      -7.728  15.410  68.707  1.00  0.00    -0.150 A  
HETATM   16  C   UNL     1      -7.447  14.263  67.941  1.00  0.00    -0.150 A  
HETATM   17  I   UNL     1      -6.262  16.885  69.058  1.00  0.00    -0.222 I  
HETATM   18  N   UNL     1      -6.140  14.031  67.460  1.00  0.00    -0.346 NA 
HETATM   19  C   UNL     1      -8.445  13.257  67.877  1.00  0.00    -0.177 A  
HETATM   20  H1  UNL     1      -5.937  13.199  66.904  1.00  0.00     0.000 HD 
HETATM   21  I   UNL     1      -7.888  11.432  66.926  1.00  0.00    -0.105 I  
HETATM   22  H2  UNL     1      -5.497  14.053  68.252  1.00  0.00     0.000 HD 
ENDBRANCH   7  11
ENDBRANCH   3   7
TORSDOF 2
ENDMDL
MODEL       22
REMARK 921   NORMALIZED FREE ENERGY PREDICTED BY IDOCK:   -4.68 KCAL/MOL
REMARK 922        TOTAL FREE ENERGY PREDICTED BY IDOCK:   -5.33 KCAL/MOL
REMARK 923 INTER-LIGAND FREE ENERGY PREDICTED BY IDOCK:   -5.58 KCAL/MOL
REMARK 924 INTRA-LIGAND FREE ENERGY PREDICTED BY IDOCK:    0.26 KCAL/MOL
REMARK 927      BINDING AFFINITY PREDICTED BY RF-SCORE:    0.00 PKD
ROOT
HETATM    1  C   UNL     1     -10.799  15.595  70.120  1.00  0.00    -0.356 C  
HETATM    2  C   UNL     1     -12.121  15.123  69.533  1.00  0.00    -0.316 C  
HETATM    3  C   UNL     1     -11.986  14.222  68.287  1.00  0.00    -0.311 C  
HETATM    4  C   UNL     1     -12.872  14.336  70.586  1.00  0.00    -0.314 C  
HETATM    5  O   UNL     1     -12.471  13.283  71.059  1.00  0.00    -0.366 OA 
HETATM    6  O   UNL     1     -14.033  14.904  70.970  1.00  0.00    -0.367 OA 
ENDROOT
BRANCH   3   7
HETATM    7  N   UNL     1     -11.389  14.859  67.088  1.00  0.00    -0.345 N  
HETATM    8  C   UNL     1     -12.026  14.655  65.852  1.00  0.00    -0.238 C  
HETATM    9  O   UNL     1     -13.069  14.009  65.737  1.00  0.00    -0.543 OA 
HETATM   10  C   UNL     1     -11.441  15.341  64.636  1.00  0.00    -0.356 C  
BRANCH   7  11
HETATM   11  C   UNL     1      -9.956  15.030  67.130  1.00  0.00    -0.237 A  
HETATM   12  C   UNL     1      -9.365  16.308  67.299  1.00  0.00    -0.224 A  
HETATM   13  I   UNL     1     -10.432  18.133  67.240  1.00  0.00    -0.293 I  
HETATM   14  C   UNL     1      -7.993  16.438  67.517  1.00  0.00    -0.172 A  
HETATM   15  C   UNL     1      -7.170  15.315  67.514  1.00  0.00    -0.197 A  
HETATM   16  C   UNL     1      -7.685  14.035  67.233  1.00  0.00    -0.098 A  
HETATM   17  I   UNL     1      -5.126  15.612  67.938  1.00  0.00    -0.045 I  
HETATM   18  N   UNL     1      -6.849  12.898  67.316  1.00  0.00    -0.323 NA 
HETATM   19  C   UNL     1      -9.091  13.907  67.102  1.00  0.00    -0.239 A  
HETATM   20  H1  UNL     1      -7.223  11.971  67.112  1.00  0.00     0.000 HD 
HETATM   21  I   UNL     1      -9.849  11.922  66.934  1.00  0.00    -0.240 I  
HETATM   22  H2  UNL     1      -6.427  12.878  68.245  1.00  0.00     0.000 HD 
ENDBRANCH   7  11
ENDBRANCH   3   7
TORSDOF 2
ENDMDL
MODEL       23
REMARK 921   NORMALIZED FREE ENERGY PREDICTED BY IDOCK:   -4.61 KCAL/MOL
REMARK 922        TOTAL FREE ENERGY PREDICTED BY IDOCK:   -5.25 KCAL/MOL
REMARK 923 INTER-LIGAND FREE ENERGY PREDICTED BY IDOCK:   -5.28 KCAL/MOL
REMARK 924 INTRA-LIGAND FREE ENERGY PREDICTED BY IDOCK:    0.02 KCAL/MOL
REMARK 927      BINDING AFFINITY PREDICTED BY RF-SCORE:    0.00 PKD
ROOT
HETATM    1  C   UNL     1     -12.147  12.926  67.613  1.00  0.00    -0.239 C  
HETATM    2  C   UNL     1     -11.298  12.932  66.352  1.00  0.00    -0.361 C  
HETATM    3  C   UNL     1     -10.646  11.574  66.009  1.00  0.00    -0.261 C  
HETATM    4  C   UNL     1     -12.167  13.330  65.177  1.00  0.00    -0.443 C  
HETATM    5  O   UNL     1     -13.116  12.670  64.782  1.00  0.00    -0.852 OA 
HETATM    6  O   UNL     1     -11.806  14.494  64.599  1.00  0.00    -0.413 OA 
ENDROOT
BRANCH   3   7
HETATM    7  N   UNL     1      -9.649  11.070  66.984  1.00  0.00    -0.176 N  
HETATM    8  C   UNL     1      -8.525  11.871  67.245  1.00  0.00    -0.172 C  
HETATM    9  O   UNL     1      -8.361  12.979  66.731  1.00  0.00    -0.090 OA 
HETATM   10  C   UNL     1      -7.531  11.375  68.273  1.00  0.00    -0.101 C  
BRANCH   7  11
HETATM   11  C   UNL     1      -9.531   9.633  67.056  1.00  0.00    -0.154 A  
HETATM   12  C   UNL     1     -10.076   8.897  68.140  1.00  0.00    -0.189 A  
HETATM   13  I   UNL     1     -10.874   9.767  69.893  1.00  0.00    -0.361 I  
HETATM   14  C   UNL     1     -10.113   7.502  68.109  1.00  0.00    -0.215 A  
HETATM   15  C   UNL     1      -9.560   6.806  67.037  1.00  0.00    -0.152 A  
HETATM   16  C   UNL     1      -8.900   7.481  65.992  1.00  0.00    -0.150 A  
HETATM   17  I   UNL     1      -9.743   4.706  67.048  1.00  0.00    -0.217 I  
HETATM   18  N   UNL     1      -8.420   6.764  64.874  1.00  0.00    -0.339 NA 
HETATM   19  C   UNL     1      -8.950   8.899  65.992  1.00  0.00    -0.193 A  
HETATM   20  H1  UNL     1      -7.942   7.254  64.116  1.00  0.00     0.000 HD 
HETATM   21  I   UNL     1      -8.165   9.873  64.266  1.00  0.00    -0.199 I  
HETATM   22  H2  UNL     1      -9.195   6.234  64.475  1.00  0.00     0.000 HD 
ENDBRANCH   7  11
ENDBRANCH   3   7
TORSDOF 2
ENDMDL
MODEL       24
REMARK 921   NORMALIZED FREE ENERGY PREDICTED BY IDOCK:   -4.61 KCAL/MOL
REMARK 922        TOTAL FREE ENERGY PREDICTED BY IDOCK:   -5.25 KCAL/MOL
REMARK 923 INTER-LIGAND FREE ENERGY PREDICTED BY IDOCK:   -5.16 KCAL/MOL
REMARK 924 INTRA-LIGAND FREE ENERGY PREDICTED BY IDOCK:   -0.09 KCAL/MOL
REMARK 927      BINDING AFFINITY PREDICTED BY RF-SCORE:    0.00 PKD
ROOT
HETATM    1  C   UNL     1     -11.045  16.059  70.548  1.00  0.00    -0.370 C  
HETATM    2  C   UNL     1     -12.168  15.249  69.918  1.00  0.00    -0.357 C  
HETATM    3  C   UNL     1     -11.712  13.948  69.222  1.00  0.00    -0.334 C  
HETATM    4  C   UNL     1     -13.160  14.865  70.996  1.00  0.00    -0.398 C  
HETATM    5  O   UNL     1     -12.889  14.138  71.940  1.00  0.00    -0.323 OA 
HETATM    6  O   UNL     1     -14.385  15.406  70.830  1.00  0.00    -0.379 OA 
ENDROOT
BRANCH   3   7
HETATM    7  N   UNL     1     -10.830  14.119  68.042  1.00  0.00    -0.242 N  
HETATM    8  C   UNL     1     -11.437  14.208  66.779  1.00  0.00    -0.369 C  
HETATM    9  O   UNL     1     -12.659  14.188  66.622  1.00  0.00    -0.349 OA 
HETATM   10  C   UNL     1     -10.539  14.427  65.579  1.00  0.00    -0.360 C  
BRANCH   7  11
HETATM   11  C   UNL     1      -9.518  13.528  68.162  1.00  0.00    -0.214 A  
HETATM   12  C   UNL     1      -8.361  14.322  68.366  1.00  0.00    -0.164 A  
HETATM   13  I   UNL     1      -8.328  16.433  68.255  1.00  0.00    -0.217 I  
HETATM   14  C   UNL     1      -7.131  13.731  68.658  1.00  0.00    -0.104 A  
HETATM   15  C   UNL     1      -7.008  12.344  68.695  1.00  0.00    -0.091 A  
HETATM   16  C   UNL     1      -8.095  11.506  68.383  1.00  0.00    -0.149 A  
HETATM   17  I   UNL     1      -5.127  11.555  69.229  1.00  0.00    -0.044 I  
HETATM   18  N   UNL     1      -7.972  10.105  68.508  1.00  0.00    -0.101 NA 
HETATM   19  C   UNL     1      -9.358  12.120  68.178  1.00  0.00    -0.204 A  
HETATM   20  H1  UNL     1      -8.761   9.498  68.282  1.00  0.00     0.000 HD 
HETATM   21  I   UNL     1     -11.023  10.806  67.963  1.00  0.00    -0.390 I  
HETATM   22  H2  UNL     1      -7.665   9.892  69.458  1.00  0.00     0.000 HD 
ENDBRANCH   7  11
ENDBRANCH   3   7
TORSDOF 2
ENDMDL
MODEL       25
REMARK 921   NORMALIZED FREE ENERGY PREDICTED BY IDOCK:   -4.60 KCAL/MOL
REMARK 922        TOTAL FREE ENERGY PREDICTED BY IDOCK:   -5.23 KCAL/MOL
REMARK 923 INTER-LIGAND FREE ENERGY PREDICTED BY IDOCK:   -5.48 KCAL/MOL
REMARK 924 INTRA-LIGAND FREE ENERGY PREDICTED BY IDOCK:    0.25 KCAL/MOL
REMARK 927      BINDING AFFINITY PREDICTED BY RF-SCORE:    0.00 PKD
ROOT
HETATM    1  C   UNL     1     -11.762  12.903  69.444  1.00  0.00    -0.382 C  
HETATM    2  C   UNL     1     -11.954  11.452  69.030  1.00  0.00    -0.387 C  
HETATM    3  C   UNL     1     -10.764  10.839  68.260  1.00  0.00    -0.213 C  
HETATM    4  C   UNL     1     -12.173  10.613  70.272  1.00  0.00    -0.334 C  
HETATM    5  O   UNL     1     -11.335  10.466  71.148  1.00  0.00    -0.268 OA 
HETATM    6  O   UNL     1     -13.392  10.038  70.335  1.00  0.00    -0.122 OA 
ENDROOT
BRANCH   3   7
HETATM    7  N   UNL     1     -10.468  11.443  66.938  1.00  0.00    -0.230 N  
HETATM    8  C   UNL     1     -10.149  10.576  65.879  1.00  0.00    -0.260 C  
HETATM    9  O   UNL     1     -10.145   9.349  65.998  1.00  0.00    -0.300 OA 
HETATM   10  C   UNL     1      -9.890  11.190  64.520  1.00  0.00    -0.330 C  
BRANCH   7  11
HETATM   11  C   UNL     1      -9.881  12.761  66.980  1.00  0.00    -0.231 A  
HETATM   12  C   UNL     1      -8.568  12.974  67.473  1.00  0.00    -0.192 A  
HETATM   13  I   UNL     1      -7.406  11.501  68.447  1.00  0.00    -0.116 I  
HETATM   14  C   UNL     1      -7.950  14.218  67.343  1.00  0.00    -0.211 A  
HETATM   15  C   UNL     1      -8.635  15.290  66.777  1.00  0.00    -0.265 A  
HETATM   16  C   UNL     1      -9.980  15.167  66.379  1.00  0.00    -0.272 A  
HETATM   17  I   UNL     1      -7.580  17.101  66.549  1.00  0.00    -0.330 I  
HETATM   18  N   UNL     1     -10.631  16.240  65.731  1.00  0.00    -0.343 NA 
HETATM   19  C   UNL     1     -10.565  13.876  66.435  1.00  0.00    -0.280 A  
HETATM   20  H1  UNL     1     -11.606  16.151  65.443  1.00  0.00     0.000 HD 
HETATM   21  I   UNL     1     -12.511  13.683  65.586  1.00  0.00    -0.418 I  
HETATM   22  H2  UNL     1     -10.078  16.507  64.916  1.00  0.00     0.000 HD 
ENDBRANCH   7  11
ENDBRANCH   3   7
TORSDOF 2
ENDMDL
MODEL       26
REMARK 921   NORMALIZED FREE ENERGY PREDICTED BY IDOCK:   -4.58 KCAL/MOL
REMARK 922        TOTAL FREE ENERGY PREDICTED BY IDOCK:   -5.21 KCAL/MOL
REMARK 923 INTER-LIGAND FREE ENERGY PREDICTED BY IDOCK:   -5.30 KCAL/MOL
REMARK 924 INTRA-LIGAND FREE ENERGY PREDICTED BY IDOCK:    0.09 KCAL/MOL
REMARK 927      BINDING AFFINITY PREDICTED BY RF-SCORE:    0.00 PKD
ROOT
HETATM    1  C   UNL     1      -8.421  10.088  67.668  1.00  0.00    -0.114 C  
HETATM    2  C   UNL     1      -8.011  11.486  67.233  1.00  0.00    -0.153 C  
HETATM    3  C   UNL     1      -8.756  12.629  67.956  1.00  0.00    -0.190 C  
HETATM    4  C   UNL     1      -6.531  11.668  67.497  1.00  0.00    -0.087 C  
HETATM    5  O   UNL     1      -6.034  11.647  68.612  1.00  0.00    -0.049 OA 
HETATM    6  O   UNL     1      -5.794  11.849  66.381  1.00  0.00    -0.214 OA 
ENDROOT
BRANCH   3   7
HETATM    7  N   UNL     1     -10.217  12.707  67.714  1.00  0.00    -0.217 N  
HETATM    8  C   UNL     1     -10.652  12.875  66.389  1.00  0.00    -0.271 C  
HETATM    9  O   UNL     1      -9.878  12.922  65.432  1.00  0.00    -0.224 OA 
HETATM   10  C   UNL     1     -12.145  12.910  66.137  1.00  0.00    -0.458 C  
BRANCH   7  11
HETATM   11  C   UNL     1     -10.992  13.267  68.795  1.00  0.00    -0.260 A  
HETATM   12  C   UNL     1     -11.208  14.665  68.907  1.00  0.00    -0.267 A  
HETATM   13  I   UNL     1     -10.239  16.121  67.720  1.00  0.00    -0.286 I  
HETATM   14  C   UNL     1     -12.102  15.176  69.848  1.00  0.00    -0.373 A  
HETATM   15  C   UNL     1     -12.756  14.324  70.734  1.00  0.00    -0.350 A  
HETATM   16  C   UNL     1     -12.490  12.941  70.747  1.00  0.00    -0.286 A  
HETATM   17  I   UNL     1     -14.150  15.189  72.058  1.00  0.00    -0.686 I  
HETATM   18  N   UNL     1     -13.224  12.083  71.596  1.00  0.00    -0.360 NA 
HETATM   19  C   UNL     1     -11.648  12.426  69.728  1.00  0.00    -0.232 A  
HETATM   20  H1  UNL     1     -13.031  11.081  71.605  1.00  0.00     0.000 HD 
HETATM   21  I   UNL     1     -11.477  10.304  69.627  1.00  0.00    -0.226 I  
HETATM   22  H2  UNL     1     -14.218  12.217  71.407  1.00  0.00     0.000 HD 
ENDBRANCH   7  11
ENDBRANCH   3   7
TORSDOF 2
ENDMDL
MODEL       27
REMARK 921   NORMALIZED FREE ENERGY PREDICTED BY IDOCK:   -4.56 KCAL/MOL
REMARK 922        TOTAL FREE ENERGY PREDICTED BY IDOCK:   -5.19 KCAL/MOL
REMARK 923 INTER-LIGAND FREE ENERGY PREDICTED BY IDOCK:   -5.13 KCAL/MOL
REMARK 924 INTRA-LIGAND FREE ENERGY PREDICTED BY IDOCK:   -0.05 KCAL/MOL
REMARK 927      BINDING AFFINITY PREDICTED BY RF-SCORE:    0.00 PKD
ROOT
HETATM    1  C   UNL     1     -12.398  11.274  70.858  1.00  0.00    -0.490 C  
HETATM    2  C   UNL     1     -11.535  10.413  69.949  1.00  0.00    -0.368 C  
HETATM    3  C   UNL     1     -10.346  11.154  69.299  1.00  0.00    -0.120 C  
HETATM    4  C   UNL     1     -10.968   9.263  70.756  1.00  0.00    -0.284 C  
HETATM    5  O   UNL     1     -10.198   9.407  71.693  1.00  0.00    -0.283 OA 
HETATM    6  O   UNL     1     -11.397   8.049  70.353  1.00  0.00    -0.261 OA 
ENDROOT
BRANCH   3   7
HETATM    7  N   UNL     1     -10.700  12.243  68.356  1.00  0.00    -0.226 N  
HETATM    8  C   UNL     1     -11.480  11.912  67.236  1.00  0.00    -0.317 C  
HETATM    9  O   UNL     1     -11.908  10.774  67.033  1.00  0.00    -0.112 OA 
HETATM   10  C   UNL     1     -11.877  13.032  66.298  1.00  0.00    -0.466 C  
BRANCH   7  11
HETATM   11  C   UNL     1      -9.734  13.312  68.260  1.00  0.00    -0.225 A  
HETATM   12  C   UNL     1      -8.504  13.142  67.573  1.00  0.00    -0.198 A  
HETATM   13  I   UNL     1      -7.789  11.290  66.848  1.00  0.00    -0.132 I  
HETATM   14  C   UNL     1      -7.664  14.230  67.335  1.00  0.00    -0.194 A  
HETATM   15  C   UNL     1      -7.992  15.493  67.819  1.00  0.00    -0.143 A  
HETATM   16  C   UNL     1      -9.140  15.696  68.608  1.00  0.00    -0.205 A  
HETATM   17  I   UNL     1      -6.696  17.084  67.329  1.00  0.00    -0.256 I  
HETATM   18  N   UNL     1      -9.499  16.999  69.019  1.00  0.00    -0.221 NA 
HETATM   19  C   UNL     1     -10.029  14.602  68.766  1.00  0.00    -0.235 A  
HETATM   20  H1  UNL     1     -10.331  17.146  69.592  1.00  0.00     0.000 HD 
HETATM   21  I   UNL     1     -11.875  15.018  69.748  1.00  0.00    -0.398 I  
HETATM   22  H2  UNL     1      -9.571  17.589  68.190  1.00  0.00     0.000 HD 
ENDBRANCH   7  11
ENDBRANCH   3   7
TORSDOF 2
ENDMDL
MODEL       28
REMARK 921   NORMALIZED FREE ENERGY PREDICTED BY IDOCK:   -4.55 KCAL/MOL
REMARK 922        TOTAL FREE ENERGY PREDICTED BY IDOCK:   -5.19 KCAL/MOL
REMARK 923 INTER-LIGAND FREE ENERGY PREDICTED BY IDOCK:   -5.29 KCAL/MOL
REMARK 924 INTRA-LIGAND FREE ENERGY PREDICTED BY IDOCK:    0.10 KCAL/MOL
REMARK 927      BINDING AFFINITY PREDICTED BY RF-SCORE:    0.00 PKD
ROOT
HETATM    1  C   UNL     1      -7.458  11.380  68.600  1.00  0.00    -0.119 C  
HETATM    2  C   UNL     1      -7.421  12.555  67.634  1.00  0.00    -0.139 C  
HETATM    3  C   UNL     1      -8.712  13.402  67.601  1.00  0.00    -0.198 C  
HETATM    4  C   UNL     1      -6.282  13.473  68.022  1.00  0.00    -0.136 C  
HETATM    5  O   UNL     1      -6.230  14.079  69.081  1.00  0.00    -0.092 OA 
HETATM    6  O   UNL     1      -5.310  13.564  67.091  1.00  0.00    -0.291 OA 
ENDROOT
BRANCH   3   7
HETATM    7  N   UNL     1      -9.929  12.710  67.114  1.00  0.00    -0.215 N  
HETATM    8  C   UNL     1     -10.581  13.247  65.990  1.00  0.00    -0.286 C  
HETATM    9  O   UNL     1     -10.162  14.233  65.382  1.00  0.00    -0.336 OA 
HETATM   10  C   UNL     1     -11.799  12.515  65.467  1.00  0.00    -0.491 C  
BRANCH   7  11
HETATM   11  C   UNL     1     -10.701  12.032  68.128  1.00  0.00    -0.216 A  
HETATM   12  C   UNL     1     -10.775  10.616  68.182  1.00  0.00    -0.225 A  
HETATM   13  I   UNL     1     -10.028   9.325  66.685  1.00  0.00    -0.309 I  
HETATM   14  C   UNL     1     -11.373   9.973  69.266  1.00  0.00    -0.169 A  
HETATM   15  C   UNL     1     -11.960  10.715  70.288  1.00  0.00    -0.339 A  
HETATM   16  C   UNL     1     -12.022  12.120  70.227  1.00  0.00    -0.305 A  
HETATM   17  I   UNL     1     -12.760   9.647  71.921  1.00  0.00    -0.447 I  
HETATM   18  N   UNL     1     -12.547  12.857  71.312  1.00  0.00    -0.321 NA 
HETATM   19  C   UNL     1     -11.332  12.761  69.166  1.00  0.00    -0.281 A  
HETATM   20  H1  UNL     1     -12.591  13.875  71.268  1.00  0.00     0.000 HD 
HETATM   21  I   UNL     1     -11.233  14.889  69.253  1.00  0.00    -0.375 I  
HETATM   22  H2  UNL     1     -12.037  12.594  72.156  1.00  0.00     0.000 HD 
ENDBRANCH   7  11
ENDBRANCH   3   7
TORSDOF 2
ENDMDL
MODEL       29
REMARK 921   NORMALIZED FREE ENERGY PREDICTED BY IDOCK:   -4.55 KCAL/MOL
REMARK 922        TOTAL FREE ENERGY PREDICTED BY IDOCK:   -5.18 KCAL/MOL
REMARK 923 INTER-LIGAND FREE ENERGY PREDICTED BY IDOCK:   -5.34 KCAL/MOL
REMARK 924 INTRA-LIGAND FREE ENERGY PREDICTED BY IDOCK:    0.15 KCAL/MOL
REMARK 927      BINDING AFFINITY PREDICTED BY RF-SCORE:    0.00 PKD
ROOT
HETATM    1  C   UNL     1     -10.428   7.368  66.970  1.00  0.00    -0.404 C  
HETATM    2  C   UNL     1      -9.791   7.289  68.349  1.00  0.00    -0.161 C  
HETATM    3  C   UNL     1      -9.882   8.591  69.175  1.00  0.00    -0.186 C  
HETATM    4  C   UNL     1     -10.475   6.197  69.144  1.00  0.00    -0.251 C  
HETATM    5  O   UNL     1     -11.653   6.228  69.465  1.00  0.00    -0.423 OA 
HETATM    6  O   UNL     1      -9.666   5.167  69.467  1.00  0.00    -0.157 OA 
ENDROOT
BRANCH   3   7
HETATM    7  N   UNL     1      -9.153   9.759  68.624  1.00  0.00    -0.128 N  
HETATM    8  C   UNL     1      -8.142  10.332  69.414  1.00  0.00    -0.163 C  
HETATM    9  O   UNL     1      -7.818   9.881  70.514  1.00  0.00    -0.246 OA 
HETATM   10  C   UNL     1      -7.369  11.497  68.834  1.00  0.00    -0.116 C  
BRANCH   7  11
HETATM   11  C   UNL     1      -9.916  10.596  67.729  1.00  0.00    -0.167 A  
HETATM   12  C   UNL     1     -11.025  11.354  68.186  1.00  0.00    -0.232 A  
HETATM   13  I   UNL     1     -11.881  11.175  70.110  1.00  0.00    -0.433 I  
HETATM   14  C   UNL     1     -11.640  12.291  67.355  1.00  0.00    -0.425 A  
HETATM   15  C   UNL     1     -11.211  12.457  66.041  1.00  0.00    -0.335 A  
HETATM   16  C   UNL     1     -10.193  11.649  65.498  1.00  0.00    -0.260 A  
HETATM   17  I   UNL     1     -12.151  13.959  64.897  1.00  0.00    -0.481 I  
HETATM   18  N   UNL     1      -9.715  11.888  64.191  1.00  0.00    -0.466 NA 
HETATM   19  C   UNL     1      -9.519  10.765  66.379  1.00  0.00    -0.171 A  
HETATM   20  H1  UNL     1      -8.977  11.302  63.798  1.00  0.00     0.000 HD 
HETATM   21  I   UNL     1      -7.821   9.750  65.583  1.00  0.00    -0.131 I  
HETATM   22  H2  UNL     1      -9.417  12.862  64.131  1.00  0.00     0.000 HD 
ENDBRANCH   7  11
ENDBRANCH   3   7
TORSDOF 2
ENDMDL
MODEL       30
REMARK 921   NORMALIZED FREE ENERGY PREDICTED BY IDOCK:   -4.43 KCAL/MOL
REMARK 922        TOTAL FREE ENERGY PREDICTED BY IDOCK:   -5.05 KCAL/MOL
REMARK 923 INTER-LIGAND FREE ENERGY PREDICTED BY IDOCK:   -4.97 KCAL/MOL
REMARK 924 INTRA-LIGAND FREE ENERGY PREDICTED BY IDOCK:   -0.08 KCAL/MOL
REMARK 927      BINDING AFFINITY PREDICTED BY RF-SCORE:    0.00 PKD
ROOT
HETATM    1  C   UNL     1     -10.781  13.490  65.356  1.00  0.00    -0.308 C  
HETATM    2  C   UNL     1     -10.041  12.234  64.921  1.00  0.00    -0.274 C  
HETATM    3  C   UNL     1     -10.216  11.025  65.865  1.00  0.00    -0.254 C  
HETATM    4  C   UNL     1     -10.540  11.820  63.553  1.00  0.00    -0.440 C  
HETATM    5  O   UNL     1     -11.688  11.469  63.327  1.00  0.00    -0.293 OA 
HETATM    6  O   UNL     1      -9.600  11.878  62.586  1.00  0.00    -0.194 OA 
ENDROOT
BRANCH   3   7
HETATM    7  N   UNL     1      -9.663  11.184  67.232  1.00  0.00    -0.165 N  
HETATM    8  C   UNL     1      -8.277  11.373  67.359  1.00  0.00    -0.145 C  
HETATM    9  O   UNL     1      -7.521  11.450  66.389  1.00  0.00    -0.110 OA 
HETATM   10  C   UNL     1      -7.720  11.580  68.752  1.00  0.00    -0.124 C  
BRANCH   7  11
HETATM   11  C   UNL     1     -10.386  10.494  68.273  1.00  0.00    -0.168 A  
HETATM   12  C   UNL     1     -10.210   9.105  68.504  1.00  0.00    -0.198 A  
HETATM   13  I   UNL     1      -9.116   7.814  67.237  1.00  0.00    -0.182 I  
HETATM   14  C   UNL     1     -10.775   8.490  69.622  1.00  0.00    -0.200 A  
HETATM   15  C   UNL     1     -11.572   9.219  70.500  1.00  0.00    -0.217 A  
HETATM   16  C   UNL     1     -11.879  10.572  70.255  1.00  0.00    -0.331 A  
HETATM   17  I   UNL     1     -12.307   8.215  72.202  1.00  0.00    -0.331 I  
HETATM   18  N   UNL     1     -12.620  11.316  71.199  1.00  0.00    -0.403 NA 
HETATM   19  C   UNL     1     -11.226  11.205  69.166  1.00  0.00    -0.264 A  
HETATM   20  H1  UNL     1     -12.842  12.296  71.021  1.00  0.00     0.000 HD 
HETATM   21  I   UNL     1     -11.517  13.309  68.984  1.00  0.00    -0.364 I  
HETATM   22  H2  UNL     1     -12.147  11.252  72.101  1.00  0.00     0.000 HD 
ENDBRANCH   7  11
ENDBRANCH   3   7
TORSDOF 2
ENDMDL
MODEL       31
REMARK 921   NORMALIZED FREE ENERGY PREDICTED BY IDOCK:   -4.39 KCAL/MOL
REMARK 922        TOTAL FREE ENERGY PREDICTED BY IDOCK:   -5.01 KCAL/MOL
REMARK 923 INTER-LIGAND FREE ENERGY PREDICTED BY IDOCK:   -5.02 KCAL/MOL
REMARK 924 INTRA-LIGAND FREE ENERGY PREDICTED BY IDOCK:    0.01 KCAL/MOL
REMARK 927      BINDING AFFINITY PREDICTED BY RF-SCORE:    0.00 PKD
ROOT
HETATM    1  C   UNL     1     -10.844   6.315  68.963  1.00  0.00    -0.400 C  
HETATM    2  C   UNL     1     -10.897   7.226  70.180  1.00  0.00    -0.274 C  
HETATM    3  C   UNL     1     -10.966   8.733  69.852  1.00  0.00    -0.179 C  
HETATM    4  C   UNL     1     -12.122   6.881  70.998  1.00  0.00    -0.380 C  
HETATM    5  O   UNL     1     -13.267   7.014  70.594  1.00  0.00    -0.008 OA 
HETATM    6  O   UNL     1     -11.842   6.399  72.227  1.00  0.00    -0.305 OA 
ENDROOT
BRANCH   3   7
HETATM    7  N   UNL     1      -9.783   9.301  69.160  1.00  0.00    -0.160 N  
HETATM    8  C   UNL     1      -8.662   9.629  69.942  1.00  0.00    -0.219 C  
HETATM    9  O   UNL     1      -8.613   9.427  71.157  1.00  0.00    -0.297 OA 
HETATM   10  C   UNL     1      -7.440  10.167  69.229  1.00  0.00    -0.111 C  
BRANCH   7  11
HETATM   11  C   UNL     1     -10.074  10.072  67.975  1.00  0.00    -0.167 A  
HETATM   12  C   UNL     1      -9.688   9.623  66.685  1.00  0.00    -0.209 A  
HETATM   13  I   UNL     1      -8.433   7.962  66.325  1.00  0.00    -0.179 I  
HETATM   14  C   UNL     1     -10.130  10.284  65.538  1.00  0.00    -0.351 A  
HETATM   15  C   UNL     1     -10.911  11.433  65.643  1.00  0.00    -0.218 A  
HETATM   16  C   UNL     1     -11.223  11.990  66.898  1.00  0.00    -0.320 A  
HETATM   17  I   UNL     1     -11.595  12.305  63.850  1.00  0.00    -0.633 I  
HETATM   18  N   UNL     1     -12.084  13.106  66.986  1.00  0.00    -0.352 NA 
HETATM   19  C   UNL     1     -10.844  11.259  68.053  1.00  0.00    -0.218 A  
HETATM   20  H1  UNL     1     -12.311  13.509  67.896  1.00  0.00     0.000 HD 
HETATM   21  I   UNL     1     -11.558  12.002  69.919  1.00  0.00    -0.040 I  
HETATM   22  H2  UNL     1     -12.957  12.877  66.510  1.00  0.00     0.000 HD 
ENDBRANCH   7  11
ENDBRANCH   3   7
TORSDOF 2
ENDMDL
MODEL       32
REMARK 921   NORMALIZED FREE ENERGY PREDICTED BY IDOCK:   -4.36 KCAL/MOL
REMARK 922        TOTAL FREE ENERGY PREDICTED BY IDOCK:   -4.97 KCAL/MOL
REMARK 923 INTER-LIGAND FREE ENERGY PREDICTED BY IDOCK:   -5.10 KCAL/MOL
REMARK 924 INTRA-LIGAND FREE ENERGY PREDICTED BY IDOCK:    0.13 KCAL/MOL
REMARK 927      BINDING AFFINITY PREDICTED BY RF-SCORE:    0.00 PKD
ROOT
HETATM    1  C   UNL     1     -10.827  11.497  65.987  1.00  0.00    -0.330 C  
HETATM    2  C   UNL     1     -11.200  12.884  65.487  1.00  0.00    -0.319 C  
HETATM    3  C   UNL     1     -10.233  14.007  65.923  1.00  0.00    -0.320 C  
HETATM    4  C   UNL     1     -11.228  12.869  63.974  1.00  0.00    -0.412 C  
HETATM    5  O   UNL     1     -10.245  12.659  63.279  1.00  0.00    -0.314 OA 
HETATM    6  O   UNL     1     -12.448  13.102  63.446  1.00  0.00    -0.730 OA 
ENDROOT
BRANCH   3   7
HETATM    7  N   UNL     1     -10.163  14.273  67.380  1.00  0.00    -0.247 N  
HETATM    8  C   UNL     1     -11.372  14.467  68.069  1.00  0.00    -0.306 C  
HETATM    9  O   UNL     1     -12.473  14.387  67.522  1.00  0.00    -0.155 OA 
HETATM   10  C   UNL     1     -11.302  14.694  69.564  1.00  0.00    -0.314 C  
BRANCH   7  11
HETATM   11  C   UNL     1      -8.973  14.957  67.825  1.00  0.00    -0.177 A  
HETATM   12  C   UNL     1      -8.896  16.373  67.852  1.00  0.00    -0.184 A  
HETATM   13  I   UNL     1     -10.348  17.662  67.016  1.00  0.00    -0.230 I  
HETATM   14  C   UNL     1      -7.813  17.019  68.449  1.00  0.00    -0.233 A  
HETATM   15  C   UNL     1      -6.758  16.281  68.979  1.00  0.00    -0.182 A  
HETATM   16  C   UNL     1      -6.725  14.877  68.874  1.00  0.00    -0.100 A  
HETATM   17  I   UNL     1      -5.212  17.351  69.935  1.00  0.00    -0.249 I  
HETATM   18  N   UNL     1      -5.688  14.142  69.491  1.00  0.00    -0.093 NA 
HETATM   19  C   UNL     1      -7.872  14.232  68.346  1.00  0.00    -0.140 A  
HETATM   20  H1  UNL     1      -5.664  13.125  69.414  1.00  0.00     0.000 HD 
HETATM   21  I   UNL     1      -7.887  12.102  68.441  1.00  0.00    -0.066 I  
HETATM   22  H2  UNL     1      -5.662  14.391  70.480  1.00  0.00     0.000 HD 
ENDBRANCH   7  11
ENDBRANCH   3   7
TORSDOF 2
ENDMDL
MODEL       33
REMARK 921   NORMALIZED FREE ENERGY PREDICTED BY IDOCK:   -4.36 KCAL/MOL
REMARK 922        TOTAL FREE ENERGY PREDICTED BY IDOCK:   -4.97 KCAL/MOL
REMARK 923 INTER-LIGAND FREE ENERGY PREDICTED BY IDOCK:   -5.09 KCAL/MOL
REMARK 924 INTRA-LIGAND FREE ENERGY PREDICTED BY IDOCK:    0.12 KCAL/MOL
REMARK 927      BINDING AFFINITY PREDICTED BY RF-SCORE:    0.00 PKD
ROOT
HETATM    1  C   UNL     1     -10.301   7.294  73.819  1.00  0.00    -0.360 C  
HETATM    2  C   UNL     1      -9.044   7.327  72.963  1.00  0.00    -0.180 C  
HETATM    3  C   UNL     1      -9.080   8.351  71.808  1.00  0.00    -0.218 C  
HETATM    4  C   UNL     1      -7.861   7.673  73.842  1.00  0.00    -0.150 C  
HETATM    5  O   UNL     1      -7.739   8.739  74.426  1.00  0.00    -0.411 OA 
HETATM    6  O   UNL     1      -6.942   6.689  73.935  1.00  0.00    -0.080 OA 
ENDROOT
BRANCH   3   7
HETATM    7  N   UNL     1     -10.097   8.107  70.756  1.00  0.00    -0.188 N  
HETATM    8  C   UNL     1     -10.113   6.843  70.142  1.00  0.00    -0.182 C  
HETATM    9  O   UNL     1      -9.350   5.932  70.468  1.00  0.00    -0.159 OA 
HETATM   10  C   UNL     1     -11.180   6.580  69.100  1.00  0.00    -0.367 C  
BRANCH   7  11
HETATM   11  C   UNL     1     -10.494   9.271  70.000  1.00  0.00    -0.226 A  
HETATM   12  C   UNL     1     -11.656  10.013  70.334  1.00  0.00    -0.302 A  
HETATM   13  I   UNL     1     -13.092   9.403  71.760  1.00  0.00    -0.575 I  
HETATM   14  C   UNL     1     -11.928  11.232  69.712  1.00  0.00    -0.431 A  
HETATM   15  C   UNL     1     -11.092  11.712  68.708  1.00  0.00    -0.230 A  
HETATM   16  C   UNL     1      -9.991  10.961  68.253  1.00  0.00    -0.175 A  
HETATM   17  I   UNL     1     -11.546  13.603  67.893  1.00  0.00    -0.411 I  
HETATM   18  N   UNL     1      -9.107  11.502  67.293  1.00  0.00    -0.162 NA 
HETATM   19  C   UNL     1      -9.676   9.769  68.955  1.00  0.00    -0.177 A  
HETATM   20  H1  UNL     1      -8.310  10.957  66.964  1.00  0.00     0.000 HD 
HETATM   21  I   UNL     1      -7.860   8.799  68.403  1.00  0.00    -0.106 I  
HETATM   22  H2  UNL     1      -8.763  12.397  67.642  1.00  0.00     0.000 HD 
ENDBRANCH   7  11
ENDBRANCH   3   7
TORSDOF 2
ENDMDL
MODEL       34
REMARK 921   NORMALIZED FREE ENERGY PREDICTED BY IDOCK:   -4.35 KCAL/MOL
REMARK 922        TOTAL FREE ENERGY PREDICTED BY IDOCK:   -4.96 KCAL/MOL
REMARK 923 INTER-LIGAND FREE ENERGY PREDICTED BY IDOCK:   -5.09 KCAL/MOL
REMARK 924 INTRA-LIGAND FREE ENERGY PREDICTED BY IDOCK:    0.13 KCAL/MOL
REMARK 927      BINDING AFFINITY PREDICTED BY RF-SCORE:    0.00 PKD
ROOT
HETATM    1  C   UNL     1     -10.298  15.218  70.703  1.00  0.00     0.080 C  
HETATM    2  C   UNL     1     -11.502  15.118  69.779  1.00  0.00    -0.321 C  
HETATM    3  C   UNL     1     -11.330  14.131  68.604  1.00  0.00    -0.277 C  
HETATM    4  C   UNL     1     -12.702  14.664  70.584  1.00  0.00    -0.357 C  
HETATM    5  O   UNL     1     -12.776  13.577  71.135  1.00  0.00    -0.346 OA 
HETATM    6  O   UNL     1     -13.693  15.577  70.650  1.00  0.00    -0.397 OA 
ENDROOT
BRANCH   3   7
HETATM    7  N   UNL     1     -10.280  14.476  67.616  1.00  0.00    -0.225 N  
HETATM    8  C   UNL     1     -10.305  15.765  67.056  1.00  0.00    -0.292 C  
HETATM    9  O   UNL     1     -11.133  16.618  67.381  1.00  0.00    -0.166 OA 
HETATM   10  C   UNL     1      -9.207  16.131  66.081  1.00  0.00    -0.382 C  
BRANCH   7  11
HETATM   11  C   UNL     1      -9.783  13.370  66.833  1.00  0.00    -0.253 A  
HETATM   12  C   UNL     1      -8.575  12.706  67.169  1.00  0.00    -0.199 A  
HETATM   13  I   UNL     1      -7.216  13.374  68.643  1.00  0.00    -0.033 I  
HETATM   14  C   UNL     1      -8.200  11.531  66.515  1.00  0.00    -0.129 A  
HETATM   15  C   UNL     1      -8.979  11.023  65.479  1.00  0.00    -0.194 A  
HETATM   16  C   UNL     1     -10.124  11.705  65.024  1.00  0.00    -0.263 A  
HETATM   17  I   UNL     1      -8.369   9.198  64.616  1.00  0.00    -0.190 I  
HETATM   18  N   UNL     1     -10.946  11.131  64.029  1.00  0.00    -0.460 NA 
HETATM   19  C   UNL     1     -10.540  12.847  65.756  1.00  0.00    -0.275 A  
HETATM   20  H1  UNL     1     -11.776  11.626  63.700  1.00  0.00     0.000 HD 
HETATM   21  I   UNL     1     -12.413  13.697  65.195  1.00  0.00    -0.410 I  
HETATM   22  H2  UNL     1     -11.229  10.202  64.342  1.00  0.00     0.000 HD 
ENDBRANCH   7  11
ENDBRANCH   3   7
TORSDOF 2
ENDMDL
MODEL       35
REMARK 921   NORMALIZED FREE ENERGY PREDICTED BY IDOCK:   -4.35 KCAL/MOL
REMARK 922        TOTAL FREE ENERGY PREDICTED BY IDOCK:   -4.96 KCAL/MOL
REMARK 923 INTER-LIGAND FREE ENERGY PREDICTED BY IDOCK:   -5.23 KCAL/MOL
REMARK 924 INTRA-LIGAND FREE ENERGY PREDICTED BY IDOCK:    0.28 KCAL/MOL
REMARK 927      BINDING AFFINITY PREDICTED BY RF-SCORE:    0.00 PKD
ROOT
HETATM    1  C   UNL     1     -11.673  12.585  69.354  1.00  0.00    -0.383 C  
HETATM    2  C   UNL     1     -11.901  11.106  69.079  1.00  0.00    -0.418 C  
HETATM    3  C   UNL     1     -10.711  10.385  68.410  1.00  0.00    -0.225 C  
HETATM    4  C   UNL     1     -12.183  10.402  70.389  1.00  0.00    -0.303 C  
HETATM    5  O   UNL     1     -11.375  10.318  71.302  1.00  0.00    -0.277 OA 
HETATM    6  O   UNL     1     -13.422   9.874  70.472  1.00  0.00    -0.142 OA 
ENDROOT
BRANCH   3   7
HETATM    7  N   UNL     1     -10.359  10.845  67.045  1.00  0.00    -0.221 N  
HETATM    8  C   UNL     1     -10.073   9.866  66.078  1.00  0.00    -0.244 C  
HETATM    9  O   UNL     1     -10.142   8.658  66.310  1.00  0.00    -0.277 OA 
HETATM   10  C   UNL     1      -9.756  10.336  64.674  1.00  0.00    -0.398 C  
BRANCH   7  11
HETATM   11  C   UNL     1      -9.697  12.126  66.979  1.00  0.00    -0.202 A  
HETATM   12  C   UNL     1     -10.355  13.276  66.471  1.00  0.00    -0.285 A  
HETATM   13  I   UNL     1     -12.238  13.247  65.511  1.00  0.00    -0.509 I  
HETATM   14  C   UNL     1      -9.770  14.539  66.578  1.00  0.00    -0.301 A  
HETATM   15  C   UNL     1      -8.502  14.683  67.133  1.00  0.00    -0.221 A  
HETATM   16  C   UNL     1      -7.754  13.563  67.544  1.00  0.00    -0.175 A  
HETATM   17  I   UNL     1      -7.746  16.642  67.325  1.00  0.00    -0.265 I  
HETATM   18  N   UNL     1      -6.504  13.736  68.180  1.00  0.00    -0.108 NA 
HETATM   19  C   UNL     1      -8.395  12.298  67.512  1.00  0.00    -0.170 A  
HETATM   20  H1  UNL     1      -5.963  12.924  68.478  1.00  0.00     0.000 HD 
HETATM   21  I   UNL     1      -7.323  10.672  68.379  1.00  0.00    -0.108 I  
HETATM   22  H2  UNL     1      -6.637  14.347  68.987  1.00  0.00     0.000 HD 
ENDBRANCH   7  11
ENDBRANCH   3   7
TORSDOF 2
ENDMDL
MODEL       36
REMARK 921   NORMALIZED FREE ENERGY PREDICTED BY IDOCK:   -4.33 KCAL/MOL
REMARK 922        TOTAL FREE ENERGY PREDICTED BY IDOCK:   -4.94 KCAL/MOL
REMARK 923 INTER-LIGAND FREE ENERGY PREDICTED BY IDOCK:   -4.96 KCAL/MOL
REMARK 924 INTRA-LIGAND FREE ENERGY PREDICTED BY IDOCK:    0.02 KCAL/MOL
REMARK 927      BINDING AFFINITY PREDICTED BY RF-SCORE:    0.00 PKD
ROOT
HETATM    1  C   UNL     1     -12.277  13.052  70.654  1.00  0.00    -0.390 C  
HETATM    2  C   UNL     1     -11.720  14.466  70.686  1.00  0.00    -0.315 C  
HETATM    3  C   UNL     1     -11.194  14.981  69.328  1.00  0.00    -0.286 C  
HETATM    4  C   UNL     1     -12.809  15.413  71.141  1.00  0.00    -0.455 C  
HETATM    5  O   UNL     1     -13.839  15.614  70.515  1.00  0.00    -0.231 OA 
HETATM    6  O   UNL     1     -12.550  16.021  72.317  1.00  0.00    -0.446 OA 
ENDROOT
BRANCH   3   7
HETATM    7  N   UNL     1     -10.024  14.259  68.770  1.00  0.00    -0.227 N  
HETATM    8  C   UNL     1      -8.745  14.756  69.070  1.00  0.00    -0.139 C  
HETATM    9  O   UNL     1      -8.561  15.731  69.801  1.00  0.00    -0.136 OA 
HETATM   10  C   UNL     1      -7.550  13.993  68.537  1.00  0.00    -0.130 C  
BRANCH   7  11
HETATM   11  C   UNL     1     -10.253  13.598  67.508  1.00  0.00    -0.241 A  
HETATM   12  C   UNL     1     -10.334  14.326  66.293  1.00  0.00    -0.294 A  
HETATM   13  I   UNL     1     -10.408  16.435  66.167  1.00  0.00    -0.270 I  
HETATM   14  C   UNL     1     -10.376  13.663  65.065  1.00  0.00    -0.393 A  
HETATM   15  C   UNL     1     -10.398  12.272  65.016  1.00  0.00    -0.291 A  
HETATM   16  C   UNL     1     -10.440  11.501  66.194  1.00  0.00    -0.251 A  
HETATM   17  I   UNL     1     -10.375  11.370  63.110  1.00  0.00    -0.037 I  
HETATM   18  N   UNL     1     -10.378  10.092  66.124  1.00  0.00    -0.196 NA 
HETATM   19  C   UNL     1     -10.307  12.184  67.429  1.00  0.00    -0.205 A  
HETATM   20  H1  UNL     1     -10.409   9.533  66.977  1.00  0.00     0.000 HD 
HETATM   21  I   UNL     1     -10.117  10.965  69.168  1.00  0.00    -0.028 I  
HETATM   22  H2  UNL     1      -9.542   9.832  65.600  1.00  0.00     0.000 HD 
ENDBRANCH   7  11
ENDBRANCH   3   7
TORSDOF 2
ENDMDL
MODEL       37
REMARK 921   NORMALIZED FREE ENERGY PREDICTED BY IDOCK:   -4.31 KCAL/MOL
REMARK 922        TOTAL FREE ENERGY PREDICTED BY IDOCK:   -4.92 KCAL/MOL
REMARK 923 INTER-LIGAND FREE ENERGY PREDICTED BY IDOCK:   -5.40 KCAL/MOL
REMARK 924 INTRA-LIGAND FREE ENERGY PREDICTED BY IDOCK:    0.48 KCAL/MOL
REMARK 927      BINDING AFFINITY PREDICTED BY RF-SCORE:    0.00 PKD
ROOT
HETATM    1  C   UNL     1     -10.121  14.356  65.362  1.00  0.00    -0.388 C  
HETATM    2  C   UNL     1     -11.003  13.125  65.221  1.00  0.00    -0.304 C  
HETATM    3  C   UNL     1     -11.501  12.534  66.557  1.00  0.00    -0.362 C  
HETATM    4  C   UNL     1     -12.222  13.488  64.400  1.00  0.00    -0.390 C  
HETATM    5  O   UNL     1     -13.062  14.301  64.755  1.00  0.00    -0.599 OA 
HETATM    6  O   UNL     1     -12.303  12.835  63.222  1.00  0.00    -0.630 OA 
ENDROOT
BRANCH   3   7
HETATM    7  N   UNL     1     -10.454  11.993  67.457  1.00  0.00    -0.209 N  
HETATM    8  C   UNL     1     -10.827  10.990  68.367  1.00  0.00    -0.220 C  
HETATM    9  O   UNL     1     -11.966  10.523  68.417  1.00  0.00    -0.364 OA 
HETATM   10  C   UNL     1      -9.747  10.408  69.256  1.00  0.00    -0.231 C  
BRANCH   7  11
HETATM   11  C   UNL     1      -9.406  12.921  67.811  1.00  0.00    -0.203 A  
HETATM   12  C   UNL     1      -9.644  14.009  68.690  1.00  0.00    -0.159 A  
HETATM   13  I   UNL     1     -11.556  14.591  69.379  1.00  0.00    -0.405 I  
HETATM   14  C   UNL     1      -8.588  14.789  69.163  1.00  0.00    -0.089 A  
HETATM   15  C   UNL     1      -7.286  14.547  68.733  1.00  0.00    -0.126 A  
HETATM   16  C   UNL     1      -7.008  13.558  67.769  1.00  0.00    -0.159 A  
HETATM   17  I   UNL     1      -5.754  15.727  69.573  1.00  0.00    -0.148 I  
HETATM   18  N   UNL     1      -5.672  13.273  67.408  1.00  0.00    -0.355 NA 
HETATM   19  C   UNL     1      -8.076  12.717  67.367  1.00  0.00    -0.182 A  
HETATM   20  H1  UNL     1      -5.471  12.556  66.710  1.00  0.00     0.000 HD 
HETATM   21  I   UNL     1      -7.563  11.075  66.107  1.00  0.00     0.128 I  
HETATM   22  H2  UNL     1      -5.150  13.051  68.256  1.00  0.00     0.000 HD 
ENDBRANCH   7  11
ENDBRANCH   3   7
TORSDOF 2
ENDMDL
MODEL       38
REMARK 921   NORMALIZED FREE ENERGY PREDICTED BY IDOCK:   -4.28 KCAL/MOL
REMARK 922        TOTAL FREE ENERGY PREDICTED BY IDOCK:   -4.88 KCAL/MOL
REMARK 923 INTER-LIGAND FREE ENERGY PREDICTED BY IDOCK:   -4.82 KCAL/MOL
REMARK 924 INTRA-LIGAND FREE ENERGY PREDICTED BY IDOCK:   -0.06 KCAL/MOL
REMARK 927      BINDING AFFINITY PREDICTED BY RF-SCORE:    0.00 PKD
ROOT
HETATM    1  C   UNL     1     -11.962  10.925  69.630  1.00  0.00    -0.414 C  
HETATM    2  C   UNL     1     -11.120   9.727  69.217  1.00  0.00    -0.184 C  
HETATM    3  C   UNL     1      -9.771  10.087  68.557  1.00  0.00    -0.155 C  
HETATM    4  C   UNL     1     -10.819   8.893  70.444  1.00  0.00    -0.236 C  
HETATM    5  O   UNL     1     -10.157   9.292  71.390  1.00  0.00    -0.314 OA 
HETATM    6  O   UNL     1     -11.357   7.656  70.410  1.00  0.00    -0.272 OA 
ENDROOT
BRANCH   3   7
HETATM    7  N   UNL     1      -9.853  10.799  67.259  1.00  0.00    -0.176 N  
HETATM    8  C   UNL     1     -10.012  10.025  66.097  1.00  0.00    -0.256 C  
HETATM    9  O   UNL     1     -10.122   8.798  66.122  1.00  0.00    -0.269 OA 
HETATM   10  C   UNL     1     -10.140  10.755  64.777  1.00  0.00    -0.396 C  
BRANCH   7  11
HETATM   11  C   UNL     1      -9.126  12.044  67.192  1.00  0.00    -0.186 A  
HETATM   12  C   UNL     1      -9.795  13.292  67.108  1.00  0.00    -0.237 A  
HETATM   13  I   UNL     1     -11.875  13.512  66.798  1.00  0.00    -0.433 I  
HETATM   14  C   UNL     1      -9.090  14.490  67.224  1.00  0.00    -0.217 A  
HETATM   15  C   UNL     1      -7.705  14.481  67.366  1.00  0.00    -0.192 A  
HETATM   16  C   UNL     1      -6.976  13.276  67.336  1.00  0.00    -0.092 A  
HETATM   17  I   UNL     1      -6.746  16.342  67.618  1.00  0.00    -0.225 I  
HETATM   18  N   UNL     1      -5.582  13.282  67.565  1.00  0.00    -0.330 NA 
HETATM   19  C   UNL     1      -7.713  12.065  67.307  1.00  0.00    -0.168 A  
HETATM   20  H1  UNL     1      -5.055  12.409  67.543  1.00  0.00     0.000 HD 
HETATM   21  I   UNL     1      -6.587  10.268  67.522  1.00  0.00    -0.069 I  
HETATM   22  H2  UNL     1      -5.405  13.742  68.458  1.00  0.00     0.000 HD 
ENDBRANCH   7  11
ENDBRANCH   3   7
TORSDOF 2
ENDMDL
MODEL       39
REMARK 921   NORMALIZED FREE ENERGY PREDICTED BY IDOCK:   -4.24 KCAL/MOL
REMARK 922        TOTAL FREE ENERGY PREDICTED BY IDOCK:   -4.84 KCAL/MOL
REMARK 923 INTER-LIGAND FREE ENERGY PREDICTED BY IDOCK:   -4.79 KCAL/MOL
REMARK 924 INTRA-LIGAND FREE ENERGY PREDICTED BY IDOCK:   -0.05 KCAL/MOL
REMARK 927      BINDING AFFINITY PREDICTED BY RF-SCORE:    0.00 PKD
ROOT
HETATM    1  C   UNL     1     -10.446  17.254  65.757  1.00  0.00    -0.237 C  
HETATM    2  C   UNL     1      -9.383  17.216  66.844  1.00  0.00    -0.260 C  
HETATM    3  C   UNL     1      -8.806  15.813  67.131  1.00  0.00    -0.203 C  
HETATM    4  C   UNL     1      -8.230  18.108  66.434  1.00  0.00    -0.253 C  
HETATM    5  O   UNL     1      -7.529  17.902  65.456  1.00  0.00    -0.524 OA 
HETATM    6  O   UNL     1      -8.043  19.169  67.247  1.00  0.00    -0.259 OA 
ENDROOT
BRANCH   3   7
HETATM    7  N   UNL     1      -9.762  14.818  67.676  1.00  0.00    -0.212 N  
HETATM    8  C   UNL     1     -10.254  15.026  68.975  1.00  0.00    -0.242 C  
HETATM    9  O   UNL     1      -9.954  16.010  69.653  1.00  0.00    -0.263 OA 
HETATM   10  C   UNL     1     -11.263  14.034  69.513  1.00  0.00    -0.249 C  
BRANCH   7  11
HETATM   11  C   UNL     1      -9.596  13.471  67.184  1.00  0.00    -0.241 A  
HETATM   12  C   UNL     1     -10.516  12.895  66.271  1.00  0.00    -0.270 A  
HETATM   13  I   UNL     1     -12.356  13.774  65.717  1.00  0.00    -0.475 I  
HETATM   14  C   UNL     1     -10.249  11.665  65.669  1.00  0.00    -0.284 A  
HETATM   15  C   UNL     1      -9.098  10.953  66.000  1.00  0.00    -0.191 A  
HETATM   16  C   UNL     1      -8.211  11.421  66.988  1.00  0.00    -0.160 A  
HETATM   17  I   UNL     1      -8.747   9.147  64.970  1.00  0.00    -0.155 I  
HETATM   18  N   UNL     1      -7.008  10.727  67.250  1.00  0.00    -0.083 NA 
HETATM   19  C   UNL     1      -8.448  12.712  67.525  1.00  0.00    -0.176 A  
HETATM   20  H1  UNL     1      -6.365  11.067  67.966  1.00  0.00     0.000 HD 
HETATM   21  I   UNL     1      -6.945  13.488  68.823  1.00  0.00    -0.052 I  
HETATM   22  H2  UNL     1      -6.494  10.634  66.374  1.00  0.00     0.000 HD 
ENDBRANCH   7  11
ENDBRANCH   3   7
TORSDOF 2
ENDMDL
MODEL       40
REMARK 921   NORMALIZED FREE ENERGY PREDICTED BY IDOCK:   -4.19 KCAL/MOL
REMARK 922        TOTAL FREE ENERGY PREDICTED BY IDOCK:   -4.78 KCAL/MOL
REMARK 923 INTER-LIGAND FREE ENERGY PREDICTED BY IDOCK:   -4.68 KCAL/MOL
REMARK 924 INTRA-LIGAND FREE ENERGY PREDICTED BY IDOCK:   -0.10 KCAL/MOL
REMARK 927      BINDING AFFINITY PREDICTED BY RF-SCORE:    0.00 PKD
ROOT
HETATM    1  C   UNL     1      -6.918  10.651  65.971  1.00  0.00    -0.128 C  
HETATM    2  C   UNL     1      -8.265  10.267  65.378  1.00  0.00    -0.156 C  
HETATM    3  C   UNL     1      -9.228  11.453  65.147  1.00  0.00    -0.103 C  
HETATM    4  C   UNL     1      -8.038   9.598  64.039  1.00  0.00    -0.152 C  
HETATM    5  O   UNL     1      -7.543  10.160  63.074  1.00  0.00    -0.138 OA 
HETATM    6  O   UNL     1      -8.427   8.306  64.000  1.00  0.00    -0.084 OA 
ENDROOT
BRANCH   3   7
HETATM    7  N   UNL     1      -9.681  12.166  66.366  1.00  0.00    -0.226 N  
HETATM    8  C   UNL     1     -10.599  11.511  67.204  1.00  0.00    -0.237 C  
HETATM    9  O   UNL     1     -11.005  10.368  66.986  1.00  0.00    -0.244 OA 
HETATM   10  C   UNL     1     -11.028  12.221  68.470  1.00  0.00    -0.275 C  
BRANCH   7  11
HETATM   11  C   UNL     1      -9.714  13.605  66.261  1.00  0.00    -0.283 A  
HETATM   12  C   UNL     1     -10.723  14.273  65.522  1.00  0.00    -0.331 A  
HETATM   13  I   UNL     1     -12.125  13.304  64.271  1.00  0.00    -0.459 I  
HETATM   14  C   UNL     1     -10.848  15.662  65.576  1.00  0.00    -0.356 A  
HETATM   15  C   UNL     1      -9.944  16.422  66.314  1.00  0.00    -0.323 A  
HETATM   16  C   UNL     1      -8.852  15.822  66.971  1.00  0.00    -0.216 A  
HETATM   17  I   UNL     1     -10.272  18.503  66.399  1.00  0.00    -0.381 I  
HETATM   18  N   UNL     1      -7.995  16.599  67.781  1.00  0.00    -0.169 NA 
HETATM   19  C   UNL     1      -8.791  14.405  66.980  1.00  0.00    -0.237 A  
HETATM   20  H1  UNL     1      -7.204  16.164  68.257  1.00  0.00     0.000 HD 
HETATM   21  I   UNL     1      -7.273  13.533  68.196  1.00  0.00    -0.181 I  
HETATM   22  H2  UNL     1      -8.563  17.082  68.478  1.00  0.00     0.000 HD 
ENDBRANCH   7  11
ENDBRANCH   3   7
TORSDOF 2
ENDMDL
MODEL       41
REMARK 921   NORMALIZED FREE ENERGY PREDICTED BY IDOCK:   -4.17 KCAL/MOL
REMARK 922        TOTAL FREE ENERGY PREDICTED BY IDOCK:   -4.76 KCAL/MOL
REMARK 923 INTER-LIGAND FREE ENERGY PREDICTED BY IDOCK:   -4.73 KCAL/MOL
REMARK 924 INTRA-LIGAND FREE ENERGY PREDICTED BY IDOCK:   -0.03 KCAL/MOL
REMARK 927      BINDING AFFINITY PREDICTED BY RF-SCORE:    0.00 PKD
ROOT
HETATM    1  C   UNL     1     -10.049  13.486  65.075  1.00  0.00    -0.280 C  
HETATM    2  C   UNL     1     -10.744  12.144  64.906  1.00  0.00    -0.336 C  
HETATM    3  C   UNL     1     -10.481  11.135  66.046  1.00  0.00    -0.256 C  
HETATM    4  C   UNL     1     -12.239  12.371  64.833  1.00  0.00    -0.418 C  
HETATM    5  O   UNL     1     -12.900  12.829  65.752  1.00  0.00    -0.381 OA 
HETATM    6  O   UNL     1     -12.788  12.028  63.649  1.00  0.00    -0.713 OA 
ENDROOT
BRANCH   3   7
HETATM    7  N   UNL     1      -9.078  10.678  66.196  1.00  0.00    -0.164 N  
HETATM    8  C   UNL     1      -8.443  10.133  65.069  1.00  0.00    -0.163 C  
HETATM    9  O   UNL     1      -8.988  10.058  63.966  1.00  0.00    -0.200 OA 
HETATM   10  C   UNL     1      -6.997   9.707  65.212  1.00  0.00    -0.101 C  
BRANCH   7  11
HETATM   11  C   UNL     1      -8.723  10.204  67.513  1.00  0.00    -0.125 A  
HETATM   12  C   UNL     1      -9.024   8.882  67.932  1.00  0.00    -0.139 A  
HETATM   13  I   UNL     1     -10.239   7.534  66.848  1.00  0.00    -0.229 I  
HETATM   14  C   UNL     1      -8.520   8.381  69.133  1.00  0.00    -0.123 A  
HETATM   15  C   UNL     1      -7.758   9.193  69.970  1.00  0.00    -0.088 A  
HETATM   16  C   UNL     1      -7.529  10.547  69.661  1.00  0.00    -0.141 A  
HETATM   17  I   UNL     1      -6.973   8.314  71.718  1.00  0.00    -0.107 I  
HETATM   18  N   UNL     1      -6.685  11.331  70.480  1.00  0.00    -0.451 NA 
HETATM   19  C   UNL     1      -7.971  11.016  68.397  1.00  0.00    -0.131 A  
HETATM   20  H1  UNL     1      -6.519  12.312  70.256  1.00  0.00     0.000 HD 
HETATM   21  I   UNL     1      -7.380  12.994  67.863  1.00  0.00    -0.183 I  
HETATM   22  H2  UNL     1      -5.783  10.861  70.554  1.00  0.00     0.000 HD 
ENDBRANCH   7  11
ENDBRANCH   3   7
TORSDOF 2
ENDMDL
MODEL       42
REMARK 921   NORMALIZED FREE ENERGY PREDICTED BY IDOCK:   -4.17 KCAL/MOL
REMARK 922        TOTAL FREE ENERGY PREDICTED BY IDOCK:   -4.76 KCAL/MOL
REMARK 923 INTER-LIGAND FREE ENERGY PREDICTED BY IDOCK:   -4.85 KCAL/MOL
REMARK 924 INTRA-LIGAND FREE ENERGY PREDICTED BY IDOCK:    0.09 KCAL/MOL
REMARK 927      BINDING AFFINITY PREDICTED BY RF-SCORE:    0.00 PKD
ROOT
HETATM    1  C   UNL     1     -13.008  13.638  66.183  1.00  0.00     0.074 C  
HETATM    2  C   UNL     1     -11.840  14.375  65.546  1.00  0.00    -0.357 C  
HETATM    3  C   UNL     1     -10.523  13.570  65.495  1.00  0.00    -0.299 C  
HETATM    4  C   UNL     1     -12.206  14.739  64.123  1.00  0.00    -0.295 C  
HETATM    5  O   UNL     1     -12.430  13.916  63.248  1.00  0.00    -0.817 OA 
HETATM    6  O   UNL     1     -12.275  16.068  63.898  1.00  0.00    -0.883 OA 
ENDROOT
BRANCH   3   7
HETATM    7  N   UNL     1      -9.922  13.226  66.806  1.00  0.00    -0.256 N  
HETATM    8  C   UNL     1      -8.714  13.852  67.157  1.00  0.00    -0.221 C  
HETATM    9  O   UNL     1      -8.166  14.693  66.443  1.00  0.00     0.188 OA 
HETATM   10  C   UNL     1      -8.125  13.534  68.515  1.00  0.00    -0.108 C  
BRANCH   7  11
HETATM   11  C   UNL     1     -10.194  11.889  67.277  1.00  0.00    -0.200 A  
HETATM   12  C   UNL     1      -9.668  10.748  66.617  1.00  0.00    -0.190 A  
HETATM   13  I   UNL     1      -8.674  10.801  64.752  1.00  0.00     0.083 I  
HETATM   14  C   UNL     1      -9.788   9.478  67.181  1.00  0.00    -0.239 A  
HETATM   15  C   UNL     1     -10.479   9.301  68.378  1.00  0.00    -0.206 A  
HETATM   16  C   UNL     1     -11.123  10.379  69.014  1.00  0.00    -0.248 A  
HETATM   17  I   UNL     1     -10.528   7.355  69.188  1.00  0.00    -0.155 I  
HETATM   18  N   UNL     1     -11.747  10.195  70.268  1.00  0.00    -0.291 NA 
HETATM   19  C   UNL     1     -10.916  11.676  68.477  1.00  0.00    -0.220 A  
HETATM   20  H1  UNL     1     -12.213  10.977  70.730  1.00  0.00     0.000 HD 
HETATM   21  I   UNL     1     -11.693  13.304  69.614  1.00  0.00    -0.210 I  
HETATM   22  H2  UNL     1     -11.061   9.804  70.914  1.00  0.00     0.000 HD 
ENDBRANCH   7  11
ENDBRANCH   3   7
TORSDOF 2
ENDMDL
MODEL       43
REMARK 921   NORMALIZED FREE ENERGY PREDICTED BY IDOCK:   -4.17 KCAL/MOL
REMARK 922        TOTAL FREE ENERGY PREDICTED BY IDOCK:   -4.76 KCAL/MOL
REMARK 923 INTER-LIGAND FREE ENERGY PREDICTED BY IDOCK:   -4.68 KCAL/MOL
REMARK 924 INTRA-LIGAND FREE ENERGY PREDICTED BY IDOCK:   -0.08 KCAL/MOL
REMARK 927      BINDING AFFINITY PREDICTED BY RF-SCORE:    0.00 PKD
ROOT
HETATM    1  C   UNL     1      -8.246  12.959  67.531  1.00  0.00    -0.184 C  
HETATM    2  C   UNL     1      -9.760  12.951  67.678  1.00  0.00    -0.212 C  
HETATM    3  C   UNL     1     -10.290  12.060  68.823  1.00  0.00    -0.160 C  
HETATM    4  C   UNL     1     -10.235  14.363  67.942  1.00  0.00    -0.232 C  
HETATM    5  O   UNL     1      -9.937  15.004  68.938  1.00  0.00    -0.221 OA 
HETATM    6  O   UNL     1     -11.021  14.868  66.968  1.00  0.00    -0.312 OA 
ENDROOT
BRANCH   3   7
HETATM    7  N   UNL     1     -10.040  10.605  68.682  1.00  0.00    -0.175 N  
HETATM    8  C   UNL     1     -10.720   9.920  67.661  1.00  0.00    -0.281 C  
HETATM    9  O   UNL     1     -11.475  10.484  66.866  1.00  0.00    -0.175 OA 
HETATM   10  C   UNL     1     -10.431   8.444  67.489  1.00  0.00    -0.328 C  
BRANCH   7  11
HETATM   11  C   UNL     1      -9.712   9.914  69.906  1.00  0.00    -0.235 A  
HETATM   12  C   UNL     1     -10.693   9.655  70.898  1.00  0.00    -0.332 A  
HETATM   13  I   UNL     1     -12.652  10.449  70.875  1.00  0.00    -0.486 I  
HETATM   14  C   UNL     1     -10.405   8.835  71.989  1.00  0.00    -0.411 A  
HETATM   15  C   UNL     1      -9.129   8.302  72.153  1.00  0.00    -0.212 A  
HETATM   16  C   UNL     1      -8.085   8.622  71.264  1.00  0.00    -0.147 A  
HETATM   17  I   UNL     1      -8.824   7.006  73.789  1.00  0.00    -0.264 I  
HETATM   18  N   UNL     1      -6.821   8.007  71.400  1.00  0.00    -0.050 NA 
HETATM   19  C   UNL     1      -8.415   9.383  70.113  1.00  0.00    -0.205 A  
HETATM   20  H1  UNL     1      -6.065   8.239  70.755  1.00  0.00     0.000 HD 
HETATM   21  I   UNL     1      -6.867   9.628  68.667  1.00  0.00    -0.056 I  
HETATM   22  H2  UNL     1      -6.954   6.995  71.388  1.00  0.00     0.000 HD 
ENDBRANCH   7  11
ENDBRANCH   3   7
TORSDOF 2
ENDMDL
MODEL       44
REMARK 921   NORMALIZED FREE ENERGY PREDICTED BY IDOCK:   -4.15 KCAL/MOL
REMARK 922        TOTAL FREE ENERGY PREDICTED BY IDOCK:   -4.73 KCAL/MOL
REMARK 923 INTER-LIGAND FREE ENERGY PREDICTED BY IDOCK:   -4.71 KCAL/MOL
REMARK 924 INTRA-LIGAND FREE ENERGY PREDICTED BY IDOCK:   -0.02 KCAL/MOL
REMARK 927      BINDING AFFINITY PREDICTED BY RF-SCORE:    0.00 PKD
ROOT
HETATM    1  C   UNL     1     -11.339   7.810  72.925  1.00  0.00    -0.406 C  
HETATM    2  C   UNL     1     -11.464   8.751  71.737  1.00  0.00    -0.413 C  
HETATM    3  C   UNL     1     -11.240   8.086  70.362  1.00  0.00    -0.229 C  
HETATM    4  C   UNL     1     -12.854   9.352  71.732  1.00  0.00    -0.399 C  
HETATM    5  O   UNL     1     -13.875   8.698  71.583  1.00  0.00    -0.382 OA 
HETATM    6  O   UNL     1     -12.873  10.689  71.917  1.00  0.00    -0.445 OA 
ENDROOT
BRANCH   3   7
HETATM    7  N   UNL     1      -9.881   7.547  70.116  1.00  0.00    -0.180 N  
HETATM    8  C   UNL     1      -8.792   8.420  70.276  1.00  0.00    -0.142 C  
HETATM    9  O   UNL     1      -8.921   9.589  70.644  1.00  0.00    -0.241 OA 
HETATM   10  C   UNL     1      -7.402   7.857  70.068  1.00  0.00    -0.070 C  
BRANCH   7  11
HETATM   11  C   UNL     1      -9.806   6.486  69.140  1.00  0.00    -0.144 A  
HETATM   12  C   UNL     1      -9.747   6.760  67.749  1.00  0.00    -0.124 A  
HETATM   13  I   UNL     1     -10.031   8.673  66.897  1.00  0.00    -0.358 I  
HETATM   14  C   UNL     1      -9.496   5.740  66.831  1.00  0.00    -0.142 A  
HETATM   15  C   UNL     1      -9.355   4.423  67.261  1.00  0.00    -0.155 A  
HETATM   16  C   UNL     1      -9.522   4.077  68.616  1.00  0.00    -0.154 A  
HETATM   17  I   UNL     1      -8.892   2.972  65.803  1.00  0.00    -0.130 I  
HETATM   18  N   UNL     1      -9.293   2.750  69.045  1.00  0.00    -0.154 NA 
HETATM   19  C   UNL     1      -9.688   5.134  69.547  1.00  0.00    -0.192 A  
HETATM   20  H1  UNL     1      -9.414   2.500  70.027  1.00  0.00     0.000 HD 
HETATM   21  I   UNL     1      -9.679   4.588  71.608  1.00  0.00    -0.252 I  
HETATM   22  H2  UNL     1      -8.353   2.477  68.757  1.00  0.00     0.000 HD 
ENDBRANCH   7  11
ENDBRANCH   3   7
TORSDOF 2
ENDMDL
MODEL       45
REMARK 921   NORMALIZED FREE ENERGY PREDICTED BY IDOCK:   -4.14 KCAL/MOL
REMARK 922        TOTAL FREE ENERGY PREDICTED BY IDOCK:   -4.72 KCAL/MOL
REMARK 923 INTER-LIGAND FREE ENERGY PREDICTED BY IDOCK:   -4.64 KCAL/MOL
REMARK 924 INTRA-LIGAND FREE ENERGY PREDICTED BY IDOCK:   -0.08 KCAL/MOL
REMARK 927      BINDING AFFINITY PREDICTED BY RF-SCORE:    0.00 PKD
ROOT
HETATM    1  C   UNL     1     -12.386   8.101  71.881  1.00  0.00    -0.371 C  
HETATM    2  C   UNL     1     -11.442   6.929  71.664  1.00  0.00    -0.312 C  
HETATM    3  C   UNL     1     -10.094   7.302  71.007  1.00  0.00    -0.191 C  
HETATM    4  C   UNL     1     -11.135   6.291  73.002  1.00  0.00    -0.207 C  
HETATM    5  O   UNL     1     -10.547   6.862  73.907  1.00  0.00    -0.369 OA 
HETATM    6  O   UNL     1     -11.580   5.022  73.118  1.00  0.00    -0.328 OA 
ENDROOT
BRANCH   3   7
HETATM    7  N   UNL     1     -10.171   7.827  69.622  1.00  0.00    -0.201 N  
HETATM    8  C   UNL     1     -10.655   6.967  68.622  1.00  0.00    -0.223 C  
HETATM    9  O   UNL     1     -11.048   5.823  68.858  1.00  0.00    -0.265 OA 
HETATM   10  C   UNL     1     -10.774   7.517  67.217  1.00  0.00    -0.365 C  
BRANCH   7  11
HETATM   11  C   UNL     1      -9.184   8.825  69.286  1.00  0.00    -0.149 A  
HETATM   12  C   UNL     1      -7.853   8.469  68.949  1.00  0.00    -0.109 A  
HETATM   13  I   UNL     1      -7.052   6.523  69.144  1.00  0.00    -0.096 I  
HETATM   14  C   UNL     1      -6.962   9.422  68.454  1.00  0.00    -0.067 A  
HETATM   15  C   UNL     1      -7.349  10.755  68.339  1.00  0.00    -0.092 A  
HETATM   16  C   UNL     1      -8.618  11.186  68.771  1.00  0.00    -0.132 A  
HETATM   17  I   UNL     1      -5.956  12.098  67.501  1.00  0.00    -0.138 I  
HETATM   18  N   UNL     1      -9.022  12.525  68.569  1.00  0.00    -0.363 NA 
HETATM   19  C   UNL     1      -9.542  10.193  69.186  1.00  0.00    -0.212 A  
HETATM   20  H1  UNL     1      -9.942  12.837  68.882  1.00  0.00     0.000 HD 
HETATM   21  I   UNL     1     -11.528  10.856  69.586  1.00  0.00    -0.449 I  
HETATM   22  H2  UNL     1      -8.930  12.742  67.576  1.00  0.00     0.000 HD 
ENDBRANCH   7  11
ENDBRANCH   3   7
TORSDOF 2
ENDMDL
MODEL       46
REMARK 921   NORMALIZED FREE ENERGY PREDICTED BY IDOCK:   -4.12 KCAL/MOL
REMARK 922        TOTAL FREE ENERGY PREDICTED BY IDOCK:   -4.70 KCAL/MOL
REMARK 923 INTER-LIGAND FREE ENERGY PREDICTED BY IDOCK:   -4.64 KCAL/MOL
REMARK 924 INTRA-LIGAND FREE ENERGY PREDICTED BY IDOCK:   -0.06 KCAL/MOL
REMARK 927      BINDING AFFINITY PREDICTED BY RF-SCORE:    0.00 PKD
ROOT
HETATM    1  C   UNL     1     -11.793  11.245  70.106  1.00  0.00    -0.449 C  
HETATM    2  C   UNL     1     -10.990  10.124  69.464  1.00  0.00    -0.295 C  
HETATM    3  C   UNL     1      -9.657  10.573  68.825  1.00  0.00    -0.179 C  
HETATM    4  C   UNL     1     -10.664   9.088  70.518  1.00  0.00    -0.239 C  
HETATM    5  O   UNL     1      -9.962   9.309  71.493  1.00  0.00    -0.307 OA 
HETATM    6  O   UNL     1     -11.227   7.883  70.293  1.00  0.00    -0.264 OA 
ENDROOT
BRANCH   3   7
HETATM    7  N   UNL     1      -9.770  11.498  67.672  1.00  0.00    -0.172 N  
HETATM    8  C   UNL     1      -9.999  10.939  66.404  1.00  0.00    -0.221 C  
HETATM    9  O   UNL     1     -10.147   9.729  66.224  1.00  0.00    -0.244 OA 
HETATM   10  C   UNL     1     -10.159  11.887  65.234  1.00  0.00    -0.290 C  
BRANCH   7  11
HETATM   11  C   UNL     1      -9.007  12.719  67.784  1.00  0.00    -0.190 A  
HETATM   12  C   UNL     1      -7.595  12.726  67.651  1.00  0.00    -0.152 A  
HETATM   13  I   UNL     1      -6.396  10.987  67.551  1.00  0.00    -0.080 I  
HETATM   14  C   UNL     1      -6.890  13.928  67.583  1.00  0.00    -0.193 A  
HETATM   15  C   UNL     1      -7.558  15.144  67.703  1.00  0.00    -0.174 A  
HETATM   16  C   UNL     1      -8.943  15.194  67.955  1.00  0.00    -0.174 A  
HETATM   17  I   UNL     1      -6.412  16.903  67.500  1.00  0.00    -0.228 I  
HETATM   18  N   UNL     1      -9.615  16.436  67.990  1.00  0.00    -0.223 NA 
HETATM   19  C   UNL     1      -9.657  13.969  67.932  1.00  0.00    -0.221 A  
HETATM   20  H1  UNL     1     -10.619  16.471  68.173  1.00  0.00     0.000 HD 
HETATM   21  I   UNL     1     -11.781  14.111  68.062  1.00  0.00    -0.346 I  
HETATM   22  H2  UNL     1      -9.431  16.926  67.115  1.00  0.00     0.000 HD 
ENDBRANCH   7  11
ENDBRANCH   3   7
TORSDOF 2
ENDMDL
MODEL       47
REMARK 921   NORMALIZED FREE ENERGY PREDICTED BY IDOCK:   -4.07 KCAL/MOL
REMARK 922        TOTAL FREE ENERGY PREDICTED BY IDOCK:   -4.65 KCAL/MOL
REMARK 923 INTER-LIGAND FREE ENERGY PREDICTED BY IDOCK:   -4.55 KCAL/MOL
REMARK 924 INTRA-LIGAND FREE ENERGY PREDICTED BY IDOCK:   -0.10 KCAL/MOL
REMARK 927      BINDING AFFINITY PREDICTED BY RF-SCORE:    0.00 PKD
ROOT
HETATM    1  C   UNL     1      -8.887   7.454  66.564  1.00  0.00    -0.165 C  
HETATM    2  C   UNL     1      -9.497   6.521  67.599  1.00  0.00    -0.126 C  
HETATM    3  C   UNL     1     -10.454   7.207  68.598  1.00  0.00    -0.197 C  
HETATM    4  C   UNL     1     -10.282   5.441  66.885  1.00  0.00    -0.240 C  
HETATM    5  O   UNL     1     -11.270   5.661  66.200  1.00  0.00     0.052 OA 
HETATM    6  O   UNL     1      -9.789   4.198  67.062  1.00  0.00    -0.212 OA 
ENDROOT
BRANCH   3   7
HETATM    7  N   UNL     1      -9.840   8.216  69.495  1.00  0.00    -0.178 N  
HETATM    8  C   UNL     1      -8.830   7.785  70.370  1.00  0.00    -0.146 C  
HETATM    9  O   UNL     1      -8.414   6.625  70.391  1.00  0.00    -0.131 OA 
HETATM   10  C   UNL     1      -8.173   8.824  71.255  1.00  0.00    -0.212 C  
BRANCH   7  11
HETATM   11  C   UNL     1     -10.709   9.300  69.890  1.00  0.00    -0.234 A  
HETATM   12  C   UNL     1     -11.707   9.127  70.883  1.00  0.00    -0.284 A  
HETATM   13  I   UNL     1     -12.252   7.263  71.716  1.00  0.00    -0.360 I  
HETATM   14  C   UNL     1     -12.415  10.222  71.380  1.00  0.00    -0.528 A  
HETATM   15  C   UNL     1     -12.194  11.497  70.867  1.00  0.00    -0.322 A  
HETATM   16  C   UNL     1     -11.302  11.708  69.798  1.00  0.00    -0.200 A  
HETATM   17  I   UNL     1     -13.255  13.092  71.747  1.00  0.00    -0.235 I  
HETATM   18  N   UNL     1     -11.030  13.018  69.347  1.00  0.00    -0.452 NA 
HETATM   19  C   UNL     1     -10.525  10.603  69.364  1.00  0.00    -0.225 A  
HETATM   20  H1  UNL     1     -10.383  13.171  68.572  1.00  0.00     0.000 HD 
HETATM   21  I   UNL     1      -9.009  11.020  67.925  1.00  0.00    -0.160 I  
HETATM   22  H2  UNL     1     -10.714  13.573  70.143  1.00  0.00     0.000 HD 
ENDBRANCH   7  11
ENDBRANCH   3   7
TORSDOF 2
ENDMDL
MODEL       48
REMARK 921   NORMALIZED FREE ENERGY PREDICTED BY IDOCK:   -4.07 KCAL/MOL
REMARK 922        TOTAL FREE ENERGY PREDICTED BY IDOCK:   -4.64 KCAL/MOL
REMARK 923 INTER-LIGAND FREE ENERGY PREDICTED BY IDOCK:   -4.55 KCAL/MOL
REMARK 924 INTRA-LIGAND FREE ENERGY PREDICTED BY IDOCK:   -0.09 KCAL/MOL
REMARK 927      BINDING AFFINITY PREDICTED BY RF-SCORE:    0.00 PKD
ROOT
HETATM    1  C   UNL     1     -10.156  10.343  64.837  1.00  0.00    -0.382 C  
HETATM    2  C   UNL     1      -8.650  10.343  65.052  1.00  0.00    -0.190 C  
HETATM    3  C   UNL     1      -8.211  10.247  66.529  1.00  0.00    -0.127 C  
HETATM    4  C   UNL     1      -8.049   9.162  64.321  1.00  0.00    -0.148 C  
HETATM    5  O   UNL     1      -8.294   7.997  64.597  1.00  0.00    -0.138 OA 
HETATM    6  O   UNL     1      -7.214   9.506  63.318  1.00  0.00    -0.101 OA 
ENDROOT
BRANCH   3   7
HETATM    7  N   UNL     1      -8.592  11.390  67.394  1.00  0.00    -0.139 N  
HETATM    8  C   UNL     1      -7.626  12.383  67.630  1.00  0.00    -0.141 C  
HETATM    9  O   UNL     1      -6.504  12.358  67.120  1.00  0.00    -0.159 OA 
HETATM   10  C   UNL     1      -8.029  13.572  68.477  1.00  0.00    -0.119 C  
BRANCH   7  11
HETATM   11  C   UNL     1      -9.570  11.093  68.414  1.00  0.00    -0.192 A  
HETATM   12  C   UNL     1     -10.901  11.575  68.328  1.00  0.00    -0.216 A  
HETATM   13  I   UNL     1     -11.572  12.981  66.899  1.00  0.00    -0.445 I  
HETATM   14  C   UNL     1     -11.879  11.135  69.221  1.00  0.00    -0.422 A  
HETATM   15  C   UNL     1     -11.549  10.257  70.250  1.00  0.00    -0.316 A  
HETATM   16  C   UNL     1     -10.220   9.840  70.455  1.00  0.00    -0.281 A  
HETATM   17  I   UNL     1     -13.117   9.588  71.491  1.00  0.00    -0.473 I  
HETATM   18  N   UNL     1      -9.919   8.885  71.451  1.00  0.00    -0.280 NA 
HETATM   19  C   UNL     1      -9.256  10.223  69.488  1.00  0.00    -0.170 A  
HETATM   20  H1  UNL     1      -8.956   8.582  71.599  1.00  0.00     0.000 HD 
HETATM   21  I   UNL     1      -7.316   9.362  69.692  1.00  0.00    -0.117 I  
HETATM   22  H2  UNL     1     -10.494   8.058  71.288  1.00  0.00     0.000 HD 
ENDBRANCH   7  11
ENDBRANCH   3   7
TORSDOF 2
ENDMDL
MODEL       49
REMARK 921   NORMALIZED FREE ENERGY PREDICTED BY IDOCK:   -4.06 KCAL/MOL
REMARK 922        TOTAL FREE ENERGY PREDICTED BY IDOCK:   -4.63 KCAL/MOL
REMARK 923 INTER-LIGAND FREE ENERGY PREDICTED BY IDOCK:   -4.81 KCAL/MOL
REMARK 924 INTRA-LIGAND FREE ENERGY PREDICTED BY IDOCK:    0.18 KCAL/MOL
REMARK 927      BINDING AFFINITY PREDICTED BY RF-SCORE:    0.00 PKD
ROOT
HETATM    1  C   UNL     1     -11.879  11.285  69.142  1.00  0.00    -0.423 C  
HETATM    2  C   UNL     1     -11.015  10.063  68.872  1.00  0.00    -0.244 C  
HETATM    3  C   UNL     1      -9.589  10.380  68.372  1.00  0.00    -0.148 C  
HETATM    4  C   UNL     1     -10.881   9.265  70.152  1.00  0.00    -0.242 C  
HETATM    5  O   UNL     1     -10.332   9.685  71.159  1.00  0.00    -0.294 OA 
HETATM    6  O   UNL     1     -11.434   8.035  70.090  1.00  0.00    -0.159 OA 
ENDROOT
BRANCH   3   7
HETATM    7  N   UNL     1      -9.500  11.051  67.052  1.00  0.00    -0.171 N  
HETATM    8  C   UNL     1      -9.093  10.277  65.951  1.00  0.00    -0.163 C  
HETATM    9  O   UNL     1      -8.851   9.072  66.035  1.00  0.00    -0.153 OA 
HETATM   10  C   UNL     1      -9.045  10.952  64.596  1.00  0.00    -0.189 C  
BRANCH   7  11
HETATM   11  C   UNL     1      -9.170  12.456  67.095  1.00  0.00    -0.199 A  
HETATM   12  C   UNL     1      -7.923  12.911  67.594  1.00  0.00    -0.167 A  
HETATM   13  I   UNL     1      -6.510  11.682  68.575  1.00  0.00    -0.071 I  
HETATM   14  C   UNL     1      -7.547  14.248  67.465  1.00  0.00    -0.202 A  
HETATM   15  C   UNL     1      -8.419  15.173  66.895  1.00  0.00    -0.244 A  
HETATM   16  C   UNL     1      -9.715  14.800  66.491  1.00  0.00    -0.278 A  
HETATM   17  I   UNL     1      -7.720  17.150  66.670  1.00  0.00    -0.377 I  
HETATM   18  N   UNL     1     -10.553  15.733  65.839  1.00  0.00    -0.329 NA 
HETATM   19  C   UNL     1     -10.049  13.423  66.546  1.00  0.00    -0.280 A  
HETATM   20  H1  UNL     1     -11.492  15.462  65.546  1.00  0.00     0.000 HD 
HETATM   21  I   UNL     1     -11.920  12.868  65.688  1.00  0.00    -0.478 I  
HETATM   22  H2  UNL     1     -10.055  16.098  65.026  1.00  0.00     0.000 HD 
ENDBRANCH   7  11
ENDBRANCH   3   7
TORSDOF 2
ENDMDL
MODEL       50
REMARK 921   NORMALIZED FREE ENERGY PREDICTED BY IDOCK:   -4.06 KCAL/MOL
REMARK 922        TOTAL FREE ENERGY PREDICTED BY IDOCK:   -4.63 KCAL/MOL
REMARK 923 INTER-LIGAND FREE ENERGY PREDICTED BY IDOCK:   -4.52 KCAL/MOL
REMARK 924 INTRA-LIGAND FREE ENERGY PREDICTED BY IDOCK:   -0.11 KCAL/MOL
REMARK 927      BINDING AFFINITY PREDICTED BY RF-SCORE:    0.00 PKD
ROOT
HETATM    1  C   UNL     1     -11.394   7.662  73.012  1.00  0.00    -0.334 C  
HETATM    2  C   UNL     1     -11.520   8.632  71.847  1.00  0.00    -0.419 C  
HETATM    3  C   UNL     1     -11.076   8.060  70.483  1.00  0.00    -0.251 C  
HETATM    4  C   UNL     1     -12.968   9.053  71.715  1.00  0.00    -0.377 C  
HETATM    5  O   UNL     1     -13.876   8.284  71.439  1.00  0.00    -0.323 OA 
HETATM    6  O   UNL     1     -13.178  10.367  71.937  1.00  0.00    -0.439 OA 
ENDROOT
BRANCH   3   7
HETATM    7  N   UNL     1      -9.641   7.706  70.365  1.00  0.00    -0.168 N  
HETATM    8  C   UNL     1      -8.747   8.719  69.977  1.00  0.00    -0.144 C  
HETATM    9  O   UNL     1      -9.102   9.881  69.773  1.00  0.00    -0.212 OA 
HETATM   10  C   UNL     1      -7.276   8.368  69.900  1.00  0.00    -0.055 C  
BRANCH   7  11
HETATM   11  C   UNL     1      -9.372   6.338  69.991  1.00  0.00    -0.155 A  
HETATM   12  C   UNL     1      -8.873   5.397  70.928  1.00  0.00    -0.138 A  
HETATM   13  I   UNL     1      -8.205   5.888  72.873  1.00  0.00    -0.116 I  
HETATM   14  C   UNL     1      -8.788   4.042  70.603  1.00  0.00    -0.132 A  
HETATM   15  C   UNL     1      -9.137   3.600  69.330  1.00  0.00    -0.133 A  
HETATM   16  C   UNL     1      -9.524   4.506  68.324  1.00  0.00    -0.149 A  
HETATM   17  I   UNL     1      -9.053   1.524  68.970  1.00  0.00    -0.186 I  
HETATM   18  N   UNL     1      -9.954   4.030  67.065  1.00  0.00    -0.275 NA 
HETATM   19  C   UNL     1      -9.692   5.865  68.694  1.00  0.00    -0.127 A  
HETATM   20  H1  UNL     1     -10.234   4.687  66.336  1.00  0.00     0.000 HD 
HETATM   21  I   UNL     1     -10.524   7.153  67.213  1.00  0.00    -0.386 I  
HETATM   22  H2  UNL     1     -10.718   3.370  67.215  1.00  0.00     0.000 HD 
ENDBRANCH   7  11
ENDBRANCH   3   7
TORSDOF 2
ENDMDL
MODEL       51
REMARK 921   NORMALIZED FREE ENERGY PREDICTED BY IDOCK:   -4.04 KCAL/MOL
REMARK 922        TOTAL FREE ENERGY PREDICTED BY IDOCK:   -4.61 KCAL/MOL
REMARK 923 INTER-LIGAND FREE ENERGY PREDICTED BY IDOCK:   -4.55 KCAL/MOL
REMARK 924 INTRA-LIGAND FREE ENERGY PREDICTED BY IDOCK:   -0.06 KCAL/MOL
REMARK 927      BINDING AFFINITY PREDICTED BY RF-SCORE:    0.00 PKD
ROOT
HETATM    1  C   UNL     1      -8.059  14.106  68.540  1.00  0.00    -0.143 C  
HETATM    2  C   UNL     1      -9.539  14.115  68.186  1.00  0.00    -0.218 C  
HETATM    3  C   UNL     1     -10.315  12.858  68.636  1.00  0.00    -0.188 C  
HETATM    4  C   UNL     1     -10.192  15.313  68.841  1.00  0.00    -0.232 C  
HETATM    5  O   UNL     1     -10.271  15.466  70.051  1.00  0.00    -0.296 OA 
HETATM    6  O   UNL     1     -10.682  16.216  67.966  1.00  0.00    -0.299 OA 
ENDROOT
BRANCH   3   7
HETATM    7  N   UNL     1      -9.909  11.582  67.998  1.00  0.00    -0.182 N  
HETATM    8  C   UNL     1     -10.718  11.081  66.964  1.00  0.00    -0.270 C  
HETATM    9  O   UNL     1     -11.715  11.674  66.550  1.00  0.00    -0.498 OA 
HETATM   10  C   UNL     1     -10.278   9.801  66.284  1.00  0.00    -0.282 C  
BRANCH   7  11
HETATM   11  C   UNL     1      -9.197  10.664  68.854  1.00  0.00    -0.183 A  
HETATM   12  C   UNL     1      -7.818  10.390  68.667  1.00  0.00    -0.108 A  
HETATM   13  I   UNL     1      -6.688  11.040  67.003  1.00  0.00    -0.138 I  
HETATM   14  C   UNL     1      -7.104   9.644  69.605  1.00  0.00    -0.075 A  
HETATM   15  C   UNL     1      -7.750   9.104  70.715  1.00  0.00    -0.141 A  
HETATM   16  C   UNL     1      -9.140   9.243  70.889  1.00  0.00    -0.222 A  
HETATM   17  I   UNL     1      -6.563   8.065  72.115  1.00  0.00    -0.089 I  
HETATM   18  N   UNL     1      -9.762   8.760  72.061  1.00  0.00    -0.317 NA 
HETATM   19  C   UNL     1      -9.835  10.078  69.976  1.00  0.00    -0.197 A  
HETATM   20  H1  UNL     1     -10.770   8.861  72.187  1.00  0.00     0.000 HD 
HETATM   21  I   UNL     1     -11.883  10.467  70.423  1.00  0.00    -0.469 I  
HETATM   22  H2  UNL     1      -9.295   9.176  72.867  1.00  0.00     0.000 HD 
ENDBRANCH   7  11
ENDBRANCH   3   7
TORSDOF 2
ENDMDL
MODEL       52
REMARK 921   NORMALIZED FREE ENERGY PREDICTED BY IDOCK:   -4.02 KCAL/MOL
REMARK 922        TOTAL FREE ENERGY PREDICTED BY IDOCK:   -4.59 KCAL/MOL
REMARK 923 INTER-LIGAND FREE ENERGY PREDICTED BY IDOCK:   -4.54 KCAL/MOL
REMARK 924 INTRA-LIGAND FREE ENERGY PREDICTED BY IDOCK:   -0.06 KCAL/MOL
REMARK 927      BINDING AFFINITY PREDICTED BY RF-SCORE:    0.00 PKD
ROOT
HETATM    1  C   UNL     1     -12.155  11.498  69.271  1.00  0.00    -0.344 C  
HETATM    2  C   UNL     1     -11.056  12.097  68.406  1.00  0.00    -0.289 C  
HETATM    3  C   UNL     1     -10.122  11.061  67.744  1.00  0.00    -0.177 C  
HETATM    4  C   UNL     1     -11.692  12.910  67.299  1.00  0.00    -0.373 C  
HETATM    5  O   UNL     1     -12.401  12.431  66.427  1.00  0.00    -0.539 OA 
HETATM    6  O   UNL     1     -11.415  14.229  67.360  1.00  0.00    -0.312 OA 
ENDROOT
BRANCH   3   7
HETATM    7  N   UNL     1      -9.300  10.244  68.670  1.00  0.00    -0.154 N  
HETATM    8  C   UNL     1      -8.078  10.782  69.107  1.00  0.00    -0.131 C  
HETATM    9  O   UNL     1      -7.690  11.906  68.786  1.00  0.00    -0.127 OA 
HETATM   10  C   UNL     1      -7.261   9.967  70.087  1.00  0.00    -0.159 C  
BRANCH   7  11
HETATM   11  C   UNL     1      -9.434   8.815  68.516  1.00  0.00    -0.145 A  
HETATM   12  C   UNL     1      -8.897   8.135  67.393  1.00  0.00    -0.127 A  
HETATM   13  I   UNL     1      -8.088   9.095  65.692  1.00  0.00    -0.138 I  
HETATM   14  C   UNL     1      -8.876   6.741  67.344  1.00  0.00    -0.117 A  
HETATM   15  C   UNL     1      -9.438   5.992  68.375  1.00  0.00    -0.119 A  
HETATM   16  C   UNL     1     -10.091   6.614  69.456  1.00  0.00    -0.177 A  
HETATM   17  I   UNL     1      -9.278   3.893  68.245  1.00  0.00    -0.204 I  
HETATM   18  N   UNL     1     -10.581   5.840  70.532  1.00  0.00    -0.270 NA 
HETATM   19  C   UNL     1     -10.025   8.029  69.536  1.00  0.00    -0.186 A  
HETATM   20  H1  UNL     1     -11.054   6.291  71.316  1.00  0.00     0.000 HD 
HETATM   21  I   UNL     1     -10.801   8.912  71.315  1.00  0.00    -0.449 I  
HETATM   22  H2  UNL     1      -9.812   5.280  70.901  1.00  0.00     0.000 HD 
ENDBRANCH   7  11
ENDBRANCH   3   7
TORSDOF 2
ENDMDL
MODEL       53
REMARK 921   NORMALIZED FREE ENERGY PREDICTED BY IDOCK:   -4.01 KCAL/MOL
REMARK 922        TOTAL FREE ENERGY PREDICTED BY IDOCK:   -4.57 KCAL/MOL
REMARK 923 INTER-LIGAND FREE ENERGY PREDICTED BY IDOCK:   -4.52 KCAL/MOL
REMARK 924 INTRA-LIGAND FREE ENERGY PREDICTED BY IDOCK:   -0.06 KCAL/MOL
REMARK 927      BINDING AFFINITY PREDICTED BY RF-SCORE:    0.00 PKD
ROOT
HETATM    1  C   UNL     1     -11.998   6.049  72.433  1.00  0.00    -0.232 C  
HETATM    2  C   UNL     1     -12.030   7.467  71.883  1.00  0.00    -0.337 C  
HETATM    3  C   UNL     1     -11.423   7.623  70.472  1.00  0.00    -0.218 C  
HETATM    4  C   UNL     1     -13.468   7.935  71.815  1.00  0.00    -0.335 C  
HETATM    5  O   UNL     1     -14.315   7.420  71.101  1.00  0.00    -0.373 OA 
HETATM    6  O   UNL     1     -13.743   8.978  72.625  1.00  0.00    -0.470 OA 
ENDROOT
BRANCH   3   7
HETATM    7  N   UNL     1      -9.972   7.337  70.355  1.00  0.00    -0.190 N  
HETATM    8  C   UNL     1      -9.081   8.183  71.036  1.00  0.00    -0.152 C  
HETATM    9  O   UNL     1      -9.458   9.115  71.748  1.00  0.00    -0.312 OA 
HETATM   10  C   UNL     1      -7.604   7.864  70.952  1.00  0.00    -0.078 C  
BRANCH   7  11
HETATM   11  C   UNL     1      -9.563   6.724  69.113  1.00  0.00    -0.139 A  
HETATM   12  C   UNL     1      -9.285   5.335  69.027  1.00  0.00    -0.118 A  
HETATM   13  I   UNL     1      -9.157   4.038  70.692  1.00  0.00    -0.225 I  
HETATM   14  C   UNL     1      -9.066   4.726  67.791  1.00  0.00    -0.130 A  
HETATM   15  C   UNL     1      -9.060   5.484  66.623  1.00  0.00    -0.126 A  
HETATM   16  C   UNL     1      -9.212   6.884  66.662  1.00  0.00    -0.157 A  
HETATM   17  I   UNL     1      -8.805   4.454  64.801  1.00  0.00    -0.152 I  
HETATM   18  N   UNL     1      -9.286   7.625  65.461  1.00  0.00    -0.373 NA 
HETATM   19  C   UNL     1      -9.522   7.476  67.913  1.00  0.00    -0.141 A  
HETATM   20  H1  UNL     1      -9.396   8.639  65.489  1.00  0.00     0.000 HD 
HETATM   21  I   UNL     1      -9.997   9.554  67.884  1.00  0.00    -0.258 I  
HETATM   22  H2  UNL     1     -10.036   7.236  64.889  1.00  0.00     0.000 HD 
ENDBRANCH   7  11
ENDBRANCH   3   7
TORSDOF 2
ENDMDL
MODEL       54
REMARK 921   NORMALIZED FREE ENERGY PREDICTED BY IDOCK:   -4.00 KCAL/MOL
REMARK 922        TOTAL FREE ENERGY PREDICTED BY IDOCK:   -4.57 KCAL/MOL
REMARK 923 INTER-LIGAND FREE ENERGY PREDICTED BY IDOCK:   -4.64 KCAL/MOL
REMARK 924 INTRA-LIGAND FREE ENERGY PREDICTED BY IDOCK:    0.07 KCAL/MOL
REMARK 927      BINDING AFFINITY PREDICTED BY RF-SCORE:    0.00 PKD
ROOT
HETATM    1  C   UNL     1      -8.394   5.708  64.649  1.00  0.00    -0.119 C  
HETATM    2  C   UNL     1      -8.982   5.626  66.050  1.00  0.00    -0.158 C  
HETATM    3  C   UNL     1      -9.708   6.906  66.518  1.00  0.00    -0.124 C  
HETATM    4  C   UNL     1      -9.984   4.492  66.096  1.00  0.00    -0.248 C  
HETATM    5  O   UNL     1     -11.014   4.470  65.440  1.00  0.00    -0.256 OA 
HETATM    6  O   UNL     1      -9.635   3.488  66.927  1.00  0.00    -0.197 OA 
ENDROOT
BRANCH   3   7
HETATM    7  N   UNL     1      -8.860   8.114  66.669  1.00  0.00    -0.136 N  
HETATM    8  C   UNL     1      -7.818   8.069  67.611  1.00  0.00    -0.122 C  
HETATM    9  O   UNL     1      -7.563   7.065  68.277  1.00  0.00    -0.106 OA 
HETATM   10  C   UNL     1      -6.926   9.286  67.732  1.00  0.00    -0.081 C  
BRANCH   7  11
HETATM   11  C   UNL     1      -9.520   9.368  66.397  1.00  0.00    -0.201 A  
HETATM   12  C   UNL     1      -9.444   9.987  65.123  1.00  0.00    -0.270 A  
HETATM   13  I   UNL     1      -8.174   9.345  63.559  1.00  0.00    -0.206 I  
HETATM   14  C   UNL     1     -10.229  11.100  64.821  1.00  0.00    -0.365 A  
HETATM   15  C   UNL     1     -11.060  11.659  65.789  1.00  0.00    -0.256 A  
HETATM   16  C   UNL     1     -11.086  11.159  67.105  1.00  0.00    -0.287 A  
HETATM   17  I   UNL     1     -12.267  13.287  65.205  1.00  0.00    -0.543 I  
HETATM   18  N   UNL     1     -11.996  11.686  68.048  1.00  0.00    -0.609 NA 
HETATM   19  C   UNL     1     -10.352   9.975  67.371  1.00  0.00    -0.238 A  
HETATM   20  H1  UNL     1     -12.015  11.323  69.002  1.00  0.00     0.000 HD 
HETATM   21  I   UNL     1     -10.622   9.109  69.300  1.00  0.00    -0.118 I  
HETATM   22  H2  UNL     1     -12.937  11.618  67.660  1.00  0.00     0.000 HD 
ENDBRANCH   7  11
ENDBRANCH   3   7
TORSDOF 2
ENDMDL
MODEL       55
REMARK 921   NORMALIZED FREE ENERGY PREDICTED BY IDOCK:   -4.00 KCAL/MOL
REMARK 922        TOTAL FREE ENERGY PREDICTED BY IDOCK:   -4.57 KCAL/MOL
REMARK 923 INTER-LIGAND FREE ENERGY PREDICTED BY IDOCK:   -4.59 KCAL/MOL
REMARK 924 INTRA-LIGAND FREE ENERGY PREDICTED BY IDOCK:    0.02 KCAL/MOL
REMARK 927      BINDING AFFINITY PREDICTED BY RF-SCORE:    0.00 PKD
ROOT
HETATM    1  C   UNL     1      -9.996   8.215  72.973  1.00  0.00    -0.303 C  
HETATM    2  C   UNL     1      -8.831   7.620  72.197  1.00  0.00    -0.161 C  
HETATM    3  C   UNL     1      -8.643   8.197  70.777  1.00  0.00    -0.134 C  
HETATM    4  C   UNL     1      -7.551   7.872  72.964  1.00  0.00    -0.120 C  
HETATM    5  O   UNL     1      -7.101   8.986  73.186  1.00  0.00    -0.330 OA 
HETATM    6  O   UNL     1      -6.942   6.749  73.396  1.00  0.00    -0.075 OA 
ENDROOT
BRANCH   3   7
HETATM    7  N   UNL     1      -9.746   7.937  69.820  1.00  0.00    -0.175 N  
HETATM    8  C   UNL     1     -10.111   6.599  69.591  1.00  0.00    -0.181 C  
HETATM    9  O   UNL     1      -9.583   5.653  70.177  1.00  0.00    -0.157 OA 
HETATM   10  C   UNL     1     -11.266   6.337  68.648  1.00  0.00    -0.328 C  
BRANCH   7  11
HETATM   11  C   UNL     1      -9.881   8.903  68.756  1.00  0.00    -0.173 A  
HETATM   12  C   UNL     1      -9.125   8.802  67.560  1.00  0.00    -0.133 A  
HETATM   13  I   UNL     1      -7.539   7.435  67.263  1.00  0.00    -0.112 I  
HETATM   14  C   UNL     1      -9.392   9.634  66.473  1.00  0.00    -0.212 A  
HETATM   15  C   UNL     1     -10.371  10.621  66.566  1.00  0.00    -0.241 A  
HETATM   16  C   UNL     1     -11.069  10.845  67.768  1.00  0.00    -0.309 A  
HETATM   17  I   UNL     1     -10.755  11.768  64.838  1.00  0.00    -0.353 I  
HETATM   18  N   UNL     1     -12.114  11.794  67.817  1.00  0.00    -0.560 NA 
HETATM   19  C   UNL     1     -10.850   9.935  68.833  1.00  0.00    -0.210 A  
HETATM   20  H1  UNL     1     -12.620  11.956  68.688  1.00  0.00     0.000 HD 
HETATM   21  I   UNL     1     -12.110  10.154  70.539  1.00  0.00    -0.317 I  
HETATM   22  H2  UNL     1     -12.792  11.563  67.090  1.00  0.00     0.000 HD 
ENDBRANCH   7  11
ENDBRANCH   3   7
TORSDOF 2
ENDMDL
MODEL       56
REMARK 921   NORMALIZED FREE ENERGY PREDICTED BY IDOCK:   -3.98 KCAL/MOL
REMARK 922        TOTAL FREE ENERGY PREDICTED BY IDOCK:   -4.54 KCAL/MOL
REMARK 923 INTER-LIGAND FREE ENERGY PREDICTED BY IDOCK:   -4.47 KCAL/MOL
REMARK 924 INTRA-LIGAND FREE ENERGY PREDICTED BY IDOCK:   -0.07 KCAL/MOL
REMARK 927      BINDING AFFINITY PREDICTED BY RF-SCORE:    0.00 PKD
ROOT
HETATM    1  C   UNL     1      -9.207  12.430  66.348  1.00  0.00    -0.192 C  
HETATM    2  C   UNL     1      -9.893  11.285  65.619  1.00  0.00    -0.277 C  
HETATM    3  C   UNL     1     -10.091  10.009  66.466  1.00  0.00    -0.232 C  
HETATM    4  C   UNL     1     -11.260  11.745  65.160  1.00  0.00    -0.250 C  
HETATM    5  O   UNL     1     -12.158  12.068  65.923  1.00  0.00    -0.546 OA 
HETATM    6  O   UNL     1     -11.406  11.777  63.819  1.00  0.00    -0.395 OA 
ENDROOT
BRANCH   3   7
HETATM    7  N   UNL     1      -8.852   9.324  66.906  1.00  0.00    -0.126 N  
HETATM    8  C   UNL     1      -8.122   8.608  65.941  1.00  0.00    -0.111 C  
HETATM    9  O   UNL     1      -8.450   8.562  64.754  1.00  0.00    -0.170 OA 
HETATM   10  C   UNL     1      -6.834   7.945  66.382  1.00  0.00    -0.062 C  
BRANCH   7  11
HETATM   11  C   UNL     1      -8.849   8.876  68.278  1.00  0.00    -0.134 A  
HETATM   12  C   UNL     1      -8.163   9.592  69.292  1.00  0.00    -0.123 A  
HETATM   13  I   UNL     1      -6.854  11.212  68.930  1.00  0.00    -0.114 I  
HETATM   14  C   UNL     1      -8.315   9.251  70.636  1.00  0.00    -0.245 A  
HETATM   15  C   UNL     1      -9.101   8.160  71.001  1.00  0.00    -0.152 A  
HETATM   16  C   UNL     1      -9.708   7.341  70.029  1.00  0.00    -0.175 A  
HETATM   17  I   UNL     1      -9.334   7.781  73.062  1.00  0.00    -0.355 I  
HETATM   18  N   UNL     1     -10.568   6.291  70.421  1.00  0.00    -0.234 NA 
HETATM   19  C   UNL     1      -9.618   7.753  68.675  1.00  0.00    -0.154 A  
HETATM   20  H1  UNL     1     -11.008   5.698  69.716  1.00  0.00     0.000 HD 
HETATM   21  I   UNL     1     -10.763   6.634  67.267  1.00  0.00    -0.425 I  
HETATM   22  H2  UNL     1     -11.300   6.680  71.016  1.00  0.00     0.000 HD 
ENDBRANCH   7  11
ENDBRANCH   3   7
TORSDOF 2
ENDMDL
MODEL       57
REMARK 921   NORMALIZED FREE ENERGY PREDICTED BY IDOCK:   -3.97 KCAL/MOL
REMARK 922        TOTAL FREE ENERGY PREDICTED BY IDOCK:   -4.54 KCAL/MOL
REMARK 923 INTER-LIGAND FREE ENERGY PREDICTED BY IDOCK:   -5.09 KCAL/MOL
REMARK 924 INTRA-LIGAND FREE ENERGY PREDICTED BY IDOCK:    0.55 KCAL/MOL
REMARK 927      BINDING AFFINITY PREDICTED BY RF-SCORE:    0.00 PKD
ROOT
HETATM    1  C   UNL     1     -11.296  13.693  69.818  1.00  0.00    -0.181 C  
HETATM    2  C   UNL     1     -11.264  15.202  70.003  1.00  0.00    -0.301 C  
HETATM    3  C   UNL     1     -11.296  16.012  68.689  1.00  0.00    -0.383 C  
HETATM    4  C   UNL     1     -12.463  15.621  70.827  1.00  0.00    -0.435 C  
HETATM    5  O   UNL     1     -13.620  15.485  70.457  1.00  0.00    -0.335 OA 
HETATM    6  O   UNL     1     -12.146  16.157  72.023  1.00  0.00    -0.476 OA 
ENDROOT
BRANCH   3   7
HETATM    7  N   UNL     1     -10.126  15.842  67.794  1.00  0.00    -0.236 N  
HETATM    8  C   UNL     1      -9.878  16.846  66.843  1.00  0.00    -0.276 C  
HETATM    9  O   UNL     1     -10.563  17.866  66.754  1.00  0.00    -0.328 OA 
HETATM   10  C   UNL     1      -8.659  16.692  65.958  1.00  0.00    -0.229 C  
BRANCH   7  11
HETATM   11  C   UNL     1      -9.775  14.474  67.493  1.00  0.00    -0.211 A  
HETATM   12  C   UNL     1     -10.540  13.692  66.590  1.00  0.00    -0.277 A  
HETATM   13  I   UNL     1     -12.402  14.282  65.782  1.00  0.00    -0.222 I  
HETATM   14  C   UNL     1     -10.091  12.439  66.172  1.00  0.00    -0.265 A  
HETATM   15  C   UNL     1      -8.908  11.909  66.682  1.00  0.00    -0.191 A  
HETATM   16  C   UNL     1      -8.171  12.589  67.670  1.00  0.00    -0.172 A  
HETATM   17  I   UNL     1      -8.276  10.047  65.922  1.00  0.00    -0.153 I  
HETATM   18  N   UNL     1      -6.932  12.074  68.114  1.00  0.00    -0.073 NA 
HETATM   19  C   UNL     1      -8.592  13.898  68.018  1.00  0.00    -0.178 A  
HETATM   20  H1  UNL     1      -6.398  12.567  68.830  1.00  0.00     0.000 HD 
HETATM   21  I   UNL     1      -7.306  14.989  69.323  1.00  0.00    -0.169 I  
HETATM   22  H2  UNL     1      -6.331  11.938  67.301  1.00  0.00     0.000 HD 
ENDBRANCH   7  11
ENDBRANCH   3   7
TORSDOF 2
ENDMDL
MODEL       58
REMARK 921   NORMALIZED FREE ENERGY PREDICTED BY IDOCK:   -3.97 KCAL/MOL
REMARK 922        TOTAL FREE ENERGY PREDICTED BY IDOCK:   -4.53 KCAL/MOL
REMARK 923 INTER-LIGAND FREE ENERGY PREDICTED BY IDOCK:   -4.75 KCAL/MOL
REMARK 924 INTRA-LIGAND FREE ENERGY PREDICTED BY IDOCK:    0.22 KCAL/MOL
REMARK 927      BINDING AFFINITY PREDICTED BY RF-SCORE:    0.00 PKD
ROOT
HETATM    1  C   UNL     1     -10.373  10.099  70.153  1.00  0.00    -0.280 C  
HETATM    2  C   UNL     1     -11.245  11.339  70.033  1.00  0.00    -0.213 C  
HETATM    3  C   UNL     1     -11.454  11.842  68.588  1.00  0.00    -0.294 C  
HETATM    4  C   UNL     1     -12.611  11.037  70.612  1.00  0.00    -0.338 C  
HETATM    5  O   UNL     1     -13.375  10.204  70.148  1.00  0.00     0.035 OA 
HETATM    6  O   UNL     1     -12.917  11.767  71.705  1.00  0.00    -0.425 OA 
ENDROOT
BRANCH   3   7
HETATM    7  N   UNL     1     -10.238  12.318  67.885  1.00  0.00    -0.196 N  
HETATM    8  C   UNL     1      -9.897  13.675  68.012  1.00  0.00    -0.244 C  
HETATM    9  O   UNL     1     -10.541  14.463  68.707  1.00  0.00    -0.242 OA 
HETATM   10  C   UNL     1      -8.632  14.150  67.330  1.00  0.00    -0.219 C  
BRANCH   7  11
HETATM   11  C   UNL     1      -9.915  11.614  66.667  1.00  0.00    -0.203 A  
HETATM   12  C   UNL     1     -10.574  11.904  65.445  1.00  0.00    -0.271 A  
HETATM   13  I   UNL     1     -12.261  13.166  65.269  1.00  0.00    -0.535 I  
HETATM   14  C   UNL     1     -10.131  11.347  64.245  1.00  0.00    -0.347 A  
HETATM   15  C   UNL     1      -9.068  10.448  64.236  1.00  0.00    -0.238 A  
HETATM   16  C   UNL     1      -8.454  10.033  65.433  1.00  0.00    -0.151 A  
HETATM   17  I   UNL     1      -8.423   9.731  62.360  1.00  0.00    -0.264 I  
HETATM   18  N   UNL     1      -7.324   9.185  65.396  1.00  0.00    -0.088 NA 
HETATM   19  C   UNL     1      -8.855  10.674  66.632  1.00  0.00    -0.141 A  
HETATM   20  H1  UNL     1      -6.879   8.884  66.264  1.00  0.00     0.000 HD 
HETATM   21  I   UNL     1      -7.727  10.204  68.379  1.00  0.00    -0.098 I  
HETATM   22  H2  UNL     1      -6.615   9.621  64.806  1.00  0.00     0.000 HD 
ENDBRANCH   7  11
ENDBRANCH   3   7
TORSDOF 2
ENDMDL
MODEL       59
REMARK 921   NORMALIZED FREE ENERGY PREDICTED BY IDOCK:   -3.94 KCAL/MOL
REMARK 922        TOTAL FREE ENERGY PREDICTED BY IDOCK:   -4.51 KCAL/MOL
REMARK 923 INTER-LIGAND FREE ENERGY PREDICTED BY IDOCK:   -5.14 KCAL/MOL
REMARK 924 INTRA-LIGAND FREE ENERGY PREDICTED BY IDOCK:    0.63 KCAL/MOL
REMARK 927      BINDING AFFINITY PREDICTED BY RF-SCORE:    0.00 PKD
ROOT
HETATM    1  C   UNL     1      -9.684  15.576  65.306  1.00  0.00    -0.119 C  
HETATM    2  C   UNL     1     -10.494  15.310  66.566  1.00  0.00    -0.299 C  
HETATM    3  C   UNL     1     -10.420  13.857  67.084  1.00  0.00    -0.269 C  
HETATM    4  C   UNL     1      -9.991  16.214  67.672  1.00  0.00    -0.241 C  
HETATM    5  O   UNL     1      -8.864  16.153  68.137  1.00  0.00    -0.179 OA 
HETATM    6  O   UNL     1     -10.903  17.111  68.102  1.00  0.00    -0.373 OA 
ENDROOT
BRANCH   3   7
HETATM    7  N   UNL     1     -10.992  12.821  66.190  1.00  0.00    -0.277 N  
HETATM    8  C   UNL     1     -12.260  13.064  65.634  1.00  0.00    -0.466 C  
HETATM    9  O   UNL     1     -12.886  14.107  65.828  1.00  0.00    -0.502 OA 
HETATM   10  C   UNL     1     -12.824  12.025  64.688  1.00  0.00     0.150 C  
BRANCH   7  11
HETATM   11  C   UNL     1     -10.591  11.466  66.482  1.00  0.00    -0.263 A  
HETATM   12  C   UNL     1     -10.956  10.828  67.696  1.00  0.00    -0.306 A  
HETATM   13  I   UNL     1     -11.871  11.808  69.330  1.00  0.00    -0.332 I  
HETATM   14  C   UNL     1     -10.716   9.467  67.888  1.00  0.00    -0.285 A  
HETATM   15  C   UNL     1     -10.060   8.723  66.911  1.00  0.00    -0.278 A  
HETATM   16  C   UNL     1      -9.570   9.329  65.738  1.00  0.00    -0.271 A  
HETATM   17  I   UNL     1      -9.824   6.657  67.263  1.00  0.00    -0.254 I  
HETATM   18  N   UNL     1      -8.982   8.543  64.723  1.00  0.00    -0.410 NA 
HETATM   19  C   UNL     1      -9.899  10.691  65.518  1.00  0.00    -0.258 A  
HETATM   20  H1  UNL     1      -8.627   8.983  63.873  1.00  0.00     0.000 HD 
HETATM   21  I   UNL     1      -9.361  11.498  63.619  1.00  0.00     0.099 I  
HETATM   22  H2  UNL     1      -9.645   7.815  64.455  1.00  0.00     0.000 HD 
ENDBRANCH   7  11
ENDBRANCH   3   7
TORSDOF 2
ENDMDL
MODEL       60
REMARK 921   NORMALIZED FREE ENERGY PREDICTED BY IDOCK:   -3.94 KCAL/MOL
REMARK 922        TOTAL FREE ENERGY PREDICTED BY IDOCK:   -4.50 KCAL/MOL
REMARK 923 INTER-LIGAND FREE ENERGY PREDICTED BY IDOCK:   -4.40 KCAL/MOL
REMARK 924 INTRA-LIGAND FREE ENERGY PREDICTED BY IDOCK:   -0.10 KCAL/MOL
REMARK 927      BINDING AFFINITY PREDICTED BY RF-SCORE:    0.00 PKD
ROOT
HETATM    1  C   UNL     1     -10.319   8.360  72.496  1.00  0.00    -0.371 C  
HETATM    2  C   UNL     1      -9.033   8.012  71.762  1.00  0.00    -0.194 C  
HETATM    3  C   UNL     1      -8.578   9.065  70.727  1.00  0.00    -0.217 C  
HETATM    4  C   UNL     1      -7.918   7.855  72.773  1.00  0.00    -0.133 C  
HETATM    5  O   UNL     1      -7.510   8.765  73.479  1.00  0.00    -0.379 OA 
HETATM    6  O   UNL     1      -7.408   6.608  72.837  1.00  0.00    -0.081 OA 
ENDROOT
BRANCH   3   7
HETATM    7  N   UNL     1      -9.484   9.271  69.571  1.00  0.00    -0.165 N  
HETATM    8  C   UNL     1      -9.670   8.196  68.686  1.00  0.00    -0.153 C  
HETATM    9  O   UNL     1      -9.147   7.093  68.855  1.00  0.00    -0.133 OA 
HETATM   10  C   UNL     1     -10.629   8.393  67.531  1.00  0.00    -0.285 C  
BRANCH   7  11
HETATM   11  C   UNL     1      -9.546  10.624  69.071  1.00  0.00    -0.195 A  
HETATM   12  C   UNL     1      -8.522  11.159  68.249  1.00  0.00    -0.145 A  
HETATM   13  I   UNL     1      -6.677  10.202  67.864  1.00  0.00    -0.067 I  
HETATM   14  C   UNL     1      -8.680  12.399  67.628  1.00  0.00    -0.178 A  
HETATM   15  C   UNL     1      -9.825  13.159  67.853  1.00  0.00    -0.231 A  
HETATM   16  C   UNL     1     -10.819  12.730  68.753  1.00  0.00    -0.234 A  
HETATM   17  I   UNL     1     -10.002  14.978  66.801  1.00  0.00    -0.298 I  
HETATM   18  N   UNL     1     -12.010  13.475  68.904  1.00  0.00    -0.349 NA 
HETATM   19  C   UNL     1     -10.687  11.431  69.306  1.00  0.00    -0.151 A  
HETATM   20  H1  UNL     1     -12.731  13.164  69.557  1.00  0.00     0.000 HD 
HETATM   21  I   UNL     1     -12.336  10.721  70.456  1.00  0.00    -0.441 I  
HETATM   22  H2  UNL     1     -12.437  13.589  67.985  1.00  0.00     0.000 HD 
ENDBRANCH   7  11
ENDBRANCH   3   7
TORSDOF 2
ENDMDL
MODEL       61
REMARK 921   NORMALIZED FREE ENERGY PREDICTED BY IDOCK:   -3.92 KCAL/MOL
REMARK 922        TOTAL FREE ENERGY PREDICTED BY IDOCK:   -4.48 KCAL/MOL
REMARK 923 INTER-LIGAND FREE ENERGY PREDICTED BY IDOCK:   -5.45 KCAL/MOL
REMARK 924 INTRA-LIGAND FREE ENERGY PREDICTED BY IDOCK:    0.98 KCAL/MOL
REMARK 927      BINDING AFFINITY PREDICTED BY RF-SCORE:    0.00 PKD
ROOT
HETATM    1  C   UNL     1      -8.012  12.674  67.084  1.00  0.00    -0.123 C  
HETATM    2  C   UNL     1      -8.832  13.931  66.836  1.00  0.00    -0.210 C  
HETATM    3  C   UNL     1     -10.356  13.747  67.002  1.00  0.00    -0.260 C  
HETATM    4  C   UNL     1      -8.393  15.003  67.810  1.00  0.00    -0.150 C  
HETATM    5  O   UNL     1      -8.521  14.912  69.022  1.00  0.00    -0.182 OA 
HETATM    6  O   UNL     1      -7.834  16.081  67.222  1.00  0.00    -0.149 OA 
ENDROOT
BRANCH   3   7
HETATM    7  N   UNL     1     -11.007  12.825  66.040  1.00  0.00    -0.274 N  
HETATM    8  C   UNL     1     -12.229  13.227  65.473  1.00  0.00    -0.457 C  
HETATM    9  O   UNL     1     -12.750  14.317  65.712  1.00  0.00    -0.464 OA 
HETATM   10  C   UNL     1     -12.870  12.304  64.457  1.00  0.00    -0.228 C  
BRANCH   7  11
HETATM   11  C   UNL     1     -10.753  11.422  66.263  1.00  0.00    -0.270 A  
HETATM   12  C   UNL     1     -10.175  10.604  65.258  1.00  0.00    -0.282 A  
HETATM   13  I   UNL     1      -9.860  11.211  63.258  1.00  0.00    -0.385 I  
HETATM   14  C   UNL     1      -9.771   9.299  65.545  1.00  0.00    -0.247 A  
HETATM   15  C   UNL     1      -9.983   8.758  66.811  1.00  0.00    -0.268 A  
HETATM   16  C   UNL     1     -10.659   9.484  67.810  1.00  0.00    -0.261 A  
HETATM   17  I   UNL     1      -9.258   6.810  67.164  1.00  0.00    -0.182 I  
HETATM   18  N   UNL     1     -10.791   8.950  69.111  1.00  0.00    -0.407 NA 
HETATM   19  C   UNL     1     -10.983  10.837  67.533  1.00  0.00    -0.312 A  
HETATM   20  H1  UNL     1     -11.281   9.476  69.835  1.00  0.00     0.000 HD 
HETATM   21  I   UNL     1     -11.772  11.972  69.155  1.00  0.00    -0.346 I  
HETATM   22  H2  UNL     1      -9.860   8.717  69.458  1.00  0.00     0.000 HD 
ENDBRANCH   7  11
ENDBRANCH   3   7
TORSDOF 2
ENDMDL
MODEL       62
REMARK 921   NORMALIZED FREE ENERGY PREDICTED BY IDOCK:   -3.87 KCAL/MOL
REMARK 922        TOTAL FREE ENERGY PREDICTED BY IDOCK:   -4.42 KCAL/MOL
REMARK 923 INTER-LIGAND FREE ENERGY PREDICTED BY IDOCK:   -4.32 KCAL/MOL
REMARK 924 INTRA-LIGAND FREE ENERGY PREDICTED BY IDOCK:   -0.10 KCAL/MOL
REMARK 927      BINDING AFFINITY PREDICTED BY RF-SCORE:    0.00 PKD
ROOT
HETATM    1  C   UNL     1      -9.456  12.129  66.663  1.00  0.00    -0.226 C  
HETATM    2  C   UNL     1     -10.475  13.196  66.293  1.00  0.00    -0.291 C  
HETATM    3  C   UNL     1      -9.991  14.647  66.503  1.00  0.00    -0.281 C  
HETATM    4  C   UNL     1     -10.836  13.043  64.830  1.00  0.00    -0.323 C  
HETATM    5  O   UNL     1     -10.040  13.194  63.916  1.00  0.00    -0.334 OA 
HETATM    6  O   UNL     1     -12.127  12.713  64.617  1.00  0.00    -0.374 OA 
ENDROOT
BRANCH   3   7
HETATM    7  N   UNL     1      -9.709  15.040  67.905  1.00  0.00    -0.211 N  
HETATM    8  C   UNL     1     -10.765  14.970  68.829  1.00  0.00    -0.241 C  
HETATM    9  O   UNL     1     -11.889  14.562  68.529  1.00  0.00    -0.323 OA 
HETATM   10  C   UNL     1     -10.466  15.329  70.269  1.00  0.00    -0.217 C  
BRANCH   7  11
HETATM   11  C   UNL     1      -8.685  16.044  68.070  1.00  0.00    -0.171 A  
HETATM   12  C   UNL     1      -8.947  17.418  67.833  1.00  0.00    -0.251 A  
HETATM   13  I   UNL     1     -10.727  18.162  66.967  1.00  0.00     0.106 I  
HETATM   14  C   UNL     1      -8.006  18.392  68.167  1.00  0.00    -0.303 A  
HETATM   15  C   UNL     1      -6.767  18.026  68.685  1.00  0.00    -0.240 A  
HETATM   16  C   UNL     1      -6.407  16.672  68.829  1.00  0.00    -0.152 A  
HETATM   17  I   UNL     1      -5.450  19.579  69.236  1.00  0.00    -0.244 I  
HETATM   18  N   UNL     1      -5.180  16.322  69.434  1.00  0.00    -0.115 NA 
HETATM   19  C   UNL     1      -7.406  15.698  68.571  1.00  0.00    -0.122 A  
HETATM   20  H1  UNL     1      -4.920  15.341  69.538  1.00  0.00     0.000 HD 
HETATM   21  I   UNL     1      -6.904  13.681  69.046  1.00  0.00    -0.009 I  
HETATM   22  H2  UNL     1      -5.136  16.765  70.352  1.00  0.00     0.000 HD 
ENDBRANCH   7  11
ENDBRANCH   3   7
TORSDOF 2
ENDMDL
MODEL       63
REMARK 921   NORMALIZED FREE ENERGY PREDICTED BY IDOCK:   -3.84 KCAL/MOL
REMARK 922        TOTAL FREE ENERGY PREDICTED BY IDOCK:   -4.39 KCAL/MOL
REMARK 923 INTER-LIGAND FREE ENERGY PREDICTED BY IDOCK:   -4.40 KCAL/MOL
REMARK 924 INTRA-LIGAND FREE ENERGY PREDICTED BY IDOCK:    0.00 KCAL/MOL
REMARK 927      BINDING AFFINITY PREDICTED BY RF-SCORE:    0.00 PKD
ROOT
HETATM    1  C   UNL     1     -12.002  11.642  70.275  1.00  0.00    -0.445 C  
HETATM    2  C   UNL     1     -11.609  10.252  69.799  1.00  0.00    -0.294 C  
HETATM    3  C   UNL     1     -10.216  10.168  69.139  1.00  0.00    -0.214 C  
HETATM    4  C   UNL     1     -11.610   9.310  70.984  1.00  0.00    -0.313 C  
HETATM    5  O   UNL     1     -10.855   9.420  71.938  1.00  0.00    -0.310 OA 
HETATM    6  O   UNL     1     -12.531   8.328  70.902  1.00  0.00    -0.160 OA 
ENDROOT
BRANCH   3   7
HETATM    7  N   UNL     1     -10.051  10.926  67.875  1.00  0.00    -0.173 N  
HETATM    8  C   UNL     1     -10.064  10.201  66.671  1.00  0.00    -0.223 C  
HETATM    9  O   UNL     1     -10.245   8.983  66.627  1.00  0.00    -0.269 OA 
HETATM   10  C   UNL     1      -9.940  10.980  65.378  1.00  0.00    -0.313 C  
BRANCH   7  11
HETATM   11  C   UNL     1      -9.254  12.125  67.974  1.00  0.00    -0.194 A  
HETATM   12  C   UNL     1      -9.846  13.414  67.952  1.00  0.00    -0.237 A  
HETATM   13  I   UNL     1     -11.878  13.786  67.507  1.00  0.00    -0.321 I  
HETATM   14  C   UNL     1      -9.088  14.553  68.227  1.00  0.00    -0.196 A  
HETATM   15  C   UNL     1      -7.721  14.448  68.473  1.00  0.00    -0.135 A  
HETATM   16  C   UNL     1      -7.059  13.208  68.390  1.00  0.00    -0.107 A  
HETATM   17  I   UNL     1      -6.687  16.218  68.963  1.00  0.00    -0.212 I  
HETATM   18  N   UNL     1      -5.690  13.109  68.724  1.00  0.00    -0.071 NA 
HETATM   19  C   UNL     1      -7.856  12.050  68.198  1.00  0.00    -0.145 A  
HETATM   20  H1  UNL     1      -5.210  12.210  68.664  1.00  0.00     0.000 HD 
HETATM   21  I   UNL     1      -6.850  10.176  68.335  1.00  0.00    -0.063 I  
HETATM   22  H2  UNL     1      -5.561  13.479  69.666  1.00  0.00     0.000 HD 
ENDBRANCH   7  11
ENDBRANCH   3   7
TORSDOF 2
ENDMDL
MODEL       64
REMARK 921   NORMALIZED FREE ENERGY PREDICTED BY IDOCK:   -3.80 KCAL/MOL
REMARK 922        TOTAL FREE ENERGY PREDICTED BY IDOCK:   -4.34 KCAL/MOL
REMARK 923 INTER-LIGAND FREE ENERGY PREDICTED BY IDOCK:   -4.33 KCAL/MOL
REMARK 924 INTRA-LIGAND FREE ENERGY PREDICTED BY IDOCK:   -0.01 KCAL/MOL
REMARK 927      BINDING AFFINITY PREDICTED BY RF-SCORE:    0.00 PKD
ROOT
HETATM    1  C   UNL     1     -10.877   6.196  70.783  1.00  0.00    -0.350 C  
HETATM    2  C   UNL     1      -9.893   7.151  71.442  1.00  0.00    -0.178 C  
HETATM    3  C   UNL     1      -9.343   8.252  70.510  1.00  0.00    -0.159 C  
HETATM    4  C   UNL     1     -10.580   7.838  72.603  1.00  0.00    -0.317 C  
HETATM    5  O   UNL     1     -11.538   8.585  72.478  1.00  0.00    -0.372 OA 
HETATM    6  O   UNL     1     -10.043   7.546  73.806  1.00  0.00    -0.319 OA 
ENDROOT
BRANCH   3   7
HETATM    7  N   UNL     1      -8.517   7.783  69.370  1.00  0.00    -0.133 N  
HETATM    8  C   UNL     1      -7.258   7.232  69.657  1.00  0.00    -0.079 C  
HETATM    9  O   UNL     1      -6.837   7.089  70.807  1.00  0.00    -0.052 OA 
HETATM   10  C   UNL     1      -6.434   6.713  68.497  1.00  0.00    -0.049 C  
BRANCH   7  11
HETATM   11  C   UNL     1      -8.716   8.497  68.131  1.00  0.00    -0.142 A  
HETATM   12  C   UNL     1      -9.554   7.987  67.106  1.00  0.00    -0.175 A  
HETATM   13  I   UNL     1     -10.396   6.048  67.108  1.00  0.00    -0.414 I  
HETATM   14  C   UNL     1      -9.878   8.766  65.995  1.00  0.00    -0.234 A  
HETATM   15  C   UNL     1      -9.335  10.039  65.845  1.00  0.00    -0.185 A  
HETATM   16  C   UNL     1      -8.404  10.549  66.770  1.00  0.00    -0.128 A  
HETATM   17  I   UNL     1      -9.956  11.165  64.173  1.00  0.00    -0.456 I  
HETATM   18  N   UNL     1      -7.928  11.873  66.645  1.00  0.00    -0.352 NA 
HETATM   19  C   UNL     1      -8.154   9.784  67.938  1.00  0.00    -0.112 A  
HETATM   20  H1  UNL     1      -7.254  12.242  67.316  1.00  0.00     0.000 HD 
HETATM   21  I   UNL     1      -6.941  10.704  69.430  1.00  0.00    -0.123 I  
HETATM   22  H2  UNL     1      -8.732  12.502  66.618  1.00  0.00     0.000 HD 
ENDBRANCH   7  11
ENDBRANCH   3   7
TORSDOF 2
ENDMDL
MODEL       65
REMARK 921   NORMALIZED FREE ENERGY PREDICTED BY IDOCK:   -3.80 KCAL/MOL
REMARK 922        TOTAL FREE ENERGY PREDICTED BY IDOCK:   -4.34 KCAL/MOL
REMARK 923 INTER-LIGAND FREE ENERGY PREDICTED BY IDOCK:   -4.66 KCAL/MOL
REMARK 924 INTRA-LIGAND FREE ENERGY PREDICTED BY IDOCK:    0.32 KCAL/MOL
REMARK 927      BINDING AFFINITY PREDICTED BY RF-SCORE:    0.00 PKD
ROOT
HETATM    1  C   UNL     1     -12.333   6.854  70.959  1.00  0.00    -0.401 C  
HETATM    2  C   UNL     1     -12.067   7.864  72.064  1.00  0.00    -0.363 C  
HETATM    3  C   UNL     1     -10.594   8.312  72.185  1.00  0.00    -0.310 C  
HETATM    4  C   UNL     1     -12.901   9.101  71.809  1.00  0.00    -0.377 C  
HETATM    5  O   UNL     1     -12.761   9.824  70.835  1.00  0.00    -0.304 OA 
HETATM    6  O   UNL     1     -13.831   9.339  72.757  1.00  0.00    -0.403 OA 
ENDROOT
BRANCH   3   7
HETATM    7  N   UNL     1      -9.624   7.257  72.566  1.00  0.00    -0.149 N  
HETATM    8  C   UNL     1      -8.612   7.598  73.479  1.00  0.00    -0.204 C  
HETATM    9  O   UNL     1      -8.527   8.713  73.997  1.00  0.00    -0.279 OA 
HETATM   10  C   UNL     1      -7.649   6.508  73.902  1.00  0.00    -0.083 C  
BRANCH   7  11
HETATM   11  C   UNL     1      -9.362   6.265  71.551  1.00  0.00    -0.148 A  
HETATM   12  C   UNL     1      -9.838   4.934  71.674  1.00  0.00    -0.184 A  
HETATM   13  I   UNL     1     -10.732   4.142  73.418  1.00  0.00    -0.348 I  
HETATM   14  C   UNL     1      -9.734   4.038  70.609  1.00  0.00    -0.266 A  
HETATM   15  C   UNL     1      -9.106   4.419  69.426  1.00  0.00    -0.113 A  
HETATM   16  C   UNL     1      -8.510   5.688  69.293  1.00  0.00    -0.106 A  
HETATM   17  I   UNL     1      -9.077   3.017  67.851  1.00  0.00    -0.232 I  
HETATM   18  N   UNL     1      -7.952   6.085  68.057  1.00  0.00    -0.108 NA 
HETATM   19  C   UNL     1      -8.703   6.617  70.347  1.00  0.00    -0.151 A  
HETATM   20  H1  UNL     1      -7.520   7.005  67.961  1.00  0.00     0.000 HD 
HETATM   21  I   UNL     1      -8.008   8.602  69.997  1.00  0.00    -0.132 I  
HETATM   22  H2  UNL     1      -8.667   5.989  67.336  1.00  0.00     0.000 HD 
ENDBRANCH   7  11
ENDBRANCH   3   7
TORSDOF 2
ENDMDL
MODEL       66
REMARK 921   NORMALIZED FREE ENERGY PREDICTED BY IDOCK:   -3.78 KCAL/MOL
REMARK 922        TOTAL FREE ENERGY PREDICTED BY IDOCK:   -4.33 KCAL/MOL
REMARK 923 INTER-LIGAND FREE ENERGY PREDICTED BY IDOCK:   -4.26 KCAL/MOL
REMARK 924 INTRA-LIGAND FREE ENERGY PREDICTED BY IDOCK:   -0.06 KCAL/MOL
REMARK 927      BINDING AFFINITY PREDICTED BY RF-SCORE:    0.00 PKD
ROOT
HETATM    1  C   UNL     1     -10.446   8.806  71.636  1.00  0.00    -0.387 C  
HETATM    2  C   UNL     1      -9.142   8.237  71.099  1.00  0.00    -0.198 C  
HETATM    3  C   UNL     1      -8.368   9.183  70.156  1.00  0.00    -0.165 C  
HETATM    4  C   UNL     1      -8.232   7.911  72.265  1.00  0.00    -0.129 C  
HETATM    5  O   UNL     1      -7.788   8.750  73.033  1.00  0.00    -0.387 OA 
HETATM    6  O   UNL     1      -7.954   6.597  72.391  1.00  0.00    -0.099 OA 
ENDROOT
BRANCH   3   7
HETATM    7  N   UNL     1      -9.043   9.520  68.879  1.00  0.00    -0.138 N  
HETATM    8  C   UNL     1      -9.261   8.481  67.960  1.00  0.00    -0.136 C  
HETATM    9  O   UNL     1      -8.953   7.310  68.190  1.00  0.00    -0.133 OA 
HETATM   10  C   UNL     1      -9.990   8.817  66.676  1.00  0.00    -0.355 C  
BRANCH   7  11
HETATM   11  C   UNL     1      -8.813  10.861  68.396  1.00  0.00    -0.147 A  
HETATM   12  C   UNL     1      -9.795  11.876  68.527  1.00  0.00    -0.183 A  
HETATM   13  I   UNL     1     -11.779  11.541  69.173  1.00  0.00    -0.400 I  
HETATM   14  C   UNL     1      -9.495  13.204  68.220  1.00  0.00    -0.210 A  
HETATM   15  C   UNL     1      -8.240  13.546  67.723  1.00  0.00    -0.176 A  
HETATM   16  C   UNL     1      -7.267  12.563  67.460  1.00  0.00    -0.147 A  
HETATM   17  I   UNL     1      -7.862  15.591  67.372  1.00  0.00    -0.259 I  
HETATM   18  N   UNL     1      -5.973  12.938  67.034  1.00  0.00    -0.468 NA 
HETATM   19  C   UNL     1      -7.555  11.232  67.860  1.00  0.00    -0.100 A  
HETATM   20  H1  UNL     1      -5.269  12.225  66.844  1.00  0.00     0.000 HD 
HETATM   21  I   UNL     1      -5.962   9.826  67.680  1.00  0.00    -0.047 I  
HETATM   22  H2  UNL     1      -5.590  13.595  67.714  1.00  0.00     0.000 HD 
ENDBRANCH   7  11
ENDBRANCH   3   7
TORSDOF 2
ENDMDL
MODEL       67
REMARK 921   NORMALIZED FREE ENERGY PREDICTED BY IDOCK:   -3.75 KCAL/MOL
REMARK 922        TOTAL FREE ENERGY PREDICTED BY IDOCK:   -4.28 KCAL/MOL
REMARK 923 INTER-LIGAND FREE ENERGY PREDICTED BY IDOCK:   -4.25 KCAL/MOL
REMARK 924 INTRA-LIGAND FREE ENERGY PREDICTED BY IDOCK:   -0.03 KCAL/MOL
REMARK 927      BINDING AFFINITY PREDICTED BY RF-SCORE:    0.00 PKD
ROOT
HETATM    1  C   UNL     1      -5.920  12.590  69.722  1.00  0.00    -0.135 C  
HETATM    2  C   UNL     1      -6.487  12.961  68.360  1.00  0.00    -0.082 C  
HETATM    3  C   UNL     1      -7.920  12.448  68.099  1.00  0.00    -0.153 C  
HETATM    4  C   UNL     1      -6.512  14.469  68.234  1.00  0.00    -0.118 C  
HETATM    5  O   UNL     1      -7.190  15.198  68.942  1.00  0.00    -0.116 OA 
HETATM    6  O   UNL     1      -5.707  14.951  67.265  1.00  0.00    -0.308 OA 
ENDROOT
BRANCH   3   7
HETATM    7  N   UNL     1      -8.083  10.975  68.049  1.00  0.00    -0.116 N  
HETATM    8  C   UNL     1      -7.766  10.322  66.846  1.00  0.00    -0.105 C  
HETATM    9  O   UNL     1      -7.327  10.916  65.859  1.00  0.00    -0.126 OA 
HETATM   10  C   UNL     1      -7.890   8.814  66.809  1.00  0.00    -0.097 C  
BRANCH   7  11
HETATM   11  C   UNL     1      -9.122  10.441  68.896  1.00  0.00    -0.173 A  
HETATM   12  C   UNL     1      -8.818   9.644  70.031  1.00  0.00    -0.232 A  
HETATM   13  I   UNL     1      -6.891   8.906  70.490  1.00  0.00    -0.084 I  
HETATM   14  C   UNL     1      -9.815   9.285  70.939  1.00  0.00    -0.363 A  
HETATM   15  C   UNL     1     -11.139   9.656  70.714  1.00  0.00    -0.334 A  
HETATM   16  C   UNL     1     -11.515  10.343  69.545  1.00  0.00    -0.246 A  
HETATM   17  I   UNL     1     -12.552   9.136  72.190  1.00  0.00    -0.361 I  
HETATM   18  N   UNL     1     -12.847  10.782  69.375  1.00  0.00    -0.506 NA 
HETATM   19  C   UNL     1     -10.480  10.778  68.678  1.00  0.00    -0.192 A  
HETATM   20  H1  UNL     1     -13.120  11.281  68.528  1.00  0.00     0.000 HD 
HETATM   21  I   UNL     1     -11.069  12.034  67.058  1.00  0.00    -0.405 I  
HETATM   22  H2  UNL     1     -13.102  11.355  70.181  1.00  0.00     0.000 HD 
ENDBRANCH   7  11
ENDBRANCH   3   7
TORSDOF 2
ENDMDL
MODEL       68
REMARK 921   NORMALIZED FREE ENERGY PREDICTED BY IDOCK:   -3.74 KCAL/MOL
REMARK 922        TOTAL FREE ENERGY PREDICTED BY IDOCK:   -4.28 KCAL/MOL
REMARK 923 INTER-LIGAND FREE ENERGY PREDICTED BY IDOCK:   -4.33 KCAL/MOL
REMARK 924 INTRA-LIGAND FREE ENERGY PREDICTED BY IDOCK:    0.05 KCAL/MOL
REMARK 927      BINDING AFFINITY PREDICTED BY RF-SCORE:    0.00 PKD
ROOT
HETATM    1  C   UNL     1      -6.165  12.173  69.722  1.00  0.00    -0.132 C  
HETATM    2  C   UNL     1      -6.651  12.751  68.402  1.00  0.00    -0.083 C  
HETATM    3  C   UNL     1      -8.180  12.687  68.195  1.00  0.00    -0.170 C  
HETATM    4  C   UNL     1      -6.241  14.206  68.323  1.00  0.00    -0.117 C  
HETATM    5  O   UNL     1      -6.650  15.068  69.086  1.00  0.00    -0.106 OA 
HETATM    6  O   UNL     1      -5.368  14.476  67.330  1.00  0.00    -0.334 OA 
ENDROOT
BRANCH   3   7
HETATM    7  N   UNL     1      -8.766  11.327  68.109  1.00  0.00    -0.148 N  
HETATM    8  C   UNL     1      -8.797  10.707  66.848  1.00  0.00    -0.138 C  
HETATM    9  O   UNL     1      -8.326  11.228  65.836  1.00  0.00    -0.130 OA 
HETATM   10  C   UNL     1      -9.354   9.302  66.768  1.00  0.00    -0.202 C  
BRANCH   7  11
HETATM   11  C   UNL     1      -9.806  11.042  69.068  1.00  0.00    -0.149 A  
HETATM   12  C   UNL     1     -11.059  11.707  69.024  1.00  0.00    -0.241 A  
HETATM   13  I   UNL     1     -11.492  13.355  67.774  1.00  0.00    -0.414 I  
HETATM   14  C   UNL     1     -12.114  11.297  69.840  1.00  0.00    -0.414 A  
HETATM   15  C   UNL     1     -11.935  10.262  70.755  1.00  0.00    -0.360 A  
HETATM   16  C   UNL     1     -10.680   9.647  70.925  1.00  0.00    -0.332 A  
HETATM   17  I   UNL     1     -13.616   9.664  71.879  1.00  0.00    -0.276 I  
HETATM   18  N   UNL     1     -10.541   8.545  71.798  1.00  0.00    -0.274 NA 
HETATM   19  C   UNL     1      -9.644  10.012  70.028  1.00  0.00    -0.156 A  
HETATM   20  H1  UNL     1      -9.631   8.099  71.920  1.00  0.00     0.000 HD 
HETATM   21  I   UNL     1      -7.843   8.878  70.151  1.00  0.00    -0.151 I  
HETATM   22  H2  UNL     1     -11.214   7.830  71.523  1.00  0.00     0.000 HD 
ENDBRANCH   7  11
ENDBRANCH   3   7
TORSDOF 2
ENDMDL
MODEL       69
REMARK 921   NORMALIZED FREE ENERGY PREDICTED BY IDOCK:   -3.74 KCAL/MOL
REMARK 922        TOTAL FREE ENERGY PREDICTED BY IDOCK:   -4.28 KCAL/MOL
REMARK 923 INTER-LIGAND FREE ENERGY PREDICTED BY IDOCK:   -4.28 KCAL/MOL
REMARK 924 INTRA-LIGAND FREE ENERGY PREDICTED BY IDOCK:    0.00 KCAL/MOL
REMARK 927      BINDING AFFINITY PREDICTED BY RF-SCORE:    0.00 PKD
ROOT
HETATM    1  C   UNL     1      -9.993  10.738  64.203  1.00  0.00    -0.405 C  
HETATM    2  C   UNL     1      -8.483  10.611  64.331  1.00  0.00    -0.070 C  
HETATM    3  C   UNL     1      -7.996  10.066  65.691  1.00  0.00    -0.140 C  
HETATM    4  C   UNL     1      -7.976   9.673  63.256  1.00  0.00    -0.143 C  
HETATM    5  O   UNL     1      -8.276   8.491  63.192  1.00  0.00    -0.173 OA 
HETATM    6  O   UNL     1      -7.161  10.261  62.356  1.00  0.00    -0.129 OA 
ENDROOT
BRANCH   3   7
HETATM    7  N   UNL     1      -8.280  10.919  66.871  1.00  0.00    -0.130 N  
HETATM    8  C   UNL     1      -7.302  11.851  67.256  1.00  0.00    -0.146 C  
HETATM    9  O   UNL     1      -6.249  12.009  66.635  1.00  0.00    -0.135 OA 
HETATM   10  C   UNL     1      -7.611  12.751  68.433  1.00  0.00    -0.133 C  
BRANCH   7  11
HETATM   11  C   UNL     1      -9.127  10.320  67.875  1.00  0.00    -0.131 A  
HETATM   12  C   UNL     1      -8.640   9.320  68.755  1.00  0.00    -0.131 A  
HETATM   13  I   UNL     1      -6.756   8.381  68.570  1.00  0.00    -0.066 I  
HETATM   14  C   UNL     1      -9.411   8.880  69.832  1.00  0.00    -0.177 A  
HETATM   15  C   UNL     1     -10.698   9.375  70.025  1.00  0.00    -0.239 A  
HETATM   16  C   UNL     1     -11.277  10.279  69.114  1.00  0.00    -0.215 A  
HETATM   17  I   UNL     1     -11.746   8.708  71.730  1.00  0.00    -0.471 I  
HETATM   18  N   UNL     1     -12.550  10.833  69.373  1.00  0.00    -0.635 NA 
HETATM   19  C   UNL     1     -10.450  10.784  68.078  1.00  0.00    -0.194 A  
HETATM   20  H1  UNL     1     -12.969  11.488  68.712  1.00  0.00     0.000 HD 
HETATM   21  I   UNL     1     -11.281  12.339  66.879  1.00  0.00    -0.418 I  
HETATM   22  H2  UNL     1     -12.529  11.273  70.293  1.00  0.00     0.000 HD 
ENDBRANCH   7  11
ENDBRANCH   3   7
TORSDOF 2
ENDMDL
MODEL       70
REMARK 921   NORMALIZED FREE ENERGY PREDICTED BY IDOCK:   -3.70 KCAL/MOL
REMARK 922        TOTAL FREE ENERGY PREDICTED BY IDOCK:   -4.24 KCAL/MOL
REMARK 923 INTER-LIGAND FREE ENERGY PREDICTED BY IDOCK:   -4.15 KCAL/MOL
REMARK 924 INTRA-LIGAND FREE ENERGY PREDICTED BY IDOCK:   -0.08 KCAL/MOL
REMARK 927      BINDING AFFINITY PREDICTED BY RF-SCORE:    0.00 PKD
ROOT
HETATM    1  C   UNL     1      -7.487   5.017  69.421  1.00  0.00    -0.057 C  
HETATM    2  C   UNL     1      -8.745   4.604  70.169  1.00  0.00    -0.113 C  
HETATM    3  C   UNL     1      -9.793   5.726  70.332  1.00  0.00    -0.186 C  
HETATM    4  C   UNL     1      -9.408   3.465  69.423  1.00  0.00    -0.166 C  
HETATM    5  O   UNL     1      -9.866   3.569  68.295  1.00  0.00    -0.062 OA 
HETATM    6  O   UNL     1      -9.445   2.307  70.113  1.00  0.00    -0.122 OA 
ENDROOT
BRANCH   3   7
HETATM    7  N   UNL     1      -9.377   6.887  71.156  1.00  0.00    -0.162 N  
HETATM    8  C   UNL     1      -9.211   6.684  72.536  1.00  0.00    -0.137 C  
HETATM    9  O   UNL     1      -9.359   5.584  73.072  1.00  0.00    -0.137 OA 
HETATM   10  C   UNL     1      -8.744   7.859  73.369  1.00  0.00    -0.309 C  
BRANCH   7  11
HETATM   11  C   UNL     1      -9.818   8.174  70.673  1.00  0.00    -0.181 A  
HETATM   12  C   UNL     1      -8.935   9.056  69.999  1.00  0.00    -0.175 A  
HETATM   13  I   UNL     1      -6.847   8.765  69.841  1.00  0.00    -0.049 I  
HETATM   14  C   UNL     1      -9.413  10.213  69.383  1.00  0.00    -0.240 A  
HETATM   15  C   UNL     1     -10.761  10.551  69.470  1.00  0.00    -0.255 A  
HETATM   16  C   UNL     1     -11.660   9.776  70.227  1.00  0.00    -0.220 A  
HETATM   17  I   UNL     1     -11.396  12.274  68.433  1.00  0.00    -0.432 I  
HETATM   18  N   UNL     1     -13.038  10.089  70.236  1.00  0.00    -0.559 NA 
HETATM   19  C   UNL     1     -11.178   8.558  70.772  1.00  0.00    -0.257 A  
HETATM   20  H1  UNL     1     -13.689   9.527  70.784  1.00  0.00     0.000 HD 
HETATM   21  I   UNL     1     -12.629   7.292  71.688  1.00  0.00    -0.336 I  
HETATM   22  H2  UNL     1     -13.368  10.112  69.270  1.00  0.00     0.000 HD 
ENDBRANCH   7  11
ENDBRANCH   3   7
TORSDOF 2
ENDMDL
MODEL       71
REMARK 921   NORMALIZED FREE ENERGY PREDICTED BY IDOCK:   -3.67 KCAL/MOL
REMARK 922        TOTAL FREE ENERGY PREDICTED BY IDOCK:   -4.20 KCAL/MOL
REMARK 923 INTER-LIGAND FREE ENERGY PREDICTED BY IDOCK:   -4.22 KCAL/MOL
REMARK 924 INTRA-LIGAND FREE ENERGY PREDICTED BY IDOCK:    0.02 KCAL/MOL
REMARK 927      BINDING AFFINITY PREDICTED BY RF-SCORE:    0.00 PKD
ROOT
HETATM    1  C   UNL     1     -12.192   8.135  71.943  1.00  0.00    -0.373 C  
HETATM    2  C   UNL     1     -11.153   7.039  71.757  1.00  0.00    -0.270 C  
HETATM    3  C   UNL     1      -9.921   7.455  70.925  1.00  0.00    -0.184 C  
HETATM    4  C   UNL     1     -10.656   6.598  73.118  1.00  0.00    -0.273 C  
HETATM    5  O   UNL     1     -10.049   7.327  73.887  1.00  0.00    -0.324 OA 
HETATM    6  O   UNL     1     -10.951   5.317  73.419  1.00  0.00    -0.281 OA 
ENDROOT
BRANCH   3   7
HETATM    7  N   UNL     1     -10.183   7.800  69.507  1.00  0.00    -0.202 N  
HETATM    8  C   UNL     1     -10.723   6.801  68.679  1.00  0.00    -0.234 C  
HETATM    9  O   UNL     1     -11.019   5.679  69.093  1.00  0.00    -0.274 OA 
HETATM   10  C   UNL     1     -11.031   7.167  67.243  1.00  0.00    -0.333 C  
BRANCH   7  11
HETATM   11  C   UNL     1      -9.301   8.793  68.940  1.00  0.00    -0.145 A  
HETATM   12  C   UNL     1      -9.676  10.159  68.860  1.00  0.00    -0.187 A  
HETATM   13  I   UNL     1     -11.613  10.892  69.281  1.00  0.00    -0.405 I  
HETATM   14  C   UNL     1      -8.751  11.132  68.478  1.00  0.00    -0.161 A  
HETATM   15  C   UNL     1      -7.457  10.769  68.113  1.00  0.00    -0.091 A  
HETATM   16  C   UNL     1      -7.067   9.417  68.059  1.00  0.00    -0.081 A  
HETATM   17  I   UNL     1      -6.114  12.323  67.635  1.00  0.00    -0.152 I  
HETATM   18  N   UNL     1      -5.728   9.074  67.767  1.00  0.00    -0.038 NA 
HETATM   19  C   UNL     1      -7.988   8.449  68.535  1.00  0.00    -0.121 A  
HETATM   20  H1  UNL     1      -5.445   8.094  67.728  1.00  0.00     0.000 HD 
HETATM   21  I   UNL     1      -7.267   6.448  68.678  1.00  0.00    -0.090 I  
HETATM   22  H2  UNL     1      -5.120   9.558  68.429  1.00  0.00     0.000 HD 
ENDBRANCH   7  11
ENDBRANCH   3   7
TORSDOF 2
ENDMDL
MODEL       72
REMARK 921   NORMALIZED FREE ENERGY PREDICTED BY IDOCK:   -3.66 KCAL/MOL
REMARK 922        TOTAL FREE ENERGY PREDICTED BY IDOCK:   -4.18 KCAL/MOL
REMARK 923 INTER-LIGAND FREE ENERGY PREDICTED BY IDOCK:   -4.26 KCAL/MOL
REMARK 924 INTRA-LIGAND FREE ENERGY PREDICTED BY IDOCK:    0.08 KCAL/MOL
REMARK 927      BINDING AFFINITY PREDICTED BY RF-SCORE:    0.00 PKD
ROOT
HETATM    1  C   UNL     1      -7.772   6.468  65.236  1.00  0.00    -0.102 C  
HETATM    2  C   UNL     1      -8.353   6.385  66.639  1.00  0.00    -0.113 C  
HETATM    3  C   UNL     1      -9.338   7.519  66.996  1.00  0.00    -0.150 C  
HETATM    4  C   UNL     1      -9.096   5.073  66.786  1.00  0.00    -0.118 C  
HETATM    5  O   UNL     1     -10.088   4.780  66.136  1.00  0.00    -0.213 OA 
HETATM    6  O   UNL     1      -8.559   4.240  67.701  1.00  0.00    -0.101 OA 
ENDROOT
BRANCH   3   7
HETATM    7  N   UNL     1      -8.765   8.886  67.039  1.00  0.00    -0.122 N  
HETATM    8  C   UNL     1      -7.811   9.165  68.033  1.00  0.00    -0.100 C  
HETATM    9  O   UNL     1      -7.413   8.316  68.832  1.00  0.00    -0.088 OA 
HETATM   10  C   UNL     1      -7.194  10.547  68.049  1.00  0.00    -0.087 C  
BRANCH   7  11
HETATM   11  C   UNL     1      -9.640   9.937  66.578  1.00  0.00    -0.190 A  
HETATM   12  C   UNL     1     -10.583  10.551  67.443  1.00  0.00    -0.263 A  
HETATM   13  I   UNL     1     -11.036   9.868  69.391  1.00  0.00    -0.195 I  
HETATM   14  C   UNL     1     -11.294  11.680  67.037  1.00  0.00    -0.373 A  
HETATM   15  C   UNL     1     -11.133  12.190  65.752  1.00  0.00    -0.319 A  
HETATM   16  C   UNL     1     -10.301  11.551  64.812  1.00  0.00    -0.289 A  
HETATM   17  I   UNL     1     -12.191  13.950  65.269  1.00  0.00    -0.515 I  
HETATM   18  N   UNL     1     -10.087  12.130  63.542  1.00  0.00    -0.494 NA 
HETATM   19  C   UNL     1      -9.518  10.459  65.266  1.00  0.00    -0.237 A  
HETATM   20  H1  UNL     1      -9.484  11.666  62.861  1.00  0.00     0.000 HD 
HETATM   21  I   UNL     1      -8.087   9.685  63.889  1.00  0.00    -0.196 I  
HETATM   22  H2  UNL     1      -9.747  13.082  63.676  1.00  0.00     0.000 HD 
ENDBRANCH   7  11
ENDBRANCH   3   7
TORSDOF 2
ENDMDL
MODEL       73
REMARK 921   NORMALIZED FREE ENERGY PREDICTED BY IDOCK:   -3.65 KCAL/MOL
REMARK 922        TOTAL FREE ENERGY PREDICTED BY IDOCK:   -4.18 KCAL/MOL
REMARK 923 INTER-LIGAND FREE ENERGY PREDICTED BY IDOCK:   -4.41 KCAL/MOL
REMARK 924 INTRA-LIGAND FREE ENERGY PREDICTED BY IDOCK:    0.23 KCAL/MOL
REMARK 927      BINDING AFFINITY PREDICTED BY RF-SCORE:    0.00 PKD
ROOT
HETATM    1  C   UNL     1     -12.419   6.879  70.983  1.00  0.00    -0.364 C  
HETATM    2  C   UNL     1     -12.141   7.804  72.158  1.00  0.00    -0.346 C  
HETATM    3  C   UNL     1     -10.689   8.323  72.239  1.00  0.00    -0.329 C  
HETATM    4  C   UNL     1     -13.051   9.010  72.059  1.00  0.00    -0.414 C  
HETATM    5  O   UNL     1     -13.005   9.820  71.146  1.00  0.00    -0.350 OA 
HETATM    6  O   UNL     1     -13.935   9.114  73.073  1.00  0.00    -0.365 OA 
ENDROOT
BRANCH   3   7
HETATM    7  N   UNL     1      -9.645   7.295  72.473  1.00  0.00    -0.149 N  
HETATM    8  C   UNL     1      -8.592   7.618  73.345  1.00  0.00    -0.188 C  
HETATM    9  O   UNL     1      -8.526   8.693  73.944  1.00  0.00    -0.310 OA 
HETATM   10  C   UNL     1      -7.551   6.553  73.617  1.00  0.00    -0.087 C  
BRANCH   7  11
HETATM   11  C   UNL     1      -9.404   6.399  71.367  1.00  0.00    -0.152 A  
HETATM   12  C   UNL     1      -8.775   6.843  70.176  1.00  0.00    -0.141 A  
HETATM   13  I   UNL     1      -8.356   8.866  69.729  1.00  0.00    -0.162 I  
HETATM   14  C   UNL     1      -8.388   5.933  69.191  1.00  0.00    -0.106 A  
HETATM   15  C   UNL     1      -8.667   4.576  69.337  1.00  0.00    -0.086 A  
HETATM   16  C   UNL     1      -9.394   4.096  70.443  1.00  0.00    -0.155 A  
HETATM   17  I   UNL     1      -7.964   3.276  67.833  1.00  0.00    -0.086 I  
HETATM   18  N   UNL     1      -9.594   2.708  70.615  1.00  0.00    -0.133 NA 
HETATM   19  C   UNL     1      -9.701   5.018  71.476  1.00  0.00    -0.169 A  
HETATM   20  H1  UNL     1     -10.121   2.360  71.416  1.00  0.00     0.000 HD 
HETATM   21  I   UNL     1     -10.573   4.202  73.243  1.00  0.00    -0.315 I  
HETATM   22  H2  UNL     1      -8.683   2.248  70.605  1.00  0.00     0.000 HD 
ENDBRANCH   7  11
ENDBRANCH   3   7
TORSDOF 2
ENDMDL
MODEL       74
REMARK 921   NORMALIZED FREE ENERGY PREDICTED BY IDOCK:   -3.65 KCAL/MOL
REMARK 922        TOTAL FREE ENERGY PREDICTED BY IDOCK:   -4.18 KCAL/MOL
REMARK 923 INTER-LIGAND FREE ENERGY PREDICTED BY IDOCK:   -4.09 KCAL/MOL
REMARK 924 INTRA-LIGAND FREE ENERGY PREDICTED BY IDOCK:   -0.09 KCAL/MOL
REMARK 927      BINDING AFFINITY PREDICTED BY RF-SCORE:    0.00 PKD
ROOT
HETATM    1  C   UNL     1     -12.050  15.702  68.720  1.00  0.00    -0.131 C  
HETATM    2  C   UNL     1     -11.477  14.562  69.548  1.00  0.00    -0.330 C  
HETATM    3  C   UNL     1      -9.945  14.397  69.443  1.00  0.00     0.110 C  
HETATM    4  C   UNL     1     -11.811  14.799  71.006  1.00  0.00    -0.329 C  
HETATM    5  O   UNL     1     -11.395  15.749  71.651  1.00  0.00    -0.384 OA 
HETATM    6  O   UNL     1     -12.624  13.865  71.540  1.00  0.00    -0.341 OA 
ENDROOT
BRANCH   3   7
HETATM    7  N   UNL     1      -9.423  14.026  68.106  1.00  0.00    -0.209 N  
HETATM    8  C   UNL     1      -9.184  12.665  67.851  1.00  0.00    -0.201 C  
HETATM    9  O   UNL     1      -9.425  11.779  68.673  1.00  0.00    -0.178 OA 
HETATM   10  C   UNL     1      -8.693  12.283  66.471  1.00  0.00    -0.084 C  
BRANCH   7  11
HETATM   11  C   UNL     1      -8.601  15.025  67.466  1.00  0.00    -0.180 A  
HETATM   12  C   UNL     1      -9.075  15.780  66.362  1.00  0.00    -0.322 A  
HETATM   13  I   UNL     1     -10.882  15.392  65.337  1.00  0.00    -0.380 I  
HETATM   14  C   UNL     1      -8.342  16.861  65.869  1.00  0.00    -0.013 A  
HETATM   15  C   UNL     1      -7.103  17.180  66.418  1.00  0.00    -0.275 A  
HETATM   16  C   UNL     1      -6.530  16.392  67.435  1.00  0.00    -0.174 A  
HETATM   17  I   UNL     1      -6.117  18.883  65.658  1.00  0.00    -0.325 I  
HETATM   18  N   UNL     1      -5.311  16.780  68.034  1.00  0.00    -0.114 NA 
HETATM   19  C   UNL     1      -7.324  15.354  67.985  1.00  0.00    -0.121 A  
HETATM   20  H1  UNL     1      -4.897  16.209  68.772  1.00  0.00     0.000 HD 
HETATM   21  I   UNL     1      -6.524  14.354  69.689  1.00  0.00    -0.109 I  
HETATM   22  H2  UNL     1      -5.415  17.732  68.386  1.00  0.00     0.000 HD 
ENDBRANCH   7  11
ENDBRANCH   3   7
TORSDOF 2
ENDMDL
MODEL       75
REMARK 921   NORMALIZED FREE ENERGY PREDICTED BY IDOCK:   -3.65 KCAL/MOL
REMARK 922        TOTAL FREE ENERGY PREDICTED BY IDOCK:   -4.17 KCAL/MOL
REMARK 923 INTER-LIGAND FREE ENERGY PREDICTED BY IDOCK:   -6.07 KCAL/MOL
REMARK 924 INTRA-LIGAND FREE ENERGY PREDICTED BY IDOCK:    1.90 KCAL/MOL
REMARK 927      BINDING AFFINITY PREDICTED BY RF-SCORE:    0.00 PKD
ROOT
HETATM    1  C   UNL     1      -7.957  15.796  67.066  1.00  0.00    -0.272 C  
HETATM    2  C   UNL     1      -7.975  14.539  67.923  1.00  0.00    -0.152 C  
HETATM    3  C   UNL     1      -8.773  13.362  67.321  1.00  0.00    -0.218 C  
HETATM    4  C   UNL     1      -6.551  14.066  68.130  1.00  0.00    -0.124 C  
HETATM    5  O   UNL     1      -5.825  13.686  67.224  1.00  0.00    -0.336 OA 
HETATM    6  O   UNL     1      -6.142  14.108  69.415  1.00  0.00    -0.092 OA 
ENDROOT
BRANCH   3   7
HETATM    7  N   UNL     1     -10.231  13.581  67.162  1.00  0.00    -0.245 N  
HETATM    8  C   UNL     1     -10.687  14.077  65.929  1.00  0.00    -0.293 C  
HETATM    9  O   UNL     1      -9.935  14.296  64.978  1.00  0.00    -0.338 OA 
HETATM   10  C   UNL     1     -12.180  14.259  65.753  1.00  0.00    -0.415 C  
BRANCH   7  11
HETATM   11  C   UNL     1     -10.938  13.923  68.373  1.00  0.00    -0.253 A  
HETATM   12  C   UNL     1     -11.254  15.269  68.693  1.00  0.00    -0.296 A  
HETATM   13  I   UNL     1     -10.528  16.949  67.637  1.00  0.00    -0.255 I  
HETATM   14  C   UNL     1     -12.090  15.569  69.770  1.00  0.00    -0.372 A  
HETATM   15  C   UNL     1     -12.582  14.553  70.585  1.00  0.00    -0.352 A  
HETATM   16  C   UNL     1     -12.205  13.211  70.385  1.00  0.00    -0.316 A  
HETATM   17  I   UNL     1     -13.904  15.106  72.131  1.00  0.00    -0.727 I  
HETATM   18  N   UNL     1     -12.780  12.186  71.169  1.00  0.00    -0.322 NA 
HETATM   19  C   UNL     1     -11.429  12.912  69.236  1.00  0.00    -0.282 A  
HETATM   20  H1  UNL     1     -12.506  11.213  71.024  1.00  0.00     0.000 HD 
HETATM   21  I   UNL     1     -11.097  10.845  68.831  1.00  0.00    -0.412 I  
HETATM   22  H2  UNL     1     -13.795  12.250  71.088  1.00  0.00     0.000 HD 
ENDBRANCH   7  11
ENDBRANCH   3   7
TORSDOF 2
ENDMDL
MODEL       76
REMARK 921   NORMALIZED FREE ENERGY PREDICTED BY IDOCK:   -3.64 KCAL/MOL
REMARK 922        TOTAL FREE ENERGY PREDICTED BY IDOCK:   -4.17 KCAL/MOL
REMARK 923 INTER-LIGAND FREE ENERGY PREDICTED BY IDOCK:   -5.00 KCAL/MOL
REMARK 924 INTRA-LIGAND FREE ENERGY PREDICTED BY IDOCK:    0.83 KCAL/MOL
REMARK 927      BINDING AFFINITY PREDICTED BY RF-SCORE:    0.00 PKD
ROOT
HETATM    1  C   UNL     1     -11.295  13.687  69.825  1.00  0.00    -0.181 C  
HETATM    2  C   UNL     1     -11.347  15.194  70.022  1.00  0.00    -0.304 C  
HETATM    3  C   UNL     1     -11.363  16.014  68.713  1.00  0.00    -0.380 C  
HETATM    4  C   UNL     1     -12.600  15.545  70.795  1.00  0.00    -0.452 C  
HETATM    5  O   UNL     1     -13.732  15.355  70.375  1.00  0.00    -0.128 OA 
HETATM    6  O   UNL     1     -12.362  16.086  72.008  1.00  0.00    -0.448 OA 
ENDROOT
BRANCH   3   7
HETATM    7  N   UNL     1     -10.149  15.910  67.868  1.00  0.00    -0.232 N  
HETATM    8  C   UNL     1      -9.906  16.938  66.942  1.00  0.00    -0.276 C  
HETATM    9  O   UNL     1     -10.632  17.928  66.837  1.00  0.00    -0.338 OA 
HETATM   10  C   UNL     1      -8.643  16.853  66.111  1.00  0.00    -0.277 C  
BRANCH   7  11
HETATM   11  C   UNL     1      -9.722  14.564  67.565  1.00  0.00    -0.211 A  
HETATM   12  C   UNL     1      -8.594  13.983  68.200  1.00  0.00    -0.181 A  
HETATM   13  I   UNL     1      -7.242  15.040  69.434  1.00  0.00    -0.151 I  
HETATM   14  C   UNL     1      -8.300  12.629  68.033  1.00  0.00    -0.175 A  
HETATM   15  C   UNL     1      -9.079  11.837  67.192  1.00  0.00    -0.175 A  
HETATM   16  C   UNL     1     -10.137  12.389  66.445  1.00  0.00    -0.236 A  
HETATM   17  I   UNL     1      -8.601   9.787  67.078  1.00  0.00    -0.136 I  
HETATM   18  N   UNL     1     -10.966  11.554  65.663  1.00  0.00    -0.270 NA 
HETATM   19  C   UNL     1     -10.479  13.743  66.693  1.00  0.00    -0.272 A  
HETATM   20  H1  UNL     1     -11.734  11.954  65.122  1.00  0.00     0.000 HD 
HETATM   21  I   UNL     1     -12.242  14.463  65.736  1.00  0.00    -0.177 I  
HETATM   22  H2  UNL     1     -11.345  10.822  66.265  1.00  0.00     0.000 HD 
ENDBRANCH   7  11
ENDBRANCH   3   7
TORSDOF 2
ENDMDL
MODEL       77
REMARK 921   NORMALIZED FREE ENERGY PREDICTED BY IDOCK:   -3.63 KCAL/MOL
REMARK 922        TOTAL FREE ENERGY PREDICTED BY IDOCK:   -4.15 KCAL/MOL
REMARK 923 INTER-LIGAND FREE ENERGY PREDICTED BY IDOCK:   -4.26 KCAL/MOL
REMARK 924 INTRA-LIGAND FREE ENERGY PREDICTED BY IDOCK:    0.11 KCAL/MOL
REMARK 927      BINDING AFFINITY PREDICTED BY RF-SCORE:    0.00 PKD
ROOT
HETATM    1  C   UNL     1     -11.224   7.888  72.833  1.00  0.00    -0.429 C  
HETATM    2  C   UNL     1     -11.402   9.011  71.823  1.00  0.00    -0.447 C  
HETATM    3  C   UNL     1     -10.929   8.671  70.392  1.00  0.00    -0.235 C  
HETATM    4  C   UNL     1     -12.870   9.372  71.744  1.00  0.00    -0.399 C  
HETATM    5  O   UNL     1     -13.737   8.606  71.352  1.00  0.00    -0.329 OA 
HETATM    6  O   UNL     1     -13.148  10.626  72.156  1.00  0.00    -0.460 OA 
ENDROOT
BRANCH   3   7
HETATM    7  N   UNL     1      -9.478   8.414  70.233  1.00  0.00    -0.163 N  
HETATM    8  C   UNL     1      -8.727   9.338  69.487  1.00  0.00    -0.146 C  
HETATM    9  O   UNL     1      -9.217  10.359  69.002  1.00  0.00    -0.169 OA 
HETATM   10  C   UNL     1      -7.237   9.098  69.362  1.00  0.00    -0.067 C  
BRANCH   7  11
HETATM   11  C   UNL     1      -9.094   7.022  70.234  1.00  0.00    -0.156 A  
HETATM   12  C   UNL     1      -9.376   6.173  69.133  1.00  0.00    -0.126 A  
HETATM   13  I   UNL     1     -10.598   6.711  67.494  1.00  0.00    -0.455 I  
HETATM   14  C   UNL     1      -8.846   4.884  69.071  1.00  0.00    -0.117 A  
HETATM   15  C   UNL     1      -8.077   4.388  70.120  1.00  0.00    -0.059 A  
HETATM   16  C   UNL     1      -7.865   5.142  71.290  1.00  0.00    -0.106 A  
HETATM   17  I   UNL     1      -7.253   2.461  69.888  1.00  0.00    -0.031 I  
HETATM   18  N   UNL     1      -7.014   4.655  72.307  1.00  0.00    -0.058 NA 
HETATM   19  C   UNL     1      -8.334   6.481  71.301  1.00  0.00    -0.125 A  
HETATM   20  H1  UNL     1      -6.860   5.202  73.154  1.00  0.00     0.000 HD 
HETATM   21  I   UNL     1      -7.770   7.666  72.981  1.00  0.00    -0.183 I  
HETATM   22  H2  UNL     1      -6.106   4.443  71.892  1.00  0.00     0.000 HD 
ENDBRANCH   7  11
ENDBRANCH   3   7
TORSDOF 2
ENDMDL
MODEL       78
REMARK 921   NORMALIZED FREE ENERGY PREDICTED BY IDOCK:   -3.60 KCAL/MOL
REMARK 922        TOTAL FREE ENERGY PREDICTED BY IDOCK:   -4.12 KCAL/MOL
REMARK 923 INTER-LIGAND FREE ENERGY PREDICTED BY IDOCK:   -4.38 KCAL/MOL
REMARK 924 INTRA-LIGAND FREE ENERGY PREDICTED BY IDOCK:    0.26 KCAL/MOL
REMARK 927      BINDING AFFINITY PREDICTED BY RF-SCORE:    0.00 PKD
ROOT
HETATM    1  C   UNL     1      -9.393   8.914  71.662  1.00  0.00    -0.328 C  
HETATM    2  C   UNL     1      -8.319   8.358  70.740  1.00  0.00    -0.139 C  
HETATM    3  C   UNL     1      -8.391   8.871  69.285  1.00  0.00    -0.119 C  
HETATM    4  C   UNL     1      -6.959   8.733  71.289  1.00  0.00    -0.088 C  
HETATM    5  O   UNL     1      -6.563   9.884  71.391  1.00  0.00    -0.321 OA 
HETATM    6  O   UNL     1      -6.211   7.676  71.668  1.00  0.00    -0.036 OA 
ENDROOT
BRANCH   3   7
HETATM    7  N   UNL     1      -9.604   8.488  68.523  1.00  0.00    -0.150 N  
HETATM    8  C   UNL     1      -9.850   7.119  68.328  1.00  0.00    -0.151 C  
HETATM    9  O   UNL     1      -9.127   6.237  68.795  1.00  0.00    -0.128 OA 
HETATM   10  C   UNL     1     -11.112   6.728  67.588  1.00  0.00    -0.309 C  
BRANCH   7  11
HETATM   11  C   UNL     1     -10.026   9.436  67.519  1.00  0.00    -0.199 A  
HETATM   12  C   UNL     1     -10.950  10.471  67.817  1.00  0.00    -0.313 A  
HETATM   13  I   UNL     1     -12.031  10.621  69.627  1.00  0.00    -0.183 I  
HETATM   14  C   UNL     1     -11.211  11.483  66.892  1.00  0.00    -0.363 A  
HETATM   15  C   UNL     1     -10.610  11.462  65.636  1.00  0.00    -0.258 A  
HETATM   16  C   UNL     1      -9.777  10.396  65.244  1.00  0.00    -0.278 A  
HETATM   17  I   UNL     1     -11.005  13.083  64.347  1.00  0.00    -0.447 I  
HETATM   18  N   UNL     1      -9.112  10.435  63.998  1.00  0.00    -0.220 NA 
HETATM   19  C   UNL     1      -9.452   9.424  66.223  1.00  0.00    -0.214 A  
HETATM   20  H1  UNL     1      -8.509   9.662  63.714  1.00  0.00     0.000 HD 
HETATM   21  I   UNL     1      -7.990   7.974  65.668  1.00  0.00    -0.135 I  
HETATM   22  H2  UNL     1      -8.572  11.299  63.949  1.00  0.00     0.000 HD 
ENDBRANCH   7  11
ENDBRANCH   3   7
TORSDOF 2
ENDMDL
MODEL       79
REMARK 921   NORMALIZED FREE ENERGY PREDICTED BY IDOCK:   -3.60 KCAL/MOL
REMARK 922        TOTAL FREE ENERGY PREDICTED BY IDOCK:   -4.12 KCAL/MOL
REMARK 923 INTER-LIGAND FREE ENERGY PREDICTED BY IDOCK:   -4.01 KCAL/MOL
REMARK 924 INTRA-LIGAND FREE ENERGY PREDICTED BY IDOCK:   -0.11 KCAL/MOL
REMARK 927      BINDING AFFINITY PREDICTED BY RF-SCORE:    0.00 PKD
ROOT
HETATM    1  C   UNL     1     -11.748   9.555  70.873  1.00  0.00    -0.391 C  
HETATM    2  C   UNL     1     -10.681  10.303  70.089  1.00  0.00    -0.334 C  
HETATM    3  C   UNL     1      -9.687   9.397  69.330  1.00  0.00    -0.177 C  
HETATM    4  C   UNL     1     -11.356  11.195  69.069  1.00  0.00    -0.276 C  
HETATM    5  O   UNL     1     -12.032  10.774  68.143  1.00  0.00    -0.527 OA 
HETATM    6  O   UNL     1     -11.153  12.513  69.273  1.00  0.00    -0.220 OA 
ENDROOT
BRANCH   3   7
HETATM    7  N   UNL     1      -8.825   8.533  70.172  1.00  0.00    -0.135 N  
HETATM    8  C   UNL     1      -7.709   9.123  70.789  1.00  0.00    -0.141 C  
HETATM    9  O   UNL     1      -7.448  10.323  70.690  1.00  0.00    -0.213 OA 
HETATM   10  C   UNL     1      -6.855   8.250  71.684  1.00  0.00    -0.069 C  
BRANCH   7  11
HETATM   11  C   UNL     1      -8.767   7.146  69.775  1.00  0.00    -0.142 A  
HETATM   12  C   UNL     1      -9.445   6.136  70.505  1.00  0.00    -0.164 A  
HETATM   13  I   UNL     1     -10.381   6.440  72.375  1.00  0.00    -0.253 I  
HETATM   14  C   UNL     1      -9.529   4.833  70.012  1.00  0.00    -0.240 A  
HETATM   15  C   UNL     1      -8.897   4.489  68.819  1.00  0.00    -0.101 A  
HETATM   16  C   UNL     1      -8.111   5.422  68.115  1.00  0.00    -0.095 A  
HETATM   17  I   UNL     1      -9.157   2.517  68.120  1.00  0.00    -0.240 I  
HETATM   18  N   UNL     1      -7.547   5.077  66.866  1.00  0.00    -0.087 NA 
HETATM   19  C   UNL     1      -8.109   6.762  68.580  1.00  0.00    -0.120 A  
HETATM   20  H1  UNL     1      -6.978   5.753  66.356  1.00  0.00     0.000 HD 
HETATM   21  I   UNL     1      -7.120   8.190  67.344  1.00  0.00    -0.086 I  
HETATM   22  H2  UNL     1      -8.297   4.760  66.251  1.00  0.00     0.000 HD 
ENDBRANCH   7  11
ENDBRANCH   3   7
TORSDOF 2
ENDMDL
MODEL       80
REMARK 921   NORMALIZED FREE ENERGY PREDICTED BY IDOCK:   -3.59 KCAL/MOL
REMARK 922        TOTAL FREE ENERGY PREDICTED BY IDOCK:   -4.11 KCAL/MOL
REMARK 923 INTER-LIGAND FREE ENERGY PREDICTED BY IDOCK:   -4.10 KCAL/MOL
REMARK 924 INTRA-LIGAND FREE ENERGY PREDICTED BY IDOCK:   -0.01 KCAL/MOL
REMARK 927      BINDING AFFINITY PREDICTED BY RF-SCORE:    0.00 PKD
ROOT
HETATM    1  C   UNL     1      -9.361  12.540  67.203  1.00  0.00    -0.201 C  
HETATM    2  C   UNL     1      -9.905  11.557  66.178  1.00  0.00    -0.250 C  
HETATM    3  C   UNL     1     -10.057  10.109  66.694  1.00  0.00    -0.223 C  
HETATM    4  C   UNL     1     -11.272  12.025  65.726  1.00  0.00    -0.334 C  
HETATM    5  O   UNL     1     -12.240  12.106  66.466  1.00  0.00    -0.584 OA 
HETATM    6  O   UNL     1     -11.331  12.360  64.420  1.00  0.00    -0.309 OA 
ENDROOT
BRANCH   3   7
HETATM    7  N   UNL     1      -8.799   9.418  67.066  1.00  0.00    -0.127 N  
HETATM    8  C   UNL     1      -8.044   8.833  66.036  1.00  0.00    -0.112 C  
HETATM    9  O   UNL     1      -8.364   8.907  64.848  1.00  0.00    -0.154 OA 
HETATM   10  C   UNL     1      -6.738   8.166  66.412  1.00  0.00    -0.062 C  
BRANCH   7  11
HETATM   11  C   UNL     1      -8.789   8.823  68.382  1.00  0.00    -0.138 A  
HETATM   12  C   UNL     1      -9.456   7.600  68.649  1.00  0.00    -0.151 A  
HETATM   13  I   UNL     1     -10.754   6.628  67.294  1.00  0.00    -0.425 I  
HETATM   14  C   UNL     1      -9.290   6.949  69.872  1.00  0.00    -0.150 A  
HETATM   15  C   UNL     1      -8.510   7.520  70.874  1.00  0.00    -0.125 A  
HETATM   16  C   UNL     1      -7.922   8.788  70.707  1.00  0.00    -0.127 A  
HETATM   17  I   UNL     1      -8.254   6.413  72.651  1.00  0.00    -0.106 I  
HETATM   18  N   UNL     1      -7.067   9.313  71.702  1.00  0.00    -0.320 NA 
HETATM   19  C   UNL     1      -8.026   9.396  69.430  1.00  0.00    -0.089 A  
HETATM   20  H1  UNL     1      -6.641  10.232  71.581  1.00  0.00     0.000 HD 
HETATM   21  I   UNL     1      -6.909  11.189  69.142  1.00  0.00    -0.108 I  
HETATM   22  H2  UNL     1      -6.325   8.636  71.878  1.00  0.00     0.000 HD 
ENDBRANCH   7  11
ENDBRANCH   3   7
TORSDOF 2
ENDMDL
MODEL       81
REMARK 921   NORMALIZED FREE ENERGY PREDICTED BY IDOCK:   -3.58 KCAL/MOL
REMARK 922        TOTAL FREE ENERGY PREDICTED BY IDOCK:   -4.10 KCAL/MOL
REMARK 923 INTER-LIGAND FREE ENERGY PREDICTED BY IDOCK:   -3.99 KCAL/MOL
REMARK 924 INTRA-LIGAND FREE ENERGY PREDICTED BY IDOCK:   -0.11 KCAL/MOL
REMARK 927      BINDING AFFINITY PREDICTED BY RF-SCORE:    0.00 PKD
ROOT
HETATM    1  C   UNL     1      -7.604   5.572  67.948  1.00  0.00    -0.085 C  
HETATM    2  C   UNL     1      -7.788   4.539  69.049  1.00  0.00    -0.070 C  
HETATM    3  C   UNL     1      -8.701   4.991  70.209  1.00  0.00    -0.107 C  
HETATM    4  C   UNL     1      -8.395   3.288  68.452  1.00  0.00    -0.077 C  
HETATM    5  O   UNL     1      -9.507   3.248  67.947  1.00  0.00    -0.198 OA 
HETATM    6  O   UNL     1      -7.593   2.205  68.516  1.00  0.00    -0.050 OA 
ENDROOT
BRANCH   3   7
HETATM    7  N   UNL     1      -8.209   6.136  71.014  1.00  0.00    -0.121 N  
HETATM    8  C   UNL     1      -7.269   5.870  72.023  1.00  0.00    -0.092 C  
HETATM    9  O   UNL     1      -6.816   4.743  72.235  1.00  0.00    -0.052 OA 
HETATM   10  C   UNL     1      -6.734   7.045  72.815  1.00  0.00    -0.068 C  
BRANCH   7  11
HETATM   11  C   UNL     1      -9.147   7.219  71.183  1.00  0.00    -0.152 A  
HETATM   12  C   UNL     1      -9.000   8.445  70.483  1.00  0.00    -0.150 A  
HETATM   13  I   UNL     1      -7.302   8.970  69.340  1.00  0.00    -0.084 I  
HETATM   14  C   UNL     1     -10.006   9.412  70.518  1.00  0.00    -0.328 A  
HETATM   15  C   UNL     1     -11.148   9.213  71.289  1.00  0.00    -0.335 A  
HETATM   16  C   UNL     1     -11.293   8.069  72.096  1.00  0.00    -0.328 A  
HETATM   17  I   UNL     1     -12.644  10.697  71.203  1.00  0.00    -0.527 I  
HETATM   18  N   UNL     1     -12.494   7.846  72.806  1.00  0.00    -0.574 NA 
HETATM   19  C   UNL     1     -10.306   7.056  71.982  1.00  0.00    -0.198 A  
HETATM   20  H1  UNL     1     -12.599   7.016  73.391  1.00  0.00     0.000 HD 
HETATM   21  I   UNL     1     -10.693   5.236  73.023  1.00  0.00    -0.392 I  
HETATM   22  H2  UNL     1     -13.269   7.870  72.142  1.00  0.00     0.000 HD 
ENDBRANCH   7  11
ENDBRANCH   3   7
TORSDOF 2
ENDMDL
MODEL       82
REMARK 921   NORMALIZED FREE ENERGY PREDICTED BY IDOCK:   -3.58 KCAL/MOL
REMARK 922        TOTAL FREE ENERGY PREDICTED BY IDOCK:   -4.10 KCAL/MOL
REMARK 923 INTER-LIGAND FREE ENERGY PREDICTED BY IDOCK:   -4.03 KCAL/MOL
REMARK 924 INTRA-LIGAND FREE ENERGY PREDICTED BY IDOCK:   -0.07 KCAL/MOL
REMARK 927      BINDING AFFINITY PREDICTED BY RF-SCORE:    0.00 PKD
ROOT
HETATM    1  C   UNL     1      -6.703  10.045  65.250  1.00  0.00    -0.117 C  
HETATM    2  C   UNL     1      -8.103   9.691  64.773  1.00  0.00    -0.139 C  
HETATM    3  C   UNL     1      -9.187  10.729  65.135  1.00  0.00    -0.209 C  
HETATM    4  C   UNL     1      -8.088   9.555  63.265  1.00  0.00    -0.151 C  
HETATM    5  O   UNL     1      -7.839  10.477  62.504  1.00  0.00    -0.149 OA 
HETATM    6  O   UNL     1      -8.367   8.311  62.825  1.00  0.00    -0.176 OA 
ENDROOT
BRANCH   3   7
HETATM    7  N   UNL     1      -9.451  10.913  66.583  1.00  0.00    -0.176 N  
HETATM    8  C   UNL     1     -10.362  10.038  67.198  1.00  0.00    -0.241 C  
HETATM    9  O   UNL     1     -10.910   9.113  66.596  1.00  0.00    -0.071 OA 
HETATM   10  C   UNL     1     -10.598  10.198  68.685  1.00  0.00    -0.236 C  
BRANCH   7  11
HETATM   11  C   UNL     1      -9.331  12.269  67.064  1.00  0.00    -0.205 A  
HETATM   12  C   UNL     1      -8.278  12.658  67.931  1.00  0.00    -0.170 A  
HETATM   13  I   UNL     1      -6.928  11.314  68.847  1.00  0.00    -0.113 I  
HETATM   14  C   UNL     1      -8.070  14.002  68.244  1.00  0.00    -0.148 A  
HETATM   15  C   UNL     1      -8.931  14.980  67.754  1.00  0.00    -0.179 A  
HETATM   16  C   UNL     1     -10.062  14.639  66.987  1.00  0.00    -0.249 A  
HETATM   17  I   UNL     1      -8.478  16.987  68.216  1.00  0.00    -0.252 I  
HETATM   18  N   UNL     1     -10.876  15.651  66.431  1.00  0.00    -0.289 NA 
HETATM   19  C   UNL     1     -10.209  13.282  66.604  1.00  0.00    -0.265 A  
HETATM   20  H1  UNL     1     -11.695  15.404  65.875  1.00  0.00     0.000 HD 
HETATM   21  I   UNL     1     -11.786  12.851  65.235  1.00  0.00    -0.496 I  
HETATM   22  H2  UNL     1     -10.285  16.269  65.874  1.00  0.00     0.000 HD 
ENDBRANCH   7  11
ENDBRANCH   3   7
TORSDOF 2
ENDMDL
MODEL       83
REMARK 921   NORMALIZED FREE ENERGY PREDICTED BY IDOCK:   -3.54 KCAL/MOL
REMARK 922        TOTAL FREE ENERGY PREDICTED BY IDOCK:   -4.05 KCAL/MOL
REMARK 923 INTER-LIGAND FREE ENERGY PREDICTED BY IDOCK:   -4.02 KCAL/MOL
REMARK 924 INTRA-LIGAND FREE ENERGY PREDICTED BY IDOCK:   -0.03 KCAL/MOL
REMARK 927      BINDING AFFINITY PREDICTED BY RF-SCORE:    0.00 PKD
ROOT
HETATM    1  C   UNL     1      -8.144   6.672  66.664  1.00  0.00    -0.110 C  
HETATM    2  C   UNL     1      -8.965   6.058  67.787  1.00  0.00    -0.111 C  
HETATM    3  C   UNL     1      -9.814   7.068  68.589  1.00  0.00    -0.148 C  
HETATM    4  C   UNL     1      -9.911   5.033  67.200  1.00  0.00    -0.195 C  
HETATM    5  O   UNL     1     -10.809   5.308  66.418  1.00  0.00    -0.292 OA 
HETATM    6  O   UNL     1      -9.674   3.770  67.611  1.00  0.00    -0.178 OA 
ENDROOT
BRANCH   3   7
HETATM    7  N   UNL     1      -9.056   8.087  69.356  1.00  0.00    -0.148 N  
HETATM    8  C   UNL     1      -8.367   7.664  70.504  1.00  0.00    -0.126 C  
HETATM    9  O   UNL     1      -8.338   6.488  70.870  1.00  0.00    -0.123 OA 
HETATM   10  C   UNL     1      -7.558   8.696  71.261  1.00  0.00    -0.129 C  
BRANCH   7  11
HETATM   11  C   UNL     1      -9.595   9.426  69.302  1.00  0.00    -0.171 A  
HETATM   12  C   UNL     1      -9.058  10.408  68.431  1.00  0.00    -0.147 A  
HETATM   13  I   UNL     1      -7.277  10.171  67.318  1.00  0.00    -0.091 I  
HETATM   14  C   UNL     1      -9.697  11.636  68.259  1.00  0.00    -0.197 A  
HETATM   15  C   UNL     1     -10.846  11.941  68.986  1.00  0.00    -0.190 A  
HETATM   16  C   UNL     1     -11.355  11.051  69.951  1.00  0.00    -0.287 A  
HETATM   17  I   UNL     1     -11.782  13.788  68.588  1.00  0.00    -0.398 I  
HETATM   18  N   UNL     1     -12.567  11.341  70.617  1.00  0.00    -0.309 NA 
HETATM   19  C   UNL     1     -10.748   9.773  70.050  1.00  0.00    -0.283 A  
HETATM   20  H1  UNL     1     -12.936  10.696  71.316  1.00  0.00     0.000 HD 
HETATM   21  I   UNL     1     -11.706   8.368  71.336  1.00  0.00    -0.392 I  
HETATM   22  H2  UNL     1     -13.289  11.501  69.915  1.00  0.00     0.000 HD 
ENDBRANCH   7  11
ENDBRANCH   3   7
TORSDOF 2
ENDMDL
MODEL       84
REMARK 921   NORMALIZED FREE ENERGY PREDICTED BY IDOCK:   -3.49 KCAL/MOL
REMARK 922        TOTAL FREE ENERGY PREDICTED BY IDOCK:   -3.99 KCAL/MOL
REMARK 923 INTER-LIGAND FREE ENERGY PREDICTED BY IDOCK:   -3.90 KCAL/MOL
REMARK 924 INTRA-LIGAND FREE ENERGY PREDICTED BY IDOCK:   -0.10 KCAL/MOL
REMARK 927      BINDING AFFINITY PREDICTED BY RF-SCORE:    0.00 PKD
ROOT
HETATM    1  C   UNL     1      -7.695  11.072  66.280  1.00  0.00    -0.132 C  
HETATM    2  C   UNL     1      -7.717   9.814  65.425  1.00  0.00    -0.123 C  
HETATM    3  C   UNL     1      -8.474   8.623  66.053  1.00  0.00    -0.141 C  
HETATM    4  C   UNL     1      -8.383  10.131  64.103  1.00  0.00    -0.168 C  
HETATM    5  O   UNL     1      -9.551  10.472  63.997  1.00  0.00    -0.261 OA 
HETATM    6  O   UNL     1      -7.565  10.014  63.036  1.00  0.00    -0.129 OA 
ENDROOT
BRANCH   3   7
HETATM    7  N   UNL     1      -7.894   8.071  67.301  1.00  0.00    -0.108 N  
HETATM    8  C   UNL     1      -6.944   7.044  67.182  1.00  0.00    -0.078 C  
HETATM    9  O   UNL     1      -6.552   6.618  66.094  1.00  0.00    -0.042 OA 
HETATM   10  C   UNL     1      -6.319   6.511  68.455  1.00  0.00    -0.037 C  
BRANCH   7  11
HETATM   11  C   UNL     1      -8.764   8.107  68.453  1.00  0.00    -0.134 A  
HETATM   12  C   UNL     1      -8.561   9.035  69.507  1.00  0.00    -0.138 A  
HETATM   13  I   UNL     1      -6.862  10.279  69.692  1.00  0.00    -0.138 I  
HETATM   14  C   UNL     1      -9.507   9.179  70.522  1.00  0.00    -0.291 A  
HETATM   15  C   UNL     1     -10.641   8.371  70.549  1.00  0.00    -0.216 A  
HETATM   16  C   UNL     1     -10.833   7.353  69.596  1.00  0.00    -0.210 A  
HETATM   17  I   UNL     1     -12.048   8.729  72.078  1.00  0.00    -0.414 I  
HETATM   18  N   UNL     1     -12.029   6.600  69.591  1.00  0.00    -0.590 NA 
HETATM   19  C   UNL     1      -9.911   7.278  68.521  1.00  0.00    -0.156 A  
HETATM   20  H1  UNL     1     -12.168   5.862  68.900  1.00  0.00     0.000 HD 
HETATM   21  I   UNL     1     -10.380   5.896  66.967  1.00  0.00    -0.390 I  
HETATM   22  H2  UNL     1     -12.816   7.246  69.533  1.00  0.00     0.000 HD 
ENDBRANCH   7  11
ENDBRANCH   3   7
TORSDOF 2
ENDMDL
MODEL       85
REMARK 921   NORMALIZED FREE ENERGY PREDICTED BY IDOCK:   -3.47 KCAL/MOL
REMARK 922        TOTAL FREE ENERGY PREDICTED BY IDOCK:   -3.98 KCAL/MOL
REMARK 923 INTER-LIGAND FREE ENERGY PREDICTED BY IDOCK:   -5.70 KCAL/MOL
REMARK 924 INTRA-LIGAND FREE ENERGY PREDICTED BY IDOCK:    1.73 KCAL/MOL
REMARK 927      BINDING AFFINITY PREDICTED BY RF-SCORE:    0.00 PKD
ROOT
HETATM    1  C   UNL     1      -8.648  15.534  68.709  1.00  0.00    -0.188 C  
HETATM    2  C   UNL     1      -8.111  14.145  68.401  1.00  0.00    -0.144 C  
HETATM    3  C   UNL     1      -8.638  13.528  67.087  1.00  0.00    -0.195 C  
HETATM    4  C   UNL     1      -6.602  14.213  68.300  1.00  0.00    -0.114 C  
HETATM    5  O   UNL     1      -6.008  14.856  67.447  1.00  0.00    -0.338 OA 
HETATM    6  O   UNL     1      -5.957  13.503  69.248  1.00  0.00    -0.081 OA 
ENDROOT
BRANCH   3   7
HETATM    7  N   UNL     1     -10.094  13.254  67.037  1.00  0.00    -0.239 N  
HETATM    8  C   UNL     1     -10.912  14.180  66.368  1.00  0.00    -0.311 C  
HETATM    9  O   UNL     1     -10.465  15.176  65.796  1.00  0.00    -0.297 OA 
HETATM   10  C   UNL     1     -12.393  13.877  66.280  1.00  0.00    -0.489 C  
BRANCH   7  11
HETATM   11  C   UNL     1     -10.623  12.522  68.164  1.00  0.00    -0.226 A  
HETATM   12  C   UNL     1     -11.380  13.164  69.177  1.00  0.00    -0.281 A  
HETATM   13  I   UNL     1     -11.614  15.258  69.347  1.00  0.00    -0.413 I  
HETATM   14  C   UNL     1     -12.032  12.420  70.161  1.00  0.00    -0.376 A  
HETATM   15  C   UNL     1     -11.903  11.034  70.197  1.00  0.00    -0.357 A  
HETATM   16  C   UNL     1     -11.069  10.355  69.288  1.00  0.00    -0.253 A  
HETATM   17  I   UNL     1     -12.999   9.998  71.671  1.00  0.00    -0.546 I  
HETATM   18  N   UNL     1     -11.016   8.944  69.288  1.00  0.00    -0.420 NA 
HETATM   19  C   UNL     1     -10.484  11.114  68.242  1.00  0.00    -0.191 A  
HETATM   20  H1  UNL     1     -10.411   8.452  68.630  1.00  0.00     0.000 HD 
HETATM   21  I   UNL     1      -9.441  10.013  66.744  1.00  0.00    -0.246 I  
HETATM   22  H2  UNL     1     -11.966   8.587  69.180  1.00  0.00     0.000 HD 
ENDBRANCH   7  11
ENDBRANCH   3   7
TORSDOF 2
ENDMDL
MODEL       86
REMARK 921   NORMALIZED FREE ENERGY PREDICTED BY IDOCK:   -3.46 KCAL/MOL
REMARK 922        TOTAL FREE ENERGY PREDICTED BY IDOCK:   -3.96 KCAL/MOL
REMARK 923 INTER-LIGAND FREE ENERGY PREDICTED BY IDOCK:   -3.95 KCAL/MOL
REMARK 924 INTRA-LIGAND FREE ENERGY PREDICTED BY IDOCK:   -0.01 KCAL/MOL
REMARK 927      BINDING AFFINITY PREDICTED BY RF-SCORE:    0.00 PKD
ROOT
HETATM    1  C   UNL     1      -9.662   9.290  71.151  1.00  0.00    -0.327 C  
HETATM    2  C   UNL     1      -8.705   8.176  70.755  1.00  0.00    -0.145 C  
HETATM    3  C   UNL     1      -8.234   8.225  69.285  1.00  0.00    -0.118 C  
HETATM    4  C   UNL     1      -7.473   8.253  71.631  1.00  0.00    -0.093 C  
HETATM    5  O   UNL     1      -6.698   9.197  71.630  1.00  0.00    -0.220 OA 
HETATM    6  O   UNL     1      -7.302   7.180  72.431  1.00  0.00    -0.078 OA 
ENDROOT
BRANCH   3   7
HETATM    7  N   UNL     1      -9.288   8.032  68.259  1.00  0.00    -0.140 N  
HETATM    8  C   UNL     1     -10.042   6.847  68.311  1.00  0.00    -0.167 C  
HETATM    9  O   UNL     1      -9.888   5.995  69.188  1.00  0.00    -0.139 OA 
HETATM   10  C   UNL     1     -11.147   6.671  67.291  1.00  0.00    -0.418 C  
BRANCH   7  11
HETATM   11  C   UNL     1      -9.028   8.655  66.983  1.00  0.00    -0.133 A  
HETATM   12  C   UNL     1      -8.237   8.017  65.993  1.00  0.00    -0.120 A  
HETATM   13  I   UNL     1      -7.124   6.248  66.311  1.00  0.00    -0.070 I  
HETATM   14  C   UNL     1      -8.143   8.546  64.705  1.00  0.00    -0.151 A  
HETATM   15  C   UNL     1      -8.778   9.744  64.387  1.00  0.00    -0.206 A  
HETATM   16  C   UNL     1      -9.477  10.480  65.363  1.00  0.00    -0.223 A  
HETATM   17  I   UNL     1      -8.642  10.411  62.391  1.00  0.00    -0.368 I  
HETATM   18  N   UNL     1     -10.183  11.649  65.001  1.00  0.00    -0.263 NA 
HETATM   19  C   UNL     1      -9.639   9.887  66.641  1.00  0.00    -0.184 A  
HETATM   20  H1  UNL     1     -10.690  12.182  65.708  1.00  0.00     0.000 HD 
HETATM   21  I   UNL     1     -10.917  10.913  68.004  1.00  0.00    -0.390 I  
HETATM   22  H2  UNL     1     -10.833  11.412  64.251  1.00  0.00     0.000 HD 
ENDBRANCH   7  11
ENDBRANCH   3   7
TORSDOF 2
ENDMDL
MODEL       87
REMARK 921   NORMALIZED FREE ENERGY PREDICTED BY IDOCK:   -3.43 KCAL/MOL
REMARK 922        TOTAL FREE ENERGY PREDICTED BY IDOCK:   -3.93 KCAL/MOL
REMARK 923 INTER-LIGAND FREE ENERGY PREDICTED BY IDOCK:   -3.83 KCAL/MOL
REMARK 924 INTRA-LIGAND FREE ENERGY PREDICTED BY IDOCK:   -0.10 KCAL/MOL
REMARK 927      BINDING AFFINITY PREDICTED BY RF-SCORE:    0.00 PKD
ROOT
HETATM    1  C   UNL     1     -11.601  12.153  67.074  1.00  0.00    -0.406 C  
HETATM    2  C   UNL     1     -10.413  12.618  66.247  1.00  0.00    -0.270 C  
HETATM    3  C   UNL     1      -9.310  11.555  66.051  1.00  0.00    -0.223 C  
HETATM    4  C   UNL     1     -10.901  13.026  64.873  1.00  0.00    -0.323 C  
HETATM    5  O   UNL     1     -11.413  12.253  64.078  1.00  0.00    -0.347 OA 
HETATM    6  O   UNL     1     -10.728  14.336  64.597  1.00  0.00    -0.412 OA 
ENDROOT
BRANCH   3   7
HETATM    7  N   UNL     1      -8.607  11.116  67.281  1.00  0.00    -0.137 N  
HETATM    8  C   UNL     1      -7.713  12.019  67.882  1.00  0.00    -0.134 C  
HETATM    9  O   UNL     1      -7.526  13.158  67.452  1.00  0.00    -0.156 OA 
HETATM   10  C   UNL     1      -7.030  11.587  69.162  1.00  0.00    -0.113 C  
BRANCH   7  11
HETATM   11  C   UNL     1      -8.356   9.698  67.375  1.00  0.00    -0.114 A  
HETATM   12  C   UNL     1      -7.339   9.071  66.608  1.00  0.00    -0.086 A  
HETATM   13  I   UNL     1      -6.256  10.020  65.061  1.00  0.00    -0.117 I  
HETATM   14  C   UNL     1      -6.989   7.740  66.838  1.00  0.00    -0.073 A  
HETATM   15  C   UNL     1      -7.673   6.986  67.788  1.00  0.00    -0.112 A  
HETATM   16  C   UNL     1      -8.768   7.521  68.493  1.00  0.00    -0.128 A  
HETATM   17  I   UNL     1      -7.008   5.012  68.118  1.00  0.00    -0.063 I  
HETATM   18  N   UNL     1      -9.396   6.768  69.510  1.00  0.00    -0.147 NA 
HETATM   19  C   UNL     1      -9.055   8.898  68.313  1.00  0.00    -0.140 A  
HETATM   20  H1  UNL     1     -10.189   7.155  70.021  1.00  0.00     0.000 HD 
HETATM   21  I   UNL     1     -10.550   9.727  69.586  1.00  0.00    -0.332 I  
HETATM   22  H2  UNL     1      -8.685   6.486  70.186  1.00  0.00     0.000 HD 
ENDBRANCH   7  11
ENDBRANCH   3   7
TORSDOF 2
ENDMDL
MODEL       88
REMARK 921   NORMALIZED FREE ENERGY PREDICTED BY IDOCK:   -3.40 KCAL/MOL
REMARK 922        TOTAL FREE ENERGY PREDICTED BY IDOCK:   -3.90 KCAL/MOL
REMARK 923 INTER-LIGAND FREE ENERGY PREDICTED BY IDOCK:   -3.94 KCAL/MOL
REMARK 924 INTRA-LIGAND FREE ENERGY PREDICTED BY IDOCK:    0.05 KCAL/MOL
REMARK 927      BINDING AFFINITY PREDICTED BY RF-SCORE:    0.00 PKD
ROOT
HETATM    1  C   UNL     1     -10.331   7.200  66.839  1.00  0.00    -0.349 C  
HETATM    2  C   UNL     1      -8.887   6.762  67.029  1.00  0.00    -0.115 C  
HETATM    3  C   UNL     1      -8.409   6.738  68.498  1.00  0.00    -0.120 C  
HETATM    4  C   UNL     1      -8.720   5.364  66.473  1.00  0.00    -0.117 C  
HETATM    5  O   UNL     1      -9.291   4.383  66.923  1.00  0.00    -0.131 OA 
HETATM    6  O   UNL     1      -7.882   5.291  65.418  1.00  0.00    -0.089 OA 
ENDROOT
BRANCH   3   7
HETATM    7  N   UNL     1      -8.371   8.050  69.188  1.00  0.00    -0.130 N  
HETATM    8  C   UNL     1      -7.117   8.543  69.587  1.00  0.00    -0.052 C  
HETATM    9  O   UNL     1      -6.061   7.952  69.352  1.00  0.00    -0.033 OA 
HETATM   10  C   UNL     1      -7.074   9.903  70.252  1.00  0.00    -0.155 C  
BRANCH   7  11
HETATM   11  C   UNL     1      -9.542   8.371  69.968  1.00  0.00    -0.168 A  
HETATM   12  C   UNL     1     -10.438   9.398  69.574  1.00  0.00    -0.218 A  
HETATM   13  I   UNL     1     -10.075  10.758  67.998  1.00  0.00    -0.239 I  
HETATM   14  C   UNL     1     -11.654   9.577  70.235  1.00  0.00    -0.219 A  
HETATM   15  C   UNL     1     -11.983   8.786  71.332  1.00  0.00    -0.310 A  
HETATM   16  C   UNL     1     -11.080   7.832  71.840  1.00  0.00    -0.257 A  
HETATM   17  I   UNL     1     -13.880   9.080  72.205  1.00  0.00    -0.410 I  
HETATM   18  N   UNL     1     -11.464   6.983  72.902  1.00  0.00    -0.521 NA 
HETATM   19  C   UNL     1      -9.889   7.600  71.106  1.00  0.00    -0.173 A  
HETATM   20  H1  UNL     1     -10.810   6.292  73.270  1.00  0.00     0.000 HD 
HETATM   21  I   UNL     1      -8.675   5.975  71.762  1.00  0.00    -0.139 I  
HETATM   22  H2  UNL     1     -12.323   6.501  72.633  1.00  0.00     0.000 HD 
ENDBRANCH   7  11
ENDBRANCH   3   7
TORSDOF 2
ENDMDL
MODEL       89
REMARK 921   NORMALIZED FREE ENERGY PREDICTED BY IDOCK:   -3.40 KCAL/MOL
REMARK 922        TOTAL FREE ENERGY PREDICTED BY IDOCK:   -3.89 KCAL/MOL
REMARK 923 INTER-LIGAND FREE ENERGY PREDICTED BY IDOCK:   -4.09 KCAL/MOL
REMARK 924 INTRA-LIGAND FREE ENERGY PREDICTED BY IDOCK:    0.19 KCAL/MOL
REMARK 927      BINDING AFFINITY PREDICTED BY RF-SCORE:    0.00 PKD
ROOT
HETATM    1  C   UNL     1      -9.055   8.267  72.969  1.00  0.00    -0.319 C  
HETATM    2  C   UNL     1      -8.643   6.897  72.454  1.00  0.00    -0.128 C  
HETATM    3  C   UNL     1      -8.419   6.823  70.928  1.00  0.00    -0.136 C  
HETATM    4  C   UNL     1      -7.348   6.490  73.125  1.00  0.00    -0.085 C  
HETATM    5  O   UNL     1      -6.293   7.088  72.982  1.00  0.00    -0.057 OA 
HETATM    6  O   UNL     1      -7.459   5.400  73.914  1.00  0.00    -0.089 OA 
ENDROOT
BRANCH   3   7
HETATM    7  N   UNL     1      -9.615   7.062  70.085  1.00  0.00    -0.165 N  
HETATM    8  C   UNL     1      -9.893   6.136  69.066  1.00  0.00    -0.141 C  
HETATM    9  O   UNL     1      -9.211   5.127  68.876  1.00  0.00    -0.110 OA 
HETATM   10  C   UNL     1     -11.139   6.356  68.234  1.00  0.00    -0.359 C  
BRANCH   7  11
HETATM   11  C   UNL     1      -9.975   8.448  69.904  1.00  0.00    -0.190 A  
HETATM   12  C   UNL     1      -9.205   9.315  69.086  1.00  0.00    -0.149 A  
HETATM   13  I   UNL     1      -7.328   8.815  68.254  1.00  0.00    -0.088 I  
HETATM   14  C   UNL     1      -9.661  10.597  68.777  1.00  0.00    -0.190 A  
HETATM   15  C   UNL     1     -10.854  11.070  69.317  1.00  0.00    -0.238 A  
HETATM   16  C   UNL     1     -11.599  10.297  70.229  1.00  0.00    -0.316 A  
HETATM   17  I   UNL     1     -11.494  12.988  68.719  1.00  0.00    -0.395 I  
HETATM   18  N   UNL     1     -12.847  10.760  70.700  1.00  0.00    -0.324 NA 
HETATM   19  C   UNL     1     -11.171   8.965  70.463  1.00  0.00    -0.252 A  
HETATM   20  H1  UNL     1     -13.387  10.200  71.362  1.00  0.00     0.000 HD 
HETATM   21  I   UNL     1     -12.463   7.751  71.646  1.00  0.00    -0.357 I  
HETATM   22  H2  UNL     1     -13.439  10.964  69.895  1.00  0.00     0.000 HD 
ENDBRANCH   7  11
ENDBRANCH   3   7
TORSDOF 2
ENDMDL
MODEL       90
REMARK 921   NORMALIZED FREE ENERGY PREDICTED BY IDOCK:   -3.38 KCAL/MOL
REMARK 922        TOTAL FREE ENERGY PREDICTED BY IDOCK:   -3.88 KCAL/MOL
REMARK 923 INTER-LIGAND FREE ENERGY PREDICTED BY IDOCK:   -4.03 KCAL/MOL
REMARK 924 INTRA-LIGAND FREE ENERGY PREDICTED BY IDOCK:    0.15 KCAL/MOL
REMARK 927      BINDING AFFINITY PREDICTED BY RF-SCORE:    0.00 PKD
ROOT
HETATM    1  C   UNL     1     -10.596   5.931  67.917  1.00  0.00    -0.322 C  
HETATM    2  C   UNL     1      -9.116   5.586  67.977  1.00  0.00    -0.110 C  
HETATM    3  C   UNL     1      -8.341   6.272  69.123  1.00  0.00    -0.120 C  
HETATM    4  C   UNL     1      -8.968   4.090  68.157  1.00  0.00    -0.121 C  
HETATM    5  O   UNL     1      -9.358   3.484  69.144  1.00  0.00    -0.150 OA 
HETATM    6  O   UNL     1      -8.367   3.470  67.120  1.00  0.00    -0.090 OA 
ENDROOT
BRANCH   3   7
HETATM    7  N   UNL     1      -8.255   7.751  69.053  1.00  0.00    -0.125 N  
HETATM    8  C   UNL     1      -6.981   8.337  69.144  1.00  0.00    -0.063 C  
HETATM    9  O   UNL     1      -5.946   7.675  69.239  1.00  0.00    -0.032 OA 
HETATM   10  C   UNL     1      -6.890   9.844  69.028  1.00  0.00    -0.054 C  
BRANCH   7  11
HETATM   11  C   UNL     1      -9.403   8.460  69.565  1.00  0.00    -0.158 A  
HETATM   12  C   UNL     1      -9.706   8.481  70.950  1.00  0.00    -0.187 A  
HETATM   13  I   UNL     1      -8.728   7.297  72.403  1.00  0.00    -0.167 I  
HETATM   14  C   UNL     1     -10.709   9.312  71.450  1.00  0.00    -0.432 A  
HETATM   15  C   UNL     1     -11.471  10.095  70.585  1.00  0.00    -0.349 A  
HETATM   16  C   UNL     1     -11.294  10.024  69.190  1.00  0.00    -0.094 A  
HETATM   17  I   UNL     1     -12.902  11.379  71.450  1.00  0.00    -0.128 I  
HETATM   18  N   UNL     1     -12.018  10.885  68.336  1.00  0.00    -0.779 NA 
HETATM   19  C   UNL     1     -10.213   9.243  68.705  1.00  0.00    -0.205 A  
HETATM   20  H1  UNL     1     -11.889  10.834  67.325  1.00  0.00     0.000 HD 
HETATM   21  I   UNL     1      -9.822   9.367  66.613  1.00  0.00    -0.345 I  
HETATM   22  H2  UNL     1     -11.850  11.847  68.633  1.00  0.00     0.000 HD 
ENDBRANCH   7  11
ENDBRANCH   3   7
TORSDOF 2
ENDMDL
MODEL       91
REMARK 921   NORMALIZED FREE ENERGY PREDICTED BY IDOCK:   -3.35 KCAL/MOL
REMARK 922        TOTAL FREE ENERGY PREDICTED BY IDOCK:   -3.84 KCAL/MOL
REMARK 923 INTER-LIGAND FREE ENERGY PREDICTED BY IDOCK:   -3.82 KCAL/MOL
REMARK 924 INTRA-LIGAND FREE ENERGY PREDICTED BY IDOCK:   -0.02 KCAL/MOL
REMARK 927      BINDING AFFINITY PREDICTED BY RF-SCORE:    0.00 PKD
ROOT
HETATM    1  C   UNL     1     -10.634  15.592  71.079  1.00  0.00     0.093 C  
HETATM    2  C   UNL     1     -11.705  15.307  70.038  1.00  0.00    -0.344 C  
HETATM    3  C   UNL     1     -11.288  14.300  68.944  1.00  0.00    -0.274 C  
HETATM    4  C   UNL     1     -12.927  14.744  70.732  1.00  0.00    -0.352 C  
HETATM    5  O   UNL     1     -12.937  13.680  71.332  1.00  0.00    -0.342 OA 
HETATM    6  O   UNL     1     -14.020  15.531  70.641  1.00  0.00    -0.319 OA 
ENDROOT
BRANCH   3   7
HETATM    7  N   UNL     1     -10.180  14.729  68.057  1.00  0.00    -0.224 N  
HETATM    8  C   UNL     1     -10.440  15.755  67.133  1.00  0.00    -0.309 C  
HETATM    9  O   UNL     1     -11.528  16.329  67.061  1.00  0.00     0.169 OA 
HETATM   10  C   UNL     1      -9.296  16.222  66.258  1.00  0.00    -0.360 C  
BRANCH   7  11
HETATM   11  C   UNL     1      -9.221  13.701  67.727  1.00  0.00    -0.214 A  
HETATM   12  C   UNL     1      -9.557  12.617  66.876  1.00  0.00    -0.232 A  
HETATM   13  I   UNL     1     -11.515  12.193  66.201  1.00  0.00    -0.261 I  
HETATM   14  C   UNL     1      -8.577  11.733  66.424  1.00  0.00    -0.113 A  
HETATM   15  C   UNL     1      -7.258  11.867  66.849  1.00  0.00    -0.074 A  
HETATM   16  C   UNL     1      -6.890  12.851  67.787  1.00  0.00    -0.138 A  
HETATM   17  I   UNL     1      -5.840  10.532  66.040  1.00  0.00    -0.134 I  
HETATM   18  N   UNL     1      -5.533  13.024  68.142  1.00  0.00    -0.083 NA 
HETATM   19  C   UNL     1      -7.877  13.796  68.167  1.00  0.00    -0.149 A  
HETATM   20  H1  UNL     1      -5.267  13.737  68.821  1.00  0.00     0.000 HD 
HETATM   21  I   UNL     1      -7.216  15.416  69.384  1.00  0.00    -0.159 I  
HETATM   22  H2  UNL     1      -4.995  13.176  67.289  1.00  0.00     0.000 HD 
ENDBRANCH   7  11
ENDBRANCH   3   7
TORSDOF 2
ENDMDL
MODEL       92
REMARK 921   NORMALIZED FREE ENERGY PREDICTED BY IDOCK:   -3.32 KCAL/MOL
REMARK 922        TOTAL FREE ENERGY PREDICTED BY IDOCK:   -3.81 KCAL/MOL
REMARK 923 INTER-LIGAND FREE ENERGY PREDICTED BY IDOCK:   -3.73 KCAL/MOL
REMARK 924 INTRA-LIGAND FREE ENERGY PREDICTED BY IDOCK:   -0.08 KCAL/MOL
REMARK 927      BINDING AFFINITY PREDICTED BY RF-SCORE:    0.00 PKD
ROOT
HETATM    1  C   UNL     1      -7.903   6.637  66.376  1.00  0.00    -0.104 C  
HETATM    2  C   UNL     1      -7.911   6.284  67.856  1.00  0.00    -0.103 C  
HETATM    3  C   UNL     1      -8.681   7.279  68.751  1.00  0.00    -0.125 C  
HETATM    4  C   UNL     1      -8.550   4.923  68.033  1.00  0.00    -0.102 C  
HETATM    5  O   UNL     1      -9.716   4.681  67.759  1.00  0.00    -0.158 OA 
HETATM    6  O   UNL     1      -7.712   3.983  68.517  1.00  0.00    -0.065 OA 
ENDROOT
BRANCH   3   7
HETATM    7  N   UNL     1      -8.126   8.653  68.820  1.00  0.00    -0.114 N  
HETATM    8  C   UNL     1      -7.345   8.988  69.939  1.00  0.00    -0.060 C  
HETATM    9  O   UNL     1      -7.077   8.182  70.831  1.00  0.00    -0.047 OA 
HETATM   10  C   UNL     1      -6.743  10.376  69.987  1.00  0.00    -0.145 C  
BRANCH   7  11
HETATM   11  C   UNL     1      -8.921   9.672  68.175  1.00  0.00    -0.123 A  
HETATM   12  C   UNL     1      -8.500  10.289  66.969  1.00  0.00    -0.129 A  
HETATM   13  I   UNL     1      -6.591  10.032  66.100  1.00  0.00    -0.109 I  
HETATM   14  C   UNL     1      -9.355  11.137  66.265  1.00  0.00    -0.216 A  
HETATM   15  C   UNL     1     -10.619  11.439  66.768  1.00  0.00    -0.255 A  
HETATM   16  C   UNL     1     -11.042  10.950  68.018  1.00  0.00    -0.293 A  
HETATM   17  I   UNL     1     -11.864  12.662  65.585  1.00  0.00    -0.434 I  
HETATM   18  N   UNL     1     -12.357  11.199  68.471  1.00  0.00    -0.666 NA 
HETATM   19  C   UNL     1     -10.199  10.019  68.678  1.00  0.00    -0.180 A  
HETATM   20  H1  UNL     1     -12.663  10.844  69.378  1.00  0.00     0.000 HD 
HETATM   21  I   UNL     1     -10.989   9.110  70.437  1.00  0.00    -0.306 I  
HETATM   22  H2  UNL     1     -13.010  10.869  67.760  1.00  0.00     0.000 HD 
ENDBRANCH   7  11
ENDBRANCH   3   7
TORSDOF 2
ENDMDL
MODEL       93
REMARK 921   NORMALIZED FREE ENERGY PREDICTED BY IDOCK:   -3.29 KCAL/MOL
REMARK 922        TOTAL FREE ENERGY PREDICTED BY IDOCK:   -3.78 KCAL/MOL
REMARK 923 INTER-LIGAND FREE ENERGY PREDICTED BY IDOCK:   -3.93 KCAL/MOL
REMARK 924 INTRA-LIGAND FREE ENERGY PREDICTED BY IDOCK:    0.15 KCAL/MOL
REMARK 927      BINDING AFFINITY PREDICTED BY RF-SCORE:    0.00 PKD
ROOT
HETATM    1  C   UNL     1     -11.156  11.194  66.971  1.00  0.00    -0.339 C  
HETATM    2  C   UNL     1     -10.730  11.468  68.405  1.00  0.00    -0.241 C  
HETATM    3  C   UNL     1      -9.213  11.334  68.662  1.00  0.00    -0.161 C  
HETATM    4  C   UNL     1     -11.132  12.880  68.775  1.00  0.00    -0.263 C  
HETATM    5  O   UNL     1     -10.680  13.877  68.234  1.00  0.00    -0.239 OA 
HETATM    6  O   UNL     1     -12.050  12.947  69.761  1.00  0.00    -0.299 OA 
ENDROOT
BRANCH   3   7
HETATM    7  N   UNL     1      -8.642   9.977  68.483  1.00  0.00    -0.116 N  
HETATM    8  C   UNL     1      -7.967   9.401  69.572  1.00  0.00    -0.098 C  
HETATM    9  O   UNL     1      -7.868   9.958  70.666  1.00  0.00    -0.278 OA 
HETATM   10  C   UNL     1      -7.424   7.998  69.402  1.00  0.00    -0.096 C  
BRANCH   7  11
HETATM   11  C   UNL     1      -8.227   9.656  67.138  1.00  0.00    -0.120 A  
HETATM   12  C   UNL     1      -8.899   8.672  66.368  1.00  0.00    -0.140 A  
HETATM   13  I   UNL     1     -10.381   7.370  67.127  1.00  0.00    -0.363 I  
HETATM   14  C   UNL     1      -8.604   8.499  65.015  1.00  0.00    -0.162 A  
HETATM   15  C   UNL     1      -7.600   9.252  64.411  1.00  0.00    -0.115 A  
HETATM   16  C   UNL     1      -6.820  10.158  65.156  1.00  0.00    -0.134 A  
HETATM   17  I   UNL     1      -7.292   8.974  62.344  1.00  0.00    -0.106 I  
HETATM   18  N   UNL     1      -5.864  10.972  64.509  1.00  0.00    -0.399 NA 
HETATM   19  C   UNL     1      -7.191  10.388  66.505  1.00  0.00    -0.118 A  
HETATM   20  H1  UNL     1      -5.299  11.629  65.049  1.00  0.00     0.000 HD 
HETATM   21  I   UNL     1      -6.152  11.949  67.519  1.00  0.00    -0.141 I  
HETATM   22  H2  UNL     1      -6.333  11.489  63.764  1.00  0.00     0.000 HD 
ENDBRANCH   7  11
ENDBRANCH   3   7
TORSDOF 2
ENDMDL
MODEL       94
REMARK 921   NORMALIZED FREE ENERGY PREDICTED BY IDOCK:   -3.28 KCAL/MOL
REMARK 922        TOTAL FREE ENERGY PREDICTED BY IDOCK:   -3.76 KCAL/MOL
REMARK 923 INTER-LIGAND FREE ENERGY PREDICTED BY IDOCK:   -3.72 KCAL/MOL
REMARK 924 INTRA-LIGAND FREE ENERGY PREDICTED BY IDOCK:   -0.04 KCAL/MOL
REMARK 927      BINDING AFFINITY PREDICTED BY RF-SCORE:    0.00 PKD
ROOT
HETATM    1  C   UNL     1     -11.523   6.225  70.545  1.00  0.00    -0.407 C  
HETATM    2  C   UNL     1     -10.411   5.525  71.310  1.00  0.00    -0.297 C  
HETATM    3  C   UNL     1      -9.047   6.247  71.266  1.00  0.00    -0.146 C  
HETATM    4  C   UNL     1     -10.816   5.403  72.764  1.00  0.00    -0.263 C  
HETATM    5  O   UNL     1     -10.998   6.362  73.499  1.00  0.00    -0.222 OA 
HETATM    6  O   UNL     1     -10.970   4.131  73.185  1.00  0.00    -0.201 OA 
ENDROOT
BRANCH   3   7
HETATM    7  N   UNL     1      -8.411   6.350  69.931  1.00  0.00    -0.128 N  
HETATM    8  C   UNL     1      -7.326   5.500  69.654  1.00  0.00    -0.066 C  
HETATM    9  O   UNL     1      -6.917   4.658  70.456  1.00  0.00    -0.036 OA 
HETATM   10  C   UNL     1      -6.706   5.576  68.275  1.00  0.00    -0.054 C  
BRANCH   7  11
HETATM   11  C   UNL     1      -8.462   7.659  69.323  1.00  0.00    -0.138 A  
HETATM   12  C   UNL     1      -9.301   7.929  68.212  1.00  0.00    -0.143 A  
HETATM   13  I   UNL     1     -10.361   6.454  67.130  1.00  0.00    -0.406 I  
HETATM   14  C   UNL     1      -9.475   9.234  67.749  1.00  0.00    -0.160 A  
HETATM   15  C   UNL     1      -8.781  10.288  68.337  1.00  0.00    -0.129 A  
HETATM   16  C   UNL     1      -7.845  10.063  69.364  1.00  0.00    -0.141 A  
HETATM   17  I   UNL     1      -9.181  12.230  67.619  1.00  0.00    -0.209 I  
HETATM   18  N   UNL     1      -7.213  11.152  70.003  1.00  0.00    -0.421 NA 
HETATM   19  C   UNL     1      -7.745   8.746  69.883  1.00  0.00    -0.081 A  
HETATM   20  H1  UNL     1      -6.535  10.989  70.748  1.00  0.00     0.000 HD 
HETATM   21  I   UNL     1      -6.511   8.498  71.603  1.00  0.00    -0.073 I  
HETATM   22  H2  UNL     1      -7.936  11.779  70.359  1.00  0.00     0.000 HD 
ENDBRANCH   7  11
ENDBRANCH   3   7
TORSDOF 2
ENDMDL
MODEL       95
REMARK 921   NORMALIZED FREE ENERGY PREDICTED BY IDOCK:   -3.25 KCAL/MOL
REMARK 922        TOTAL FREE ENERGY PREDICTED BY IDOCK:   -3.73 KCAL/MOL
REMARK 923 INTER-LIGAND FREE ENERGY PREDICTED BY IDOCK:   -3.67 KCAL/MOL
REMARK 924 INTRA-LIGAND FREE ENERGY PREDICTED BY IDOCK:   -0.06 KCAL/MOL
REMARK 927      BINDING AFFINITY PREDICTED BY RF-SCORE:    0.00 PKD
ROOT
HETATM    1  C   UNL     1      -5.827   6.327  69.632  1.00  0.00    -0.018 C  
HETATM    2  C   UNL     1      -6.400   5.307  70.604  1.00  0.00    -0.023 C  
HETATM    3  C   UNL     1      -7.834   5.614  71.088  1.00  0.00    -0.110 C  
HETATM    4  C   UNL     1      -6.426   3.951  69.932  1.00  0.00    -0.032 C  
HETATM    5  O   UNL     1      -7.101   3.695  68.946  1.00  0.00    -0.049 OA 
HETATM    6  O   UNL     1      -5.625   3.035  70.515  1.00  0.00    -0.012 OA 
ENDROOT
BRANCH   3   7
HETATM    7  N   UNL     1      -7.996   6.849  71.892  1.00  0.00    -0.099 N  
HETATM    8  C   UNL     1      -7.336   6.916  73.130  1.00  0.00    -0.074 C  
HETATM    9  O   UNL     1      -6.606   6.015  73.547  1.00  0.00    -0.072 OA 
HETATM   10  C   UNL     1      -7.466   8.195  73.930  1.00  0.00    -0.218 C  
BRANCH   7  11
HETATM   11  C   UNL     1      -9.253   7.537  71.718  1.00  0.00    -0.140 A  
HETATM   12  C   UNL     1     -10.428   7.118  72.393  1.00  0.00    -0.218 A  
HETATM   13  I   UNL     1     -10.593   5.326  73.501  1.00  0.00    -0.357 I  
HETATM   14  C   UNL     1     -11.588   7.894  72.356  1.00  0.00    -0.436 A  
HETATM   15  C   UNL     1     -11.628   9.067  71.607  1.00  0.00    -0.356 A  
HETATM   16  C   UNL     1     -10.530   9.468  70.822  1.00  0.00    -0.314 A  
HETATM   17  I   UNL     1     -13.399  10.208  71.688  1.00  0.00    -0.286 I  
HETATM   18  N   UNL     1     -10.559  10.702  70.135  1.00  0.00    -0.458 NA 
HETATM   19  C   UNL     1      -9.331   8.719  70.939  1.00  0.00    -0.214 A  
HETATM   20  H1  UNL     1      -9.763  10.993  69.566  1.00  0.00     0.000 HD 
HETATM   21  I   UNL     1      -7.622   9.506  69.937  1.00  0.00    -0.183 I  
HETATM   22  H2  UNL     1     -10.759  11.441  70.810  1.00  0.00     0.000 HD 
ENDBRANCH   7  11
ENDBRANCH   3   7
TORSDOF 2
ENDMDL
MODEL       96
REMARK 921   NORMALIZED FREE ENERGY PREDICTED BY IDOCK:   -3.24 KCAL/MOL
REMARK 922        TOTAL FREE ENERGY PREDICTED BY IDOCK:   -3.72 KCAL/MOL
REMARK 923 INTER-LIGAND FREE ENERGY PREDICTED BY IDOCK:   -3.75 KCAL/MOL
REMARK 924 INTRA-LIGAND FREE ENERGY PREDICTED BY IDOCK:    0.03 KCAL/MOL
REMARK 927      BINDING AFFINITY PREDICTED BY RF-SCORE:    0.00 PKD
ROOT
HETATM    1  C   UNL     1      -9.480  14.120  67.491  1.00  0.00    -0.210 C  
HETATM    2  C   UNL     1     -10.398  13.194  66.709  1.00  0.00    -0.252 C  
HETATM    3  C   UNL     1     -10.208  11.692  67.013  1.00  0.00    -0.212 C  
HETATM    4  C   UNL     1     -11.836  13.545  67.028  1.00  0.00    -0.402 C  
HETATM    5  O   UNL     1     -12.331  13.433  68.139  1.00  0.00    -0.190 OA 
HETATM    6  O   UNL     1     -12.534  14.007  65.970  1.00  0.00    -0.468 OA 
ENDROOT
BRANCH   3   7
HETATM    7  N   UNL     1      -8.892  11.117  66.642  1.00  0.00    -0.161 N  
HETATM    8  C   UNL     1      -8.716  10.689  65.316  1.00  0.00    -0.187 C  
HETATM    9  O   UNL     1      -9.588  10.809  64.453  1.00  0.00    -0.231 OA 
HETATM   10  C   UNL     1      -7.358  10.143  64.927  1.00  0.00    -0.136 C  
BRANCH   7  11
HETATM   11  C   UNL     1      -8.194  10.439  67.708  1.00  0.00    -0.110 A  
HETATM   12  C   UNL     1      -7.139  11.065  68.421  1.00  0.00    -0.074 A  
HETATM   13  I   UNL     1      -6.265  12.912  67.880  1.00  0.00    -0.155 I  
HETATM   14  C   UNL     1      -6.595  10.470  69.560  1.00  0.00    -0.080 A  
HETATM   15  C   UNL     1      -7.041   9.221  69.983  1.00  0.00    -0.070 A  
HETATM   16  C   UNL     1      -8.001   8.501  69.246  1.00  0.00    -0.111 A  
HETATM   17  I   UNL     1      -6.214   8.450  71.763  1.00  0.00    -0.069 I  
HETATM   18  N   UNL     1      -8.500   7.273  69.736  1.00  0.00    -0.135 NA 
HETATM   19  C   UNL     1      -8.607   9.155  68.144  1.00  0.00    -0.129 A  
HETATM   20  H1  UNL     1      -9.196   6.752  69.202  1.00  0.00     0.000 HD 
HETATM   21  I   UNL     1     -10.232   8.134  67.215  1.00  0.00    -0.366 I  
HETATM   22  H2  UNL     1      -8.866   7.428  70.676  1.00  0.00     0.000 HD 
ENDBRANCH   7  11
ENDBRANCH   3   7
TORSDOF 2
ENDMDL
MODEL       97
REMARK 921   NORMALIZED FREE ENERGY PREDICTED BY IDOCK:   -3.23 KCAL/MOL
REMARK 922        TOTAL FREE ENERGY PREDICTED BY IDOCK:   -3.70 KCAL/MOL
REMARK 923 INTER-LIGAND FREE ENERGY PREDICTED BY IDOCK:   -3.62 KCAL/MOL
REMARK 924 INTRA-LIGAND FREE ENERGY PREDICTED BY IDOCK:   -0.08 KCAL/MOL
REMARK 927      BINDING AFFINITY PREDICTED BY RF-SCORE:    0.00 PKD
ROOT
HETATM    1  C   UNL     1     -10.842   7.094  67.227  1.00  0.00    -0.382 C  
HETATM    2  C   UNL     1      -9.937   6.815  68.417  1.00  0.00    -0.153 C  
HETATM    3  C   UNL     1      -9.181   8.050  68.954  1.00  0.00    -0.147 C  
HETATM    4  C   UNL     1     -10.774   6.264  69.551  1.00  0.00    -0.303 C  
HETATM    5  O   UNL     1     -11.658   6.895  70.111  1.00  0.00    -0.322 OA 
HETATM    6  O   UNL     1     -10.465   4.996  69.894  1.00  0.00    -0.280 OA 
ENDROOT
BRANCH   3   7
HETATM    7  N   UNL     1      -8.200   8.663  68.026  1.00  0.00    -0.115 N  
HETATM    8  C   UNL     1      -7.159   7.852  67.545  1.00  0.00    -0.083 C  
HETATM    9  O   UNL     1      -7.056   6.658  67.830  1.00  0.00    -0.079 OA 
HETATM   10  C   UNL     1      -6.183   8.467  66.564  1.00  0.00    -0.054 C  
BRANCH   7  11
HETATM   11  C   UNL     1      -7.972  10.076  68.216  1.00  0.00    -0.097 A  
HETATM   12  C   UNL     1      -7.135  10.560  69.254  1.00  0.00    -0.097 A  
HETATM   13  I   UNL     1      -6.338   9.360  70.802  1.00  0.00    -0.072 I  
HETATM   14  C   UNL     1      -6.781  11.908  69.316  1.00  0.00    -0.099 A  
HETATM   15  C   UNL     1      -7.293  12.814  68.391  1.00  0.00    -0.118 A  
HETATM   16  C   UNL     1      -8.222  12.411  67.413  1.00  0.00    -0.180 A  
HETATM   17  I   UNL     1      -6.629  14.811  68.522  1.00  0.00    -0.133 I  
HETATM   18  N   UNL     1      -8.666  13.326  66.433  1.00  0.00    -0.426 NA 
HETATM   19  C   UNL     1      -8.502  11.024  67.306  1.00  0.00    -0.130 A  
HETATM   20  H1  UNL     1      -9.339  13.034  65.724  1.00  0.00     0.000 HD 
HETATM   21  I   UNL     1      -9.710  10.428  65.654  1.00  0.00    -0.352 I  
HETATM   22  H2  UNL     1      -7.848  13.712  65.960  1.00  0.00     0.000 HD 
ENDBRANCH   7  11
ENDBRANCH   3   7
TORSDOF 2
ENDMDL
MODEL       98
REMARK 921   NORMALIZED FREE ENERGY PREDICTED BY IDOCK:   -3.22 KCAL/MOL
REMARK 922        TOTAL FREE ENERGY PREDICTED BY IDOCK:   -3.69 KCAL/MOL
REMARK 923 INTER-LIGAND FREE ENERGY PREDICTED BY IDOCK:   -3.62 KCAL/MOL
REMARK 924 INTRA-LIGAND FREE ENERGY PREDICTED BY IDOCK:   -0.08 KCAL/MOL
REMARK 927      BINDING AFFINITY PREDICTED BY RF-SCORE:    0.00 PKD
ROOT
HETATM    1  C   UNL     1     -10.777   7.872  69.417  1.00  0.00    -0.174 C  
HETATM    2  C   UNL     1      -9.531   7.437  68.662  1.00  0.00    -0.139 C  
HETATM    3  C   UNL     1      -8.560   8.583  68.308  1.00  0.00    -0.139 C  
HETATM    4  C   UNL     1      -8.769   6.438  69.507  1.00  0.00    -0.133 C  
HETATM    5  O   UNL     1      -8.269   6.707  70.588  1.00  0.00    -0.121 OA 
HETATM    6  O   UNL     1      -8.694   5.205  68.963  1.00  0.00    -0.092 OA 
ENDROOT
BRANCH   3   7
HETATM    7  N   UNL     1      -9.080   9.608  67.370  1.00  0.00    -0.131 N  
HETATM    8  C   UNL     1      -9.387   9.201  66.061  1.00  0.00    -0.238 C  
HETATM    9  O   UNL     1      -9.279   8.033  65.682  1.00  0.00    -0.073 OA 
HETATM   10  C   UNL     1      -9.960  10.237  65.117  1.00  0.00    -0.395 C  
BRANCH   7  11
HETATM   11  C   UNL     1      -8.613  10.953  67.606  1.00  0.00    -0.124 A  
HETATM   12  C   UNL     1      -7.335  11.383  67.166  1.00  0.00    -0.138 A  
HETATM   13  I   UNL     1      -5.853  10.102  66.371  1.00  0.00    -0.083 I  
HETATM   14  C   UNL     1      -6.969  12.728  67.240  1.00  0.00    -0.087 A  
HETATM   15  C   UNL     1      -7.833  13.663  67.804  1.00  0.00    -0.171 A  
HETATM   16  C   UNL     1      -9.064  13.272  68.366  1.00  0.00    -0.137 A  
HETATM   17  I   UNL     1      -7.219  15.680  67.791  1.00  0.00    -0.237 I  
HETATM   18  N   UNL     1      -9.962  14.246  68.857  1.00  0.00    -0.349 NA 
HETATM   19  C   UNL     1      -9.460  11.920  68.202  1.00  0.00    -0.195 A  
HETATM   20  H1  UNL     1     -10.854  13.963  69.264  1.00  0.00     0.000 HD 
HETATM   21  I   UNL     1     -11.435  11.430  68.837  1.00  0.00    -0.462 I  
HETATM   22  H2  UNL     1     -10.148  14.917  68.112  1.00  0.00     0.000 HD 
ENDBRANCH   7  11
ENDBRANCH   3   7
TORSDOF 2
ENDMDL
MODEL       99
REMARK 921   NORMALIZED FREE ENERGY PREDICTED BY IDOCK:   -3.21 KCAL/MOL
REMARK 922        TOTAL FREE ENERGY PREDICTED BY IDOCK:   -3.68 KCAL/MOL
REMARK 923 INTER-LIGAND FREE ENERGY PREDICTED BY IDOCK:   -3.96 KCAL/MOL
REMARK 924 INTRA-LIGAND FREE ENERGY PREDICTED BY IDOCK:    0.27 KCAL/MOL
REMARK 927      BINDING AFFINITY PREDICTED BY RF-SCORE:    0.00 PKD
ROOT
HETATM    1  C   UNL     1     -11.280   8.299  70.133  1.00  0.00    -0.132 C  
HETATM    2  C   UNL     1     -12.025   7.275  70.977  1.00  0.00    -0.362 C  
HETATM    3  C   UNL     1     -11.166   6.591  72.063  1.00  0.00    -0.273 C  
HETATM    4  C   UNL     1     -13.180   7.961  71.674  1.00  0.00    -0.334 C  
HETATM    5  O   UNL     1     -13.042   8.848  72.503  1.00  0.00    -0.422 OA 
HETATM    6  O   UNL     1     -14.394   7.512  71.293  1.00  0.00    -0.413 OA 
ENDROOT
BRANCH   3   7
HETATM    7  N   UNL     1     -10.048   5.750  71.571  1.00  0.00    -0.190 N  
HETATM    8  C   UNL     1      -9.871   4.487  72.160  1.00  0.00    -0.177 C  
HETATM    9  O   UNL     1     -10.624   4.044  73.029  1.00  0.00    -0.167 OA 
HETATM   10  C   UNL     1      -8.756   3.611  71.627  1.00  0.00    -0.124 C  
BRANCH   7  11
HETATM   11  C   UNL     1      -8.899   6.476  71.085  1.00  0.00    -0.138 A  
HETATM   12  C   UNL     1      -8.551   6.480  69.710  1.00  0.00    -0.136 A  
HETATM   13  I   UNL     1      -9.454   5.251  68.247  1.00  0.00    -0.196 I  
HETATM   14  C   UNL     1      -7.550   7.325  69.229  1.00  0.00    -0.102 A  
HETATM   15  C   UNL     1      -6.835   8.139  70.104  1.00  0.00    -0.040 A  
HETATM   16  C   UNL     1      -7.056   8.088  71.494  1.00  0.00    -0.069 A  
HETATM   17  I   UNL     1      -5.403   9.440  69.264  1.00  0.00    -0.035 I  
HETATM   18  N   UNL     1      -6.380   8.980  72.355  1.00  0.00    -0.270 NA 
HETATM   19  C   UNL     1      -8.135   7.292  71.957  1.00  0.00    -0.094 A  
HETATM   20  H1  UNL     1      -6.541   8.943  73.362  1.00  0.00     0.000 HD 
HETATM   21  I   UNL     1      -8.599   7.443  74.032  1.00  0.00    -0.282 I  
HETATM   22  H2  UNL     1      -6.558   9.932  72.036  1.00  0.00     0.000 HD 
ENDBRANCH   7  11
ENDBRANCH   3   7
TORSDOF 2
ENDMDL
MODEL      100
REMARK 921   NORMALIZED FREE ENERGY PREDICTED BY IDOCK:   -3.18 KCAL/MOL
REMARK 922        TOTAL FREE ENERGY PREDICTED BY IDOCK:   -3.65 KCAL/MOL
REMARK 923 INTER-LIGAND FREE ENERGY PREDICTED BY IDOCK:   -3.57 KCAL/MOL
REMARK 924 INTRA-LIGAND FREE ENERGY PREDICTED BY IDOCK:   -0.07 KCAL/MOL
REMARK 927      BINDING AFFINITY PREDICTED BY RF-SCORE:    0.00 PKD
ROOT
HETATM    1  C   UNL     1      -6.810  14.189  67.461  1.00  0.00    -0.151 C  
HETATM    2  C   UNL     1      -8.315  14.399  67.516  1.00  0.00    -0.198 C  
HETATM    3  C   UNL     1      -9.122  13.158  67.958  1.00  0.00    -0.207 C  
HETATM    4  C   UNL     1      -8.620  15.513  68.494  1.00  0.00    -0.176 C  
HETATM    5  O   UNL     1      -8.379  15.450  69.690  1.00  0.00    -0.244 OA 
HETATM    6  O   UNL     1      -9.180  16.601  67.927  1.00  0.00    -0.215 OA 
ENDROOT
BRANCH   3   7
HETATM    7  N   UNL     1      -9.061  11.988  67.049  1.00  0.00    -0.185 N  
HETATM    8  C   UNL     1      -9.787  12.054  65.847  1.00  0.00    -0.238 C  
HETATM    9  O   UNL     1     -10.429  13.050  65.509  1.00  0.00    -0.276 OA 
HETATM   10  C   UNL     1      -9.689  10.877  64.900  1.00  0.00    -0.318 C  
BRANCH   7  11
HETATM   11  C   UNL     1      -8.875  10.712  67.698  1.00  0.00    -0.131 A  
HETATM   12  C   UNL     1      -9.912  10.104  68.451  1.00  0.00    -0.156 A  
HETATM   13  I   UNL     1     -11.733  11.051  68.958  1.00  0.00    -0.288 I  
HETATM   14  C   UNL     1      -9.781   8.797  68.921  1.00  0.00    -0.174 A  
HETATM   15  C   UNL     1      -8.602   8.087  68.708  1.00  0.00    -0.128 A  
HETATM   16  C   UNL     1      -7.496   8.683  68.072  1.00  0.00    -0.097 A  
HETATM   17  I   UNL     1      -8.539   6.090  69.385  1.00  0.00    -0.121 I  
HETATM   18  N   UNL     1      -6.340   7.921  67.792  1.00  0.00    -0.050 NA 
HETATM   19  C   UNL     1      -7.676   9.978  67.522  1.00  0.00    -0.091 A  
HETATM   20  H1  UNL     1      -5.539   8.353  67.331  1.00  0.00     0.000 HD 
HETATM   21  I   UNL     1      -6.067  10.738  66.349  1.00  0.00    -0.131 I  
HETATM   22  H2  UNL     1      -6.619   7.102  67.251  1.00  0.00     0.000 HD 
ENDBRANCH   7  11
ENDBRANCH   3   7
TORSDOF 2
ENDMDL
MODEL      101
REMARK 921   NORMALIZED FREE ENERGY PREDICTED BY IDOCK:   -3.18 KCAL/MOL
REMARK 922        TOTAL FREE ENERGY PREDICTED BY IDOCK:   -3.65 KCAL/MOL
REMARK 923 INTER-LIGAND FREE ENERGY PREDICTED BY IDOCK:   -3.97 KCAL/MOL
REMARK 924 INTRA-LIGAND FREE ENERGY PREDICTED BY IDOCK:    0.33 KCAL/MOL
REMARK 927      BINDING AFFINITY PREDICTED BY RF-SCORE:    0.00 PKD
ROOT
HETATM    1  C   UNL     1     -10.885   6.765  67.040  1.00  0.00    -0.453 C  
HETATM    2  C   UNL     1      -9.543   6.445  66.398  1.00  0.00    -0.156 C  
HETATM    3  C   UNL     1      -8.315   6.892  67.220  1.00  0.00    -0.121 C  
HETATM    4  C   UNL     1      -9.439   4.948  66.199  1.00  0.00    -0.161 C  
HETATM    5  O   UNL     1      -9.424   4.142  67.117  1.00  0.00    -0.163 OA 
HETATM    6  O   UNL     1      -9.371   4.571  64.906  1.00  0.00    -0.154 OA 
ENDROOT
BRANCH   3   7
HETATM    7  N   UNL     1      -8.162   8.354  67.414  1.00  0.00    -0.119 N  
HETATM    8  C   UNL     1      -6.870   8.898  67.305  1.00  0.00    -0.077 C  
HETATM    9  O   UNL     1      -5.882   8.219  67.019  1.00  0.00    -0.043 OA 
HETATM   10  C   UNL     1      -6.721  10.396  67.460  1.00  0.00    -0.071 C  
BRANCH   7  11
HETATM   11  C   UNL     1      -9.114   8.960  68.314  1.00  0.00    -0.140 A  
HETATM   12  C   UNL     1     -10.124   9.839  67.845  1.00  0.00    -0.173 A  
HETATM   13  I   UNL     1     -10.225  10.597  65.874  1.00  0.00    -0.225 I  
HETATM   14  C   UNL     1     -11.143  10.274  68.693  1.00  0.00    -0.290 A  
HETATM   15  C   UNL     1     -11.153   9.896  70.033  1.00  0.00    -0.285 A  
HETATM   16  C   UNL     1     -10.112   9.123  70.581  1.00  0.00    -0.247 A  
HETATM   17  I   UNL     1     -12.784  10.537  71.207  1.00  0.00    -0.544 I  
HETATM   18  N   UNL     1     -10.182   8.682  71.921  1.00  0.00    -0.306 NA 
HETATM   19  C   UNL     1      -9.133   8.616  69.689  1.00  0.00    -0.149 A  
HETATM   20  H1  UNL     1      -9.427   8.121  72.318  1.00  0.00     0.000 HD 
HETATM   21  I   UNL     1      -7.724   7.243  70.512  1.00  0.00    -0.096 I  
HETATM   22  H2  UNL     1     -11.059   8.175  72.047  1.00  0.00     0.000 HD 
ENDBRANCH   7  11
ENDBRANCH   3   7
TORSDOF 2
ENDMDL
MODEL      102
REMARK 921   NORMALIZED FREE ENERGY PREDICTED BY IDOCK:   -3.18 KCAL/MOL
REMARK 922        TOTAL FREE ENERGY PREDICTED BY IDOCK:   -3.65 KCAL/MOL
REMARK 923 INTER-LIGAND FREE ENERGY PREDICTED BY IDOCK:   -3.64 KCAL/MOL
REMARK 924 INTRA-LIGAND FREE ENERGY PREDICTED BY IDOCK:   -0.01 KCAL/MOL
REMARK 927      BINDING AFFINITY PREDICTED BY RF-SCORE:    0.00 PKD
ROOT
HETATM    1  C   UNL     1     -11.645   6.492  70.142  1.00  0.00    -0.466 C  
HETATM    2  C   UNL     1     -10.733   5.767  71.119  1.00  0.00    -0.327 C  
HETATM    3  C   UNL     1      -9.239   6.139  71.002  1.00  0.00    -0.157 C  
HETATM    4  C   UNL     1     -11.173   6.087  72.532  1.00  0.00    -0.290 C  
HETATM    5  O   UNL     1     -11.139   7.208  73.015  1.00  0.00    -0.302 OA 
HETATM    6  O   UNL     1     -11.621   5.017  73.221  1.00  0.00    -0.322 OA 
ENDROOT
BRANCH   3   7
HETATM    7  N   UNL     1      -8.579   5.779  69.724  1.00  0.00    -0.125 N  
HETATM    8  C   UNL     1      -7.838   4.586  69.683  1.00  0.00    -0.058 C  
HETATM    9  O   UNL     1      -7.750   3.821  70.644  1.00  0.00    -0.046 OA 
HETATM   10  C   UNL     1      -7.201   4.197  68.365  1.00  0.00    -0.056 C  
BRANCH   7  11
HETATM   11  C   UNL     1      -8.177   6.896  68.902  1.00  0.00    -0.121 A  
HETATM   12  C   UNL     1      -7.081   7.723  69.259  1.00  0.00    -0.076 A  
HETATM   13  I   UNL     1      -6.073   7.634  71.115  1.00  0.00    -0.034 I  
HETATM   14  C   UNL     1      -6.593   8.683  68.372  1.00  0.00    -0.060 A  
HETATM   15  C   UNL     1      -7.212   8.885  67.141  1.00  0.00    -0.083 A  
HETATM   16  C   UNL     1      -8.374   8.175  66.784  1.00  0.00    -0.115 A  
HETATM   17  I   UNL     1      -6.343  10.300  65.841  1.00  0.00    -0.126 I  
HETATM   18  N   UNL     1      -8.939   8.333  65.499  1.00  0.00    -0.363 NA 
HETATM   19  C   UNL     1      -8.805   7.142  67.656  1.00  0.00    -0.119 A  
HETATM   20  H1  UNL     1      -9.781   7.819  65.241  1.00  0.00     0.000 HD 
HETATM   21  I   UNL     1     -10.411   5.925  66.959  1.00  0.00    -0.390 I  
HETATM   22  H2  UNL     1      -8.217   8.137  64.805  1.00  0.00     0.000 HD 
ENDBRANCH   7  11
ENDBRANCH   3   7
TORSDOF 2
ENDMDL
MODEL      103
REMARK 921   NORMALIZED FREE ENERGY PREDICTED BY IDOCK:   -3.17 KCAL/MOL
REMARK 922        TOTAL FREE ENERGY PREDICTED BY IDOCK:   -3.65 KCAL/MOL
REMARK 923 INTER-LIGAND FREE ENERGY PREDICTED BY IDOCK:   -3.90 KCAL/MOL
REMARK 924 INTRA-LIGAND FREE ENERGY PREDICTED BY IDOCK:    0.25 KCAL/MOL
REMARK 927      BINDING AFFINITY PREDICTED BY RF-SCORE:    0.00 PKD
ROOT
HETATM    1  C   UNL     1     -11.209  10.571  67.599  1.00  0.00    -0.338 C  
HETATM    2  C   UNL     1     -11.146  10.238  69.082  1.00  0.00    -0.283 C  
HETATM    3  C   UNL     1      -9.732  10.305  69.698  1.00  0.00    -0.185 C  
HETATM    4  C   UNL     1     -12.020  11.213  69.841  1.00  0.00    -0.363 C  
HETATM    5  O   UNL     1     -11.808  12.415  69.893  1.00  0.00    -0.322 OA 
HETATM    6  O   UNL     1     -13.073  10.639  70.459  1.00  0.00    -0.295 OA 
ENDROOT
BRANCH   3   7
HETATM    7  N   UNL     1      -8.751   9.323  69.175  1.00  0.00    -0.135 N  
HETATM    8  C   UNL     1      -7.826   8.776  70.081  1.00  0.00    -0.094 C  
HETATM    9  O   UNL     1      -7.827   9.048  71.283  1.00  0.00    -0.209 OA 
HETATM   10  C   UNL     1      -6.854   7.741  69.556  1.00  0.00    -0.047 C  
BRANCH   7  11
HETATM   11  C   UNL     1      -8.371   9.507  67.794  1.00  0.00    -0.118 A  
HETATM   12  C   UNL     1      -7.535  10.579  67.391  1.00  0.00    -0.094 A  
HETATM   13  I   UNL     1      -6.959  12.181  68.644  1.00  0.00    -0.084 I  
HETATM   14  C   UNL     1      -7.032  10.642  66.091  1.00  0.00    -0.135 A  
HETATM   15  C   UNL     1      -7.390   9.681  65.149  1.00  0.00    -0.115 A  
HETATM   16  C   UNL     1      -8.310   8.662  65.462  1.00  0.00    -0.150 A  
HETATM   17  I   UNL     1      -6.507   9.820  63.239  1.00  0.00    -0.131 I  
HETATM   18  N   UNL     1      -8.597   7.649  64.520  1.00  0.00    -0.367 NA 
HETATM   19  C   UNL     1      -8.742   8.559  66.809  1.00  0.00    -0.122 A  
HETATM   20  H1  UNL     1      -9.264   6.910  64.746  1.00  0.00     0.000 HD 
HETATM   21  I   UNL     1      -9.928   6.855  67.293  1.00  0.00    -0.313 I  
HETATM   22  H2  UNL     1      -7.718   7.213  64.239  1.00  0.00     0.000 HD 
ENDBRANCH   7  11
ENDBRANCH   3   7
TORSDOF 2
ENDMDL
MODEL      104
REMARK 921   NORMALIZED FREE ENERGY PREDICTED BY IDOCK:   -3.17 KCAL/MOL
REMARK 922        TOTAL FREE ENERGY PREDICTED BY IDOCK:   -3.64 KCAL/MOL
REMARK 923 INTER-LIGAND FREE ENERGY PREDICTED BY IDOCK:   -3.59 KCAL/MOL
REMARK 924 INTRA-LIGAND FREE ENERGY PREDICTED BY IDOCK:   -0.05 KCAL/MOL
REMARK 927      BINDING AFFINITY PREDICTED BY RF-SCORE:    0.00 PKD
ROOT
HETATM    1  C   UNL     1      -9.191  11.429  68.570  1.00  0.00    -0.174 C  
HETATM    2  C   UNL     1      -9.998  10.613  67.572  1.00  0.00    -0.201 C  
HETATM    3  C   UNL     1     -10.146   9.119  67.931  1.00  0.00    -0.199 C  
HETATM    4  C   UNL     1     -11.391  11.198  67.473  1.00  0.00    -0.278 C  
HETATM    5  O   UNL     1     -12.183  11.224  68.403  1.00  0.00    -0.604 OA 
HETATM    6  O   UNL     1     -11.688  11.703  66.258  1.00  0.00    -0.443 OA 
ENDROOT
BRANCH   3   7
HETATM    7  N   UNL     1      -8.890   8.329  67.948  1.00  0.00    -0.137 N  
HETATM    8  C   UNL     1      -8.131   8.282  66.767  1.00  0.00    -0.103 C  
HETATM    9  O   UNL     1      -8.446   8.895  65.746  1.00  0.00    -0.128 OA 
HETATM   10  C   UNL     1      -6.828   7.512  66.798  1.00  0.00    -0.070 C  
BRANCH   7  11
HETATM   11  C   UNL     1      -8.887   7.196  68.843  1.00  0.00    -0.130 A  
HETATM   12  C   UNL     1      -9.466   5.956  68.471  1.00  0.00    -0.121 A  
HETATM   13  I   UNL     1     -10.629   5.654  66.732  1.00  0.00    -0.138 I  
HETATM   14  C   UNL     1      -9.300   4.822  69.268  1.00  0.00    -0.196 A  
HETATM   15  C   UNL     1      -8.608   4.905  70.474  1.00  0.00    -0.107 A  
HETATM   16  C   UNL     1      -8.115   6.135  70.950  1.00  0.00    -0.121 A  
HETATM   17  I   UNL     1      -8.339   3.118  71.560  1.00  0.00    -0.104 I  
HETATM   18  N   UNL     1      -7.345   6.184  72.133  1.00  0.00    -0.092 NA 
HETATM   19  C   UNL     1      -8.214   7.258  70.088  1.00  0.00    -0.134 A  
HETATM   20  H1  UNL     1      -6.988   7.076  72.477  1.00  0.00     0.000 HD 
HETATM   21  I   UNL     1      -7.230   9.035  70.735  1.00  0.00    -0.109 I  
HETATM   22  H2  UNL     1      -6.560   5.541  72.032  1.00  0.00     0.000 HD 
ENDBRANCH   7  11
ENDBRANCH   3   7
TORSDOF 2
ENDMDL
MODEL      105
REMARK 921   NORMALIZED FREE ENERGY PREDICTED BY IDOCK:   -3.16 KCAL/MOL
REMARK 922        TOTAL FREE ENERGY PREDICTED BY IDOCK:   -3.63 KCAL/MOL
REMARK 923 INTER-LIGAND FREE ENERGY PREDICTED BY IDOCK:   -3.64 KCAL/MOL
REMARK 924 INTRA-LIGAND FREE ENERGY PREDICTED BY IDOCK:    0.00 KCAL/MOL
REMARK 927      BINDING AFFINITY PREDICTED BY RF-SCORE:    0.00 PKD
ROOT
HETATM    1  C   UNL     1      -9.621   8.610  72.007  1.00  0.00    -0.385 C  
HETATM    2  C   UNL     1     -10.232   9.459  70.903  1.00  0.00    -0.373 C  
HETATM    3  C   UNL     1      -9.971   8.939  69.472  1.00  0.00    -0.191 C  
HETATM    4  C   UNL     1     -11.732   9.515  71.101  1.00  0.00    -0.363 C  
HETATM    5  O   UNL     1     -12.462   8.538  71.035  1.00  0.00    -0.225 OA 
HETATM    6  O   UNL     1     -12.203  10.751  71.369  1.00  0.00    -0.338 OA 
ENDROOT
BRANCH   3   7
HETATM    7  N   UNL     1      -8.555   8.933  69.033  1.00  0.00    -0.136 N  
HETATM    8  C   UNL     1      -7.907  10.172  68.893  1.00  0.00    -0.100 C  
HETATM    9  O   UNL     1      -8.454  11.245  69.155  1.00  0.00    -0.051 OA 
HETATM   10  C   UNL     1      -6.449  10.163  68.487  1.00  0.00    -0.049 C  
BRANCH   7  11
HETATM   11  C   UNL     1      -8.180   7.833  68.176  1.00  0.00    -0.124 A  
HETATM   12  C   UNL     1      -7.540   6.676  68.690  1.00  0.00    -0.101 A  
HETATM   13  I   UNL     1      -6.808   6.495  70.665  1.00  0.00    -0.066 I  
HETATM   14  C   UNL     1      -7.347   5.551  67.888  1.00  0.00    -0.073 A  
HETATM   15  C   UNL     1      -7.727   5.568  66.548  1.00  0.00    -0.100 A  
HETATM   16  C   UNL     1      -8.257   6.729  65.955  1.00  0.00    -0.132 A  
HETATM   17  I   UNL     1      -7.468   3.788  65.447  1.00  0.00    -0.078 I  
HETATM   18  N   UNL     1      -8.713   6.701  64.618  1.00  0.00    -0.327 NA 
HETATM   19  C   UNL     1      -8.530   7.833  66.803  1.00  0.00    -0.126 A  
HETATM   20  H1  UNL     1      -9.097   7.543  64.188  1.00  0.00     0.000 HD 
HETATM   21  I   UNL     1      -9.566   9.472  65.917  1.00  0.00    -0.301 I  
HETATM   22  H2  UNL     1      -9.401   5.952  64.529  1.00  0.00     0.000 HD 
ENDBRANCH   7  11
ENDBRANCH   3   7
TORSDOF 2
ENDMDL
MODEL      106
REMARK 921   NORMALIZED FREE ENERGY PREDICTED BY IDOCK:   -3.15 KCAL/MOL
REMARK 922        TOTAL FREE ENERGY PREDICTED BY IDOCK:   -3.62 KCAL/MOL
REMARK 923 INTER-LIGAND FREE ENERGY PREDICTED BY IDOCK:   -3.53 KCAL/MOL
REMARK 924 INTRA-LIGAND FREE ENERGY PREDICTED BY IDOCK:   -0.09 KCAL/MOL
REMARK 927      BINDING AFFINITY PREDICTED BY RF-SCORE:    0.00 PKD
ROOT
HETATM    1  C   UNL     1      -8.770  10.680  66.996  1.00  0.00    -0.128 C  
HETATM    2  C   UNL     1     -10.204  10.233  67.236  1.00  0.00    -0.267 C  
HETATM    3  C   UNL     1     -10.412   9.407  68.524  1.00  0.00    -0.208 C  
HETATM    4  C   UNL     1     -11.090  11.456  67.331  1.00  0.00    -0.289 C  
HETATM    5  O   UNL     1     -10.990  12.300  68.209  1.00  0.00    -0.208 OA 
HETATM    6  O   UNL     1     -12.009  11.544  66.347  1.00  0.00    -0.345 OA 
ENDROOT
BRANCH   3   7
HETATM    7  N   UNL     1      -9.725   8.093  68.570  1.00  0.00    -0.159 N  
HETATM    8  C   UNL     1     -10.280   7.037  67.828  1.00  0.00    -0.180 C  
HETATM    9  O   UNL     1     -11.279   7.172  67.120  1.00  0.00    -0.276 OA 
HETATM   10  C   UNL     1      -9.553   5.709  67.841  1.00  0.00    -0.133 C  
BRANCH   7  11
HETATM   11  C   UNL     1      -9.024   7.808  69.800  1.00  0.00    -0.146 A  
HETATM   12  C   UNL     1      -7.611   7.908  69.889  1.00  0.00    -0.089 A  
HETATM   13  I   UNL     1      -6.329   8.207  68.236  1.00  0.00    -0.053 I  
HETATM   14  C   UNL     1      -6.965   7.805  71.122  1.00  0.00    -0.049 A  
HETATM   15  C   UNL     1      -7.693   7.543  72.279  1.00  0.00    -0.090 A  
HETATM   16  C   UNL     1      -9.082   7.316  72.232  1.00  0.00    -0.131 A  
HETATM   17  I   UNL     1      -6.631   7.491  74.100  1.00  0.00    -0.108 I  
HETATM   18  N   UNL     1      -9.815   7.134  73.426  1.00  0.00    -0.229 NA 
HETATM   19  C   UNL     1      -9.736   7.512  70.988  1.00  0.00    -0.167 A  
HETATM   20  H1  UNL     1     -10.821   6.970  73.391  1.00  0.00     0.000 HD 
HETATM   21  I   UNL     1     -11.866   7.411  71.014  1.00  0.00    -0.277 I  
HETATM   22  H2  UNL     1      -9.641   7.934  74.034  1.00  0.00     0.000 HD 
ENDBRANCH   7  11
ENDBRANCH   3   7
TORSDOF 2
ENDMDL
MODEL      107
REMARK 921   NORMALIZED FREE ENERGY PREDICTED BY IDOCK:   -3.14 KCAL/MOL
REMARK 922        TOTAL FREE ENERGY PREDICTED BY IDOCK:   -3.60 KCAL/MOL
REMARK 923 INTER-LIGAND FREE ENERGY PREDICTED BY IDOCK:   -3.54 KCAL/MOL
REMARK 924 INTRA-LIGAND FREE ENERGY PREDICTED BY IDOCK:   -0.06 KCAL/MOL
REMARK 927      BINDING AFFINITY PREDICTED BY RF-SCORE:    0.00 PKD
ROOT
HETATM    1  C   UNL     1      -9.308   2.834  68.530  1.00  0.00    -0.249 C  
HETATM    2  C   UNL     1      -9.287   4.136  67.745  1.00  0.00    -0.211 C  
HETATM    3  C   UNL     1      -8.806   5.364  68.548  1.00  0.00    -0.100 C  
HETATM    4  C   UNL     1      -8.362   3.978  66.557  1.00  0.00    -0.104 C  
HETATM    5  O   UNL     1      -7.160   3.779  66.655  1.00  0.00    -0.058 OA 
HETATM    6  O   UNL     1      -8.983   4.068  65.363  1.00  0.00    -0.122 OA 
ENDROOT
BRANCH   3   7
HETATM    7  N   UNL     1      -9.663   5.769  69.689  1.00  0.00    -0.154 N  
HETATM    8  C   UNL     1     -10.956   6.238  69.401  1.00  0.00    -0.375 C  
HETATM    9  O   UNL     1     -11.410   6.287  68.257  1.00  0.00    -0.289 OA 
HETATM   10  C   UNL     1     -11.846   6.609  70.569  1.00  0.00    -0.430 C  
BRANCH   7  11
HETATM   11  C   UNL     1      -8.958   6.285  70.837  1.00  0.00    -0.147 A  
HETATM   12  C   UNL     1      -8.773   5.505  72.008  1.00  0.00    -0.131 A  
HETATM   13  I   UNL     1      -9.701   3.638  72.356  1.00  0.00    -0.240 I  
HETATM   14  C   UNL     1      -7.940   5.947  73.036  1.00  0.00    -0.106 A  
HETATM   15  C   UNL     1      -7.320   7.191  72.956  1.00  0.00    -0.072 A  
HETATM   16  C   UNL     1      -7.563   8.058  71.873  1.00  0.00    -0.089 A  
HETATM   17  I   UNL     1      -6.015   7.726  74.523  1.00  0.00    -0.100 I  
HETATM   18  N   UNL     1      -6.861   9.279  71.768  1.00  0.00    -0.312 NA 
HETATM   19  C   UNL     1      -8.339   7.559  70.795  1.00  0.00    -0.118 A  
HETATM   20  H1  UNL     1      -7.037   9.907  70.983  1.00  0.00     0.000 HD 
HETATM   21  I   UNL     1      -8.468   8.803  69.068  1.00  0.00    -0.134 I  
HETATM   22  H2  UNL     1      -5.861   9.079  71.802  1.00  0.00     0.000 HD 
ENDBRANCH   7  11
ENDBRANCH   3   7
TORSDOF 2
ENDMDL
MODEL      108
REMARK 921   NORMALIZED FREE ENERGY PREDICTED BY IDOCK:   -3.13 KCAL/MOL
REMARK 922        TOTAL FREE ENERGY PREDICTED BY IDOCK:   -3.59 KCAL/MOL
REMARK 923 INTER-LIGAND FREE ENERGY PREDICTED BY IDOCK:   -3.95 KCAL/MOL
REMARK 924 INTRA-LIGAND FREE ENERGY PREDICTED BY IDOCK:    0.36 KCAL/MOL
REMARK 927      BINDING AFFINITY PREDICTED BY RF-SCORE:    0.00 PKD
ROOT
HETATM    1  C   UNL     1     -10.397   9.975  65.941  1.00  0.00    -0.202 C  
HETATM    2  C   UNL     1     -10.566  11.389  65.405  1.00  0.00    -0.333 C  
HETATM    3  C   UNL     1      -9.419  12.356  65.771  1.00  0.00    -0.086 C  
HETATM    4  C   UNL     1     -10.652  11.335  63.895  1.00  0.00    -0.391 C  
HETATM    5  O   UNL     1      -9.740  10.951  63.177  1.00  0.00    -0.301 OA 
HETATM    6  O   UNL     1     -11.838  11.742  63.399  1.00  0.00    -0.453 OA 
ENDROOT
BRANCH   3   7
HETATM    7  N   UNL     1      -9.254  12.650  67.215  1.00  0.00    -0.188 N  
HETATM    8  C   UNL     1      -8.734  13.905  67.573  1.00  0.00    -0.193 C  
HETATM    9  O   UNL     1      -8.451  14.772  66.744  1.00  0.00    -0.222 OA 
HETATM   10  C   UNL     1      -8.607  14.220  69.048  1.00  0.00     0.060 C  
BRANCH   7  11
HETATM   11  C   UNL     1      -8.984  11.503  68.050  1.00  0.00    -0.170 A  
HETATM   12  C   UNL     1      -7.716  10.867  68.050  1.00  0.00    -0.101 A  
HETATM   13  I   UNL     1      -6.164  11.298  66.682  1.00  0.00    -0.038 I  
HETATM   14  C   UNL     1      -7.414   9.878  68.987  1.00  0.00    -0.083 A  
HETATM   15  C   UNL     1      -8.375   9.458  69.903  1.00  0.00    -0.167 A  
HETATM   16  C   UNL     1      -9.686   9.970  69.871  1.00  0.00    -0.203 A  
HETATM   17  I   UNL     1      -7.788   8.020  71.329  1.00  0.00    -0.137 I  
HETATM   18  N   UNL     1     -10.621   9.592  70.860  1.00  0.00    -0.320 NA 
HETATM   19  C   UNL     1      -9.952  11.036  68.974  1.00  0.00    -0.167 A  
HETATM   20  H1  UNL     1     -11.572   9.964  70.836  1.00  0.00     0.000 HD 
HETATM   21  I   UNL     1     -11.870  11.952  69.136  1.00  0.00    -0.254 I  
HETATM   22  H2  UNL     1     -10.220   9.795  71.776  1.00  0.00     0.000 HD 
ENDBRANCH   7  11
ENDBRANCH   3   7
TORSDOF 2
ENDMDL
MODEL      109
REMARK 921   NORMALIZED FREE ENERGY PREDICTED BY IDOCK:   -3.13 KCAL/MOL
REMARK 922        TOTAL FREE ENERGY PREDICTED BY IDOCK:   -3.59 KCAL/MOL
REMARK 923 INTER-LIGAND FREE ENERGY PREDICTED BY IDOCK:   -3.64 KCAL/MOL
REMARK 924 INTRA-LIGAND FREE ENERGY PREDICTED BY IDOCK:    0.05 KCAL/MOL
REMARK 927      BINDING AFFINITY PREDICTED BY RF-SCORE:    0.00 PKD
ROOT
HETATM    1  C   UNL     1     -10.990   6.793  67.482  1.00  0.00    -0.375 C  
HETATM    2  C   UNL     1     -10.040   6.628  68.659  1.00  0.00    -0.169 C  
HETATM    3  C   UNL     1      -9.219   7.889  69.005  1.00  0.00    -0.147 C  
HETATM    4  C   UNL     1     -10.841   6.254  69.888  1.00  0.00    -0.335 C  
HETATM    5  O   UNL     1     -11.676   6.983  70.401  1.00  0.00    -0.316 OA 
HETATM    6  O   UNL     1     -10.558   5.027  70.373  1.00  0.00    -0.215 OA 
ENDROOT
BRANCH   3   7
HETATM    7  N   UNL     1      -8.262   8.345  67.967  1.00  0.00    -0.126 N  
HETATM    8  C   UNL     1      -7.276   7.439  67.543  1.00  0.00    -0.094 C  
HETATM    9  O   UNL     1      -7.203   6.284  67.967  1.00  0.00    -0.082 OA 
HETATM   10  C   UNL     1      -6.328   7.890  66.452  1.00  0.00    -0.046 C  
BRANCH   7  11
HETATM   11  C   UNL     1      -7.974   9.759  67.974  1.00  0.00    -0.097 A  
HETATM   12  C   UNL     1      -8.521  10.633  67.000  1.00  0.00    -0.129 A  
HETATM   13  I   UNL     1      -9.581   9.996  65.285  1.00  0.00    -0.333 I  
HETATM   14  C   UNL     1      -8.381  12.016  67.122  1.00  0.00    -0.181 A  
HETATM   15  C   UNL     1      -7.648  12.560  68.174  1.00  0.00    -0.127 A  
HETATM   16  C   UNL     1      -6.983  11.736  69.102  1.00  0.00    -0.091 A  
HETATM   17  I   UNL     1      -7.569  14.662  68.314  1.00  0.00    -0.172 I  
HETATM   18  N   UNL     1      -6.315  12.305  70.209  1.00  0.00    -0.443 NA 
HETATM   19  C   UNL     1      -7.209  10.338  69.017  1.00  0.00    -0.080 A  
HETATM   20  H1  UNL     1      -5.834  11.708  70.881  1.00  0.00     0.000 HD 
HETATM   21  I   UNL     1      -6.394   9.152  70.590  1.00  0.00    -0.084 I  
HETATM   22  H2  UNL     1      -6.978  12.892  70.717  1.00  0.00     0.000 HD 
ENDBRANCH   7  11
ENDBRANCH   3   7
TORSDOF 2
ENDMDL
MODEL      110
REMARK 921   NORMALIZED FREE ENERGY PREDICTED BY IDOCK:   -3.11 KCAL/MOL
REMARK 922        TOTAL FREE ENERGY PREDICTED BY IDOCK:   -3.58 KCAL/MOL
REMARK 923 INTER-LIGAND FREE ENERGY PREDICTED BY IDOCK:   -3.75 KCAL/MOL
REMARK 924 INTRA-LIGAND FREE ENERGY PREDICTED BY IDOCK:    0.17 KCAL/MOL
REMARK 927      BINDING AFFINITY PREDICTED BY RF-SCORE:    0.00 PKD
ROOT
HETATM    1  C   UNL     1      -9.638  11.977  66.727  1.00  0.00    -0.215 C  
HETATM    2  C   UNL     1      -8.846  10.748  66.308  1.00  0.00    -0.182 C  
HETATM    3  C   UNL     1      -9.145   9.478  67.133  1.00  0.00    -0.134 C  
HETATM    4  C   UNL     1      -9.157  10.435  64.860  1.00  0.00    -0.208 C  
HETATM    5  O   UNL     1     -10.265  10.110  64.459  1.00  0.00    -0.256 OA 
HETATM    6  O   UNL     1      -8.097  10.553  64.034  1.00  0.00    -0.125 OA 
ENDROOT
BRANCH   3   7
HETATM    7  N   UNL     1      -8.780   9.537  68.569  1.00  0.00    -0.123 N  
HETATM    8  C   UNL     1      -7.503  10.019  68.901  1.00  0.00    -0.083 C  
HETATM    9  O   UNL     1      -6.702  10.425  68.057  1.00  0.00    -0.064 OA 
HETATM   10  C   UNL     1      -7.147  10.121  70.369  1.00  0.00    -0.099 C  
BRANCH   7  11
HETATM   11  C   UNL     1      -9.402   8.538  69.405  1.00  0.00    -0.154 A  
HETATM   12  C   UNL     1      -8.815   7.262  69.600  1.00  0.00    -0.141 A  
HETATM   13  I   UNL     1      -7.145   6.540  68.523  1.00  0.00    -0.089 I  
HETATM   14  C   UNL     1      -9.330   6.375  70.546  1.00  0.00    -0.169 A  
HETATM   15  C   UNL     1     -10.469   6.707  71.276  1.00  0.00    -0.215 A  
HETATM   16  C   UNL     1     -11.162   7.909  71.039  1.00  0.00    -0.269 A  
HETATM   17  I   UNL     1     -11.115   5.333  72.739  1.00  0.00    -0.277 I  
HETATM   18  N   UNL     1     -12.265   8.265  71.846  1.00  0.00    -0.317 NA 
HETATM   19  C   UNL     1     -10.577   8.838  70.140  1.00  0.00    -0.221 A  
HETATM   20  H1  UNL     1     -12.768   9.137  71.674  1.00  0.00     0.000 HD 
HETATM   21  I   UNL     1     -11.519  10.745  70.005  1.00  0.00    -0.405 I  
HETATM   22  H2  UNL     1     -11.967   8.254  72.821  1.00  0.00     0.000 HD 
ENDBRANCH   7  11
ENDBRANCH   3   7
TORSDOF 2
ENDMDL
MODEL      111
REMARK 921   NORMALIZED FREE ENERGY PREDICTED BY IDOCK:   -3.11 KCAL/MOL
REMARK 922        TOTAL FREE ENERGY PREDICTED BY IDOCK:   -3.57 KCAL/MOL
REMARK 923 INTER-LIGAND FREE ENERGY PREDICTED BY IDOCK:   -3.70 KCAL/MOL
REMARK 924 INTRA-LIGAND FREE ENERGY PREDICTED BY IDOCK:    0.13 KCAL/MOL
REMARK 927      BINDING AFFINITY PREDICTED BY RF-SCORE:    0.00 PKD
ROOT
HETATM    1  C   UNL     1     -10.320   8.994  70.976  1.00  0.00    -0.348 C  
HETATM    2  C   UNL     1      -8.980   8.911  70.263  1.00  0.00    -0.201 C  
HETATM    3  C   UNL     1      -8.467  10.254  69.698  1.00  0.00    -0.115 C  
HETATM    4  C   UNL     1      -7.938   8.398  71.234  1.00  0.00    -0.121 C  
HETATM    5  O   UNL     1      -7.597   8.998  72.242  1.00  0.00    -0.344 OA 
HETATM    6  O   UNL     1      -7.416   7.201  70.895  1.00  0.00    -0.078 OA 
ENDROOT
BRANCH   3   7
HETATM    7  N   UNL     1      -9.289  10.862  68.624  1.00  0.00    -0.181 N  
HETATM    8  C   UNL     1      -9.199  10.306  67.337  1.00  0.00    -0.141 C  
HETATM    9  O   UNL     1      -8.503   9.321  67.082  1.00  0.00    -0.122 OA 
HETATM   10  C   UNL     1     -10.071  10.899  66.251  1.00  0.00    -0.284 C  
BRANCH   7  11
HETATM   11  C   UNL     1      -9.550  12.274  68.772  1.00  0.00     0.062 A  
HETATM   12  C   UNL     1      -8.609  13.251  68.357  1.00  0.00    -0.130 A  
HETATM   13  I   UNL     1      -6.635  12.819  67.736  1.00  0.00    -0.157 I  
HETATM   14  C   UNL     1      -8.946  14.605  68.340  1.00  0.00    -0.180 A  
HETATM   15  C   UNL     1     -10.196  15.026  68.787  1.00  0.00    -0.235 A  
HETATM   16  C   UNL     1     -11.124  14.112  69.322  1.00  0.00    -0.250 A  
HETATM   17  I   UNL     1     -10.634  17.083  68.640  1.00  0.00    -0.242 I  
HETATM   18  N   UNL     1     -12.417  14.546  69.693  1.00  0.00    -0.540 NA 
HETATM   19  C   UNL     1     -10.803  12.733  69.249  1.00  0.00     0.009 A  
HETATM   20  H1  UNL     1     -13.090  13.884  70.080  1.00  0.00     0.000 HD 
HETATM   21  I   UNL     1     -12.339  11.373  69.831  1.00  0.00    -0.102 I  
HETATM   22  H2  UNL     1     -12.844  15.006  68.888  1.00  0.00     0.000 HD 
ENDBRANCH   7  11
ENDBRANCH   3   7
TORSDOF 2
ENDMDL
MODEL      112
REMARK 921   NORMALIZED FREE ENERGY PREDICTED BY IDOCK:   -3.10 KCAL/MOL
REMARK 922        TOTAL FREE ENERGY PREDICTED BY IDOCK:   -3.56 KCAL/MOL
REMARK 923 INTER-LIGAND FREE ENERGY PREDICTED BY IDOCK:   -4.11 KCAL/MOL
REMARK 924 INTRA-LIGAND FREE ENERGY PREDICTED BY IDOCK:    0.55 KCAL/MOL
REMARK 927      BINDING AFFINITY PREDICTED BY RF-SCORE:    0.00 PKD
ROOT
HETATM    1  C   UNL     1     -10.945   7.522  69.826  1.00  0.00    -0.195 C  
HETATM    2  C   UNL     1     -10.411   8.570  70.791  1.00  0.00    -0.239 C  
HETATM    3  C   UNL     1     -10.450  10.017  70.254  1.00  0.00    -0.272 C  
HETATM    4  C   UNL     1     -11.234   8.532  72.061  1.00  0.00    -0.348 C  
HETATM    5  O   UNL     1     -12.425   8.801  72.106  1.00  0.00    -0.351 OA 
HETATM    6  O   UNL     1     -10.536   8.163  73.155  1.00  0.00    -0.274 OA 
ENDROOT
BRANCH   3   7
HETATM    7  N   UNL     1      -9.592  10.295  69.077  1.00  0.00    -0.192 N  
HETATM    8  C   UNL     1      -8.266  10.693  69.313  1.00  0.00    -0.115 C  
HETATM    9  O   UNL     1      -7.786  10.780  70.444  1.00  0.00     0.241 OA 
HETATM   10  C   UNL     1      -7.378  10.934  68.110  1.00  0.00    -0.089 C  
BRANCH   7  11
HETATM   11  C   UNL     1     -10.287  10.788  67.911  1.00  0.00    -0.185 A  
HETATM   12  C   UNL     1     -11.050  11.984  67.952  1.00  0.00    -0.236 A  
HETATM   13  I   UNL     1     -11.506  13.048  69.720  1.00  0.00     0.066 I  
HETATM   14  C   UNL     1     -11.565  12.542  66.781  1.00  0.00    -0.446 A  
HETATM   15  C   UNL     1     -11.388  11.901  65.558  1.00  0.00    -0.277 A  
HETATM   16  C   UNL     1     -10.743  10.652  65.475  1.00  0.00    -0.035 A  
HETATM   17  I   UNL     1     -12.133  12.871  63.840  1.00  0.00    -0.563 I  
HETATM   18  N   UNL     1     -10.500  10.058  64.217  1.00  0.00    -0.121 NA 
HETATM   19  C   UNL     1     -10.147  10.142  66.658  1.00  0.00    -0.223 A  
HETATM   20  H1  UNL     1     -10.032   9.153  64.157  1.00  0.00     0.000 HD 
HETATM   21  I   UNL     1      -8.964   8.383  66.437  1.00  0.00    -0.257 I  
HETATM   22  H2  UNL     1      -9.985  10.725  63.641  1.00  0.00     0.000 HD 
ENDBRANCH   7  11
ENDBRANCH   3   7
TORSDOF 2
ENDMDL
MODEL      113
REMARK 921   NORMALIZED FREE ENERGY PREDICTED BY IDOCK:   -3.08 KCAL/MOL
REMARK 922        TOTAL FREE ENERGY PREDICTED BY IDOCK:   -3.54 KCAL/MOL
REMARK 923 INTER-LIGAND FREE ENERGY PREDICTED BY IDOCK:   -3.51 KCAL/MOL
REMARK 924 INTRA-LIGAND FREE ENERGY PREDICTED BY IDOCK:   -0.03 KCAL/MOL
REMARK 927      BINDING AFFINITY PREDICTED BY RF-SCORE:    0.00 PKD
ROOT
HETATM    1  C   UNL     1      -8.838   4.919  67.033  1.00  0.00    -0.106 C  
HETATM    2  C   UNL     1      -8.215   4.081  68.139  1.00  0.00    -0.095 C  
HETATM    3  C   UNL     1      -8.722   4.410  69.560  1.00  0.00    -0.082 C  
HETATM    4  C   UNL     1      -8.514   2.620  67.876  1.00  0.00    -0.085 C  
HETATM    5  O   UNL     1      -9.641   2.149  67.873  1.00  0.00    -0.175 OA 
HETATM    6  O   UNL     1      -7.418   1.872  67.632  1.00  0.00    -0.054 OA 
ENDROOT
BRANCH   3   7
HETATM    7  N   UNL     1      -8.405   5.769  70.062  1.00  0.00    -0.121 N  
HETATM    8  C   UNL     1      -7.216   5.937  70.791  1.00  0.00    -0.080 C  
HETATM    9  O   UNL     1      -6.420   5.018  70.990  1.00  0.00    -0.025 OA 
HETATM   10  C   UNL     1      -6.872   7.333  71.266  1.00  0.00    -0.055 C  
BRANCH   7  11
HETATM   11  C   UNL     1      -9.549   6.595  70.367  1.00  0.00    -0.165 A  
HETATM   12  C   UNL     1     -10.361   6.350  71.504  1.00  0.00    -0.207 A  
HETATM   13  I   UNL     1     -10.204   4.639  72.736  1.00  0.00    -0.267 I  
HETATM   14  C   UNL     1     -11.350   7.257  71.885  1.00  0.00    -0.288 A  
HETATM   15  C   UNL     1     -11.597   8.393  71.118  1.00  0.00    -0.279 A  
HETATM   16  C   UNL     1     -10.903   8.626  69.915  1.00  0.00    -0.208 A  
HETATM   17  I   UNL     1     -13.054   9.742  71.828  1.00  0.00    -0.519 I  
HETATM   18  N   UNL     1     -11.108   9.824  69.196  1.00  0.00    -0.387 NA 
HETATM   19  C   UNL     1      -9.841   7.743  69.589  1.00  0.00    -0.182 A  
HETATM   20  H1  UNL     1     -10.606   9.992  68.324  1.00  0.00     0.000 HD 
HETATM   21  I   UNL     1      -8.654   8.276  67.900  1.00  0.00    -0.130 I  
HETATM   22  H2  UNL     1     -10.935  10.609  69.823  1.00  0.00     0.000 HD 
ENDBRANCH   7  11
ENDBRANCH   3   7
TORSDOF 2
ENDMDL
MODEL      114
REMARK 921   NORMALIZED FREE ENERGY PREDICTED BY IDOCK:   -3.08 KCAL/MOL
REMARK 922        TOTAL FREE ENERGY PREDICTED BY IDOCK:   -3.54 KCAL/MOL
REMARK 923 INTER-LIGAND FREE ENERGY PREDICTED BY IDOCK:   -3.74 KCAL/MOL
REMARK 924 INTRA-LIGAND FREE ENERGY PREDICTED BY IDOCK:    0.20 KCAL/MOL
REMARK 927      BINDING AFFINITY PREDICTED BY RF-SCORE:    0.00 PKD
ROOT
HETATM    1  C   UNL     1     -10.427  10.644  69.219  1.00  0.00    -0.252 C  
HETATM    2  C   UNL     1      -9.453   9.476  69.210  1.00  0.00    -0.171 C  
HETATM    3  C   UNL     1      -7.982   9.868  68.951  1.00  0.00    -0.096 C  
HETATM    4  C   UNL     1      -9.509   8.780  70.553  1.00  0.00    -0.186 C  
HETATM    5  O   UNL     1      -9.185   9.308  71.605  1.00  0.00    -0.313 OA 
HETATM    6  O   UNL     1      -9.962   7.510  70.492  1.00  0.00    -0.184 OA 
ENDROOT
BRANCH   3   7
HETATM    7  N   UNL     1      -7.691  10.452  67.619  1.00  0.00    -0.093 N  
HETATM    8  C   UNL     1      -6.549   9.995  66.939  1.00  0.00    -0.071 C  
HETATM    9  O   UNL     1      -5.814   9.113  67.386  1.00  0.00    -0.045 OA 
HETATM   10  C   UNL     1      -6.278  10.560  65.561  1.00  0.00    -0.118 C  
BRANCH   7  11
HETATM   11  C   UNL     1      -8.133  11.814  67.433  1.00  0.00    -0.161 A  
HETATM   12  C   UNL     1      -7.491  12.898  68.085  1.00  0.00    -0.126 A  
HETATM   13  I   UNL     1      -6.022  12.686  69.589  1.00  0.00    -0.104 I  
HETATM   14  C   UNL     1      -7.811  14.217  67.759  1.00  0.00    -0.177 A  
HETATM   15  C   UNL     1      -8.810  14.490  66.829  1.00  0.00    -0.220 A  
HETATM   16  C   UNL     1      -9.561  13.455  66.240  1.00  0.00    -0.235 A  
HETATM   17  I   UNL     1      -9.155  16.514  66.346  1.00  0.00    -0.333 I  
HETATM   18  N   UNL     1     -10.512  13.748  65.237  1.00  0.00    -0.343 NA 
HETATM   19  C   UNL     1      -9.165  12.121  66.512  1.00  0.00    -0.216 A  
HETATM   20  H1  UNL     1     -11.057  12.998  64.810  1.00  0.00     0.000 HD 
HETATM   21  I   UNL     1     -10.160  10.595  65.404  1.00  0.00    -0.296 I  
HETATM   22  H2  UNL     1     -10.046  14.269  64.494  1.00  0.00     0.000 HD 
ENDBRANCH   7  11
ENDBRANCH   3   7
TORSDOF 2
ENDMDL
MODEL      115
REMARK 921   NORMALIZED FREE ENERGY PREDICTED BY IDOCK:   -3.07 KCAL/MOL
REMARK 922        TOTAL FREE ENERGY PREDICTED BY IDOCK:   -3.53 KCAL/MOL
REMARK 923 INTER-LIGAND FREE ENERGY PREDICTED BY IDOCK:   -3.52 KCAL/MOL
REMARK 924 INTRA-LIGAND FREE ENERGY PREDICTED BY IDOCK:   -0.01 KCAL/MOL
REMARK 927      BINDING AFFINITY PREDICTED BY RF-SCORE:    0.00 PKD
ROOT
HETATM    1  C   UNL     1      -8.043   7.432  66.796  1.00  0.00    -0.123 C  
HETATM    2  C   UNL     1      -7.348   6.370  67.634  1.00  0.00    -0.088 C  
HETATM    3  C   UNL     1      -7.977   6.134  69.024  1.00  0.00    -0.108 C  
HETATM    4  C   UNL     1      -7.385   5.054  66.887  1.00  0.00    -0.086 C  
HETATM    5  O   UNL     1      -8.416   4.457  66.616  1.00  0.00    -0.105 OA 
HETATM    6  O   UNL     1      -6.168   4.591  66.534  1.00  0.00    -0.030 OA 
ENDROOT
BRANCH   3   7
HETATM    7  N   UNL     1      -7.919   7.278  69.965  1.00  0.00    -0.115 N  
HETATM    8  C   UNL     1      -6.911   7.270  70.945  1.00  0.00    -0.056 C  
HETATM    9  O   UNL     1      -6.064   6.379  71.023  1.00  0.00    -0.030 OA 
HETATM   10  C   UNL     1      -6.825   8.460  71.877  1.00  0.00    -0.092 C  
BRANCH   7  11
HETATM   11  C   UNL     1      -9.188   7.904  70.255  1.00  0.00    -0.152 A  
HETATM   12  C   UNL     1     -10.176   7.251  71.036  1.00  0.00    -0.192 A  
HETATM   13  I   UNL     1     -10.072   5.231  71.647  1.00  0.00    -0.270 I  
HETATM   14  C   UNL     1     -11.318   7.933  71.457  1.00  0.00    -0.293 A  
HETATM   15  C   UNL     1     -11.536   9.252  71.066  1.00  0.00    -0.319 A  
HETATM   16  C   UNL     1     -10.648   9.910  70.193  1.00  0.00    -0.297 A  
HETATM   17  I   UNL     1     -13.250  10.217  71.826  1.00  0.00    -0.356 I  
HETATM   18  N   UNL     1     -10.841  11.272  69.875  1.00  0.00    -0.466 NA 
HETATM   19  C   UNL     1      -9.448   9.236  69.848  1.00  0.00    -0.197 A  
HETATM   20  H1  UNL     1     -10.198  11.749  69.243  1.00  0.00     0.000 HD 
HETATM   21  I   UNL     1      -8.018  10.361  68.738  1.00  0.00    -0.149 I  
HETATM   22  H2  UNL     1     -10.887  11.802  70.746  1.00  0.00     0.000 HD 
ENDBRANCH   7  11
ENDBRANCH   3   7
TORSDOF 2
ENDMDL
MODEL      116
REMARK 921   NORMALIZED FREE ENERGY PREDICTED BY IDOCK:   -3.03 KCAL/MOL
REMARK 922        TOTAL FREE ENERGY PREDICTED BY IDOCK:   -3.48 KCAL/MOL
REMARK 923 INTER-LIGAND FREE ENERGY PREDICTED BY IDOCK:   -3.41 KCAL/MOL
REMARK 924 INTRA-LIGAND FREE ENERGY PREDICTED BY IDOCK:   -0.07 KCAL/MOL
REMARK 927      BINDING AFFINITY PREDICTED BY RF-SCORE:    0.00 PKD
ROOT
HETATM    1  C   UNL     1     -10.319   9.231  69.074  1.00  0.00    -0.228 C  
HETATM    2  C   UNL     1      -8.892   8.908  69.489  1.00  0.00    -0.144 C  
HETATM    3  C   UNL     1      -7.912  10.098  69.402  1.00  0.00    -0.154 C  
HETATM    4  C   UNL     1      -8.896   8.423  70.923  1.00  0.00    -0.159 C  
HETATM    5  O   UNL     1      -9.233   9.116  71.871  1.00  0.00    -0.354 OA 
HETATM    6  O   UNL     1      -8.499   7.142  71.070  1.00  0.00    -0.126 OA 
ENDROOT
BRANCH   3   7
HETATM    7  N   UNL     1      -7.665  10.637  68.043  1.00  0.00    -0.098 N  
HETATM    8  C   UNL     1      -6.546  10.158  67.342  1.00  0.00    -0.068 C  
HETATM    9  O   UNL     1      -5.796   9.291  67.794  1.00  0.00    -0.045 OA 
HETATM   10  C   UNL     1      -6.320  10.677  65.937  1.00  0.00    -0.128 C  
BRANCH   7  11
HETATM   11  C   UNL     1      -8.115  11.992  67.827  1.00  0.00    -0.149 A  
HETATM   12  C   UNL     1      -9.203  12.284  66.965  1.00  0.00    -0.205 A  
HETATM   13  I   UNL     1     -10.129  10.874  65.691  1.00  0.00    -0.320 I  
HETATM   14  C   UNL     1      -9.740  13.571  66.903  1.00  0.00    -0.261 A  
HETATM   15  C   UNL     1      -9.176  14.605  67.646  1.00  0.00    -0.193 A  
HETATM   16  C   UNL     1      -8.022  14.398  68.426  1.00  0.00    -0.141 A  
HETATM   17  I   UNL     1     -10.115  16.491  67.547  1.00  0.00    -0.283 I  
HETATM   18  N   UNL     1      -7.515  15.438  69.237  1.00  0.00    -0.190 NA 
HETATM   19  C   UNL     1      -7.543  13.069  68.549  1.00  0.00    -0.121 A  
HETATM   20  H1  UNL     1      -6.679  15.288  69.802  1.00  0.00     0.000 HD 
HETATM   21  I   UNL     1      -5.956  12.760  69.938  1.00  0.00    -0.045 I  
HETATM   22  H2  UNL     1      -8.264  15.761  69.850  1.00  0.00     0.000 HD 
ENDBRANCH   7  11
ENDBRANCH   3   7
TORSDOF 2
ENDMDL
MODEL      117
REMARK 921   NORMALIZED FREE ENERGY PREDICTED BY IDOCK:   -3.02 KCAL/MOL
REMARK 922        TOTAL FREE ENERGY PREDICTED BY IDOCK:   -3.47 KCAL/MOL
REMARK 923 INTER-LIGAND FREE ENERGY PREDICTED BY IDOCK:   -3.52 KCAL/MOL
REMARK 924 INTRA-LIGAND FREE ENERGY PREDICTED BY IDOCK:    0.05 KCAL/MOL
REMARK 927      BINDING AFFINITY PREDICTED BY RF-SCORE:    0.00 PKD
ROOT
HETATM    1  C   UNL     1      -8.547   7.911  65.391  1.00  0.00    -0.118 C  
HETATM    2  C   UNL     1      -9.212   9.228  65.021  1.00  0.00    -0.242 C  
HETATM    3  C   UNL     1      -9.088  10.334  66.092  1.00  0.00    -0.155 C  
HETATM    4  C   UNL     1      -8.584   9.754  63.748  1.00  0.00    -0.200 C  
HETATM    5  O   UNL     1      -7.412  10.085  63.656  1.00  0.00    -0.133 OA 
HETATM    6  O   UNL     1      -9.437   9.821  62.705  1.00  0.00    -0.238 OA 
ENDROOT
BRANCH   3   7
HETATM    7  N   UNL     1      -9.763  10.063  67.385  1.00  0.00    -0.157 N  
HETATM    8  C   UNL     1     -10.914  10.808  67.691  1.00  0.00    -0.306 C  
HETATM    9  O   UNL     1     -11.398  11.637  66.918  1.00  0.00    -0.320 OA 
HETATM   10  C   UNL     1     -11.627  10.500  68.991  1.00  0.00    -0.278 C  
BRANCH   7  11
HETATM   11  C   UNL     1      -8.896   9.622  68.451  1.00  0.00    -0.123 A  
HETATM   12  C   UNL     1      -7.951  10.495  69.049  1.00  0.00    -0.136 A  
HETATM   13  I   UNL     1      -7.479  12.422  68.321  1.00  0.00    -0.136 I  
HETATM   14  C   UNL     1      -7.248  10.112  70.192  1.00  0.00    -0.162 A  
HETATM   15  C   UNL     1      -7.422   8.840  70.733  1.00  0.00    -0.087 A  
HETATM   16  C   UNL     1      -8.257   7.892  70.112  1.00  0.00    -0.125 A  
HETATM   17  I   UNL     1      -6.377   8.393  72.509  1.00  0.00    -0.051 I  
HETATM   18  N   UNL     1      -8.484   6.637  70.721  1.00  0.00    -0.133 NA 
HETATM   19  C   UNL     1      -9.031   8.325  69.005  1.00  0.00    -0.147 A  
HETATM   20  H1  UNL     1      -9.090   5.950  70.270  1.00  0.00     0.000 HD 
HETATM   21  I   UNL     1     -10.468   6.939  68.257  1.00  0.00    -0.276 I  
HETATM   22  H2  UNL     1      -8.829   6.797  71.668  1.00  0.00     0.000 HD 
ENDBRANCH   7  11
ENDBRANCH   3   7
TORSDOF 2
ENDMDL
MODEL      118
REMARK 921   NORMALIZED FREE ENERGY PREDICTED BY IDOCK:   -3.01 KCAL/MOL
REMARK 922        TOTAL FREE ENERGY PREDICTED BY IDOCK:   -3.46 KCAL/MOL
REMARK 923 INTER-LIGAND FREE ENERGY PREDICTED BY IDOCK:   -3.38 KCAL/MOL
REMARK 924 INTRA-LIGAND FREE ENERGY PREDICTED BY IDOCK:   -0.08 KCAL/MOL
REMARK 927      BINDING AFFINITY PREDICTED BY RF-SCORE:    0.00 PKD
ROOT
HETATM    1  C   UNL     1      -6.579   5.909  67.733  1.00  0.00    -0.056 C  
HETATM    2  C   UNL     1      -6.391   5.652  69.220  1.00  0.00    -0.037 C  
HETATM    3  C   UNL     1      -7.499   6.241  70.120  1.00  0.00    -0.094 C  
HETATM    4  C   UNL     1      -6.356   4.157  69.459  1.00  0.00    -0.028 C  
HETATM    5  O   UNL     1      -7.300   3.413  69.241  1.00  0.00    -0.048 OA 
HETATM    6  O   UNL     1      -5.176   3.706  69.932  1.00  0.00    -0.007 OA 
ENDROOT
BRANCH   3   7
HETATM    7  N   UNL     1      -7.609   7.719  70.130  1.00  0.00    -0.083 N  
HETATM    8  C   UNL     1      -6.476   8.457  70.512  1.00  0.00    -0.036 C  
HETATM    9  O   UNL     1      -5.399   7.929  70.796  1.00  0.00    -0.026 OA 
HETATM   10  C   UNL     1      -6.575   9.968  70.479  1.00  0.00    -0.122 C  
BRANCH   7  11
HETATM   11  C   UNL     1      -8.925   8.238  70.416  1.00  0.00    -0.146 A  
HETATM   12  C   UNL     1      -9.439   8.271  71.738  1.00  0.00    -0.209 A  
HETATM   13  I   UNL     1      -8.514   7.351  73.401  1.00  0.00    -0.250 I  
HETATM   14  C   UNL     1     -10.632   8.935  72.024  1.00  0.00    -0.388 A  
HETATM   15  C   UNL     1     -11.371   9.528  71.003  1.00  0.00    -0.352 A  
HETATM   16  C   UNL     1     -10.970   9.423  69.657  1.00  0.00    -0.197 A  
HETATM   17  I   UNL     1     -13.114  10.578  71.553  1.00  0.00    -0.362 I  
HETATM   18  N   UNL     1     -11.687  10.101  68.646  1.00  0.00    -0.607 NA 
HETATM   19  C   UNL     1      -9.712   8.824  69.393  1.00  0.00    -0.172 A  
HETATM   20  H1  UNL     1     -11.396  10.024  67.671  1.00  0.00     0.000 HD 
HETATM   21  I   UNL     1      -9.026   8.914  67.376  1.00  0.00    -0.161 I  
HETATM   22  H2  UNL     1     -11.731  11.090  68.892  1.00  0.00     0.000 HD 
ENDBRANCH   7  11
ENDBRANCH   3   7
TORSDOF 2
ENDMDL
MODEL      119
REMARK 921   NORMALIZED FREE ENERGY PREDICTED BY IDOCK:   -3.01 KCAL/MOL
REMARK 922        TOTAL FREE ENERGY PREDICTED BY IDOCK:   -3.46 KCAL/MOL
REMARK 923 INTER-LIGAND FREE ENERGY PREDICTED BY IDOCK:   -3.36 KCAL/MOL
REMARK 924 INTRA-LIGAND FREE ENERGY PREDICTED BY IDOCK:   -0.10 KCAL/MOL
REMARK 927      BINDING AFFINITY PREDICTED BY RF-SCORE:    0.00 PKD
ROOT
HETATM    1  C   UNL     1      -9.984   8.524  72.290  1.00  0.00    -0.385 C  
HETATM    2  C   UNL     1      -9.441   7.115  72.115  1.00  0.00    -0.152 C  
HETATM    3  C   UNL     1      -8.585   6.908  70.846  1.00  0.00    -0.136 C  
HETATM    4  C   UNL     1      -8.577   6.769  73.309  1.00  0.00    -0.122 C  
HETATM    5  O   UNL     1      -7.542   7.353  73.588  1.00  0.00    -0.098 OA 
HETATM    6  O   UNL     1      -9.057   5.753  74.056  1.00  0.00    -0.125 OA 
ENDROOT
BRANCH   3   7
HETATM    7  N   UNL     1      -9.293   7.071  69.553  1.00  0.00    -0.148 N  
HETATM    8  C   UNL     1     -10.213   6.077  69.181  1.00  0.00    -0.204 C  
HETATM    9  O   UNL     1     -10.479   5.110  69.897  1.00  0.00    -0.295 OA 
HETATM   10  C   UNL     1     -10.967   6.266  67.881  1.00  0.00    -0.421 C  
BRANCH   7  11
HETATM   11  C   UNL     1      -8.556   7.777  68.532  1.00  0.00    -0.128 A  
HETATM   12  C   UNL     1      -7.500   7.156  67.816  1.00  0.00    -0.098 A  
HETATM   13  I   UNL     1      -6.680   5.268  68.296  1.00  0.00    -0.058 I  
HETATM   14  C   UNL     1      -6.917   7.786  66.715  1.00  0.00    -0.072 A  
HETATM   15  C   UNL     1      -7.325   9.062  66.335  1.00  0.00    -0.088 A  
HETATM   16  C   UNL     1      -8.285   9.773  67.082  1.00  0.00    -0.121 A  
HETATM   17  I   UNL     1      -6.442   9.887  64.608  1.00  0.00    -0.112 I  
HETATM   18  N   UNL     1      -8.745  11.031  66.634  1.00  0.00    -0.155 NA 
HETATM   19  C   UNL     1      -8.930   9.087  68.142  1.00  0.00    -0.133 A  
HETATM   20  H1  UNL     1      -9.441  11.546  67.175  1.00  0.00     0.000 HD 
HETATM   21  I   UNL     1     -10.552  10.106  69.079  1.00  0.00    -0.311 I  
HETATM   22  H2  UNL     1      -9.094  10.925  65.681  1.00  0.00     0.000 HD 
ENDBRANCH   7  11
ENDBRANCH   3   7
TORSDOF 2
ENDMDL
MODEL      120
REMARK 921   NORMALIZED FREE ENERGY PREDICTED BY IDOCK:   -3.00 KCAL/MOL
REMARK 922        TOTAL FREE ENERGY PREDICTED BY IDOCK:   -3.46 KCAL/MOL
REMARK 923 INTER-LIGAND FREE ENERGY PREDICTED BY IDOCK:   -3.66 KCAL/MOL
REMARK 924 INTRA-LIGAND FREE ENERGY PREDICTED BY IDOCK:    0.20 KCAL/MOL
REMARK 927      BINDING AFFINITY PREDICTED BY RF-SCORE:    0.00 PKD
ROOT
HETATM    1  C   UNL     1      -9.283   5.727  68.674  1.00  0.00    -0.125 C  
HETATM    2  C   UNL     1      -8.239   4.964  69.476  1.00  0.00    -0.084 C  
HETATM    3  C   UNL     1      -8.374   5.108  71.007  1.00  0.00    -0.119 C  
HETATM    4  C   UNL     1      -8.347   3.490  69.146  1.00  0.00    -0.060 C  
HETATM    5  O   UNL     1      -9.332   2.811  69.393  1.00  0.00    -0.134 OA 
HETATM    6  O   UNL     1      -7.254   2.983  68.540  1.00  0.00    -0.049 OA 
ENDROOT
BRANCH   3   7
HETATM    7  N   UNL     1      -8.165   6.472  71.551  1.00  0.00    -0.116 N  
HETATM    8  C   UNL     1      -7.346   6.607  72.685  1.00  0.00    -0.088 C  
HETATM    9  O   UNL     1      -6.773   5.652  73.212  1.00  0.00    -0.074 OA 
HETATM   10  C   UNL     1      -7.097   8.004  73.212  1.00  0.00    -0.136 C  
BRANCH   7  11
HETATM   11  C   UNL     1      -9.261   7.390  71.352  1.00  0.00    -0.141 A  
HETATM   12  C   UNL     1     -10.499   7.224  72.026  1.00  0.00    -0.201 A  
HETATM   13  I   UNL     1     -11.018   5.523  73.168  1.00  0.00    -0.267 I  
HETATM   14  C   UNL     1     -11.483   8.211  71.964  1.00  0.00    -0.380 A  
HETATM   15  C   UNL     1     -11.289   9.352  71.190  1.00  0.00    -0.351 A  
HETATM   16  C   UNL     1     -10.130   9.513  70.406  1.00  0.00    -0.271 A  
HETATM   17  I   UNL     1     -12.802  10.821  71.233  1.00  0.00    -0.402 I  
HETATM   18  N   UNL     1      -9.914  10.714  69.694  1.00  0.00    -0.435 NA 
HETATM   19  C   UNL     1      -9.102   8.546  70.549  1.00  0.00    -0.156 A  
HETATM   20  H1  UNL     1      -9.074  10.831  69.127  1.00  0.00     0.000 HD 
HETATM   21  I   UNL     1      -7.268   8.961  69.545  1.00  0.00    -0.070 I  
HETATM   22  H2  UNL     1      -9.967  11.492  70.352  1.00  0.00     0.000 HD 
ENDBRANCH   7  11
ENDBRANCH   3   7
TORSDOF 2
ENDMDL
MODEL      121
REMARK 921   NORMALIZED FREE ENERGY PREDICTED BY IDOCK:   -2.97 KCAL/MOL
REMARK 922        TOTAL FREE ENERGY PREDICTED BY IDOCK:   -3.42 KCAL/MOL
REMARK 923 INTER-LIGAND FREE ENERGY PREDICTED BY IDOCK:   -3.39 KCAL/MOL
REMARK 924 INTRA-LIGAND FREE ENERGY PREDICTED BY IDOCK:   -0.02 KCAL/MOL
REMARK 927      BINDING AFFINITY PREDICTED BY RF-SCORE:    0.00 PKD
ROOT
HETATM    1  C   UNL     1     -11.661   6.564  70.550  1.00  0.00    -0.455 C  
HETATM    2  C   UNL     1     -10.631   5.814  71.380  1.00  0.00    -0.313 C  
HETATM    3  C   UNL     1      -9.235   5.705  70.730  1.00  0.00    -0.151 C  
HETATM    4  C   UNL     1     -10.461   6.521  72.708  1.00  0.00    -0.215 C  
HETATM    5  O   UNL     1     -10.025   7.657  72.820  1.00  0.00    -0.197 OA 
HETATM    6  O   UNL     1     -10.845   5.787  73.773  1.00  0.00    -0.259 OA 
ENDROOT
BRANCH   3   7
HETATM    7  N   UNL     1      -9.165   4.923  69.471  1.00  0.00    -0.111 N  
HETATM    8  C   UNL     1      -9.358   3.534  69.553  1.00  0.00    -0.173 C  
HETATM    9  O   UNL     1      -9.618   2.956  70.610  1.00  0.00    -0.156 OA 
HETATM   10  C   UNL     1      -9.331   2.742  68.262  1.00  0.00    -0.258 C  
BRANCH   7  11
HETATM   11  C   UNL     1      -8.289   5.462  68.459  1.00  0.00    -0.097 A  
HETATM   12  C   UNL     1      -6.887   5.246  68.499  1.00  0.00    -0.056 A  
HETATM   13  I   UNL     1      -5.860   4.376  70.128  1.00  0.00    -0.019 I  
HETATM   14  C   UNL     1      -6.077   5.617  67.425  1.00  0.00    -0.029 A  
HETATM   15  C   UNL     1      -6.625   6.260  66.318  1.00  0.00    -0.048 A  
HETATM   16  C   UNL     1      -7.989   6.605  66.277  1.00  0.00    -0.108 A  
HETATM   17  I   UNL     1      -5.328   6.700  64.715  1.00  0.00    -0.028 I  
HETATM   18  N   UNL     1      -8.542   7.181  65.111  1.00  0.00    -0.344 NA 
HETATM   19  C   UNL     1      -8.815   6.143  67.333  1.00  0.00    -0.106 A  
HETATM   20  H1  UNL     1      -9.531   7.432  65.082  1.00  0.00     0.000 HD 
HETATM   21  I   UNL     1     -10.911   6.464  67.105  1.00  0.00    -0.270 I  
HETATM   22  H2  UNL     1      -8.343   6.565  64.323  1.00  0.00     0.000 HD 
ENDBRANCH   7  11
ENDBRANCH   3   7
TORSDOF 2
ENDMDL
MODEL      122
REMARK 921   NORMALIZED FREE ENERGY PREDICTED BY IDOCK:   -2.97 KCAL/MOL
REMARK 922        TOTAL FREE ENERGY PREDICTED BY IDOCK:   -3.41 KCAL/MOL
REMARK 923 INTER-LIGAND FREE ENERGY PREDICTED BY IDOCK:   -3.64 KCAL/MOL
REMARK 924 INTRA-LIGAND FREE ENERGY PREDICTED BY IDOCK:    0.23 KCAL/MOL
REMARK 927      BINDING AFFINITY PREDICTED BY RF-SCORE:    0.00 PKD
ROOT
HETATM    1  C   UNL     1      -9.233   3.926  68.666  1.00  0.00    -0.211 C  
HETATM    2  C   UNL     1      -9.855   5.028  67.823  1.00  0.00    -0.199 C  
HETATM    3  C   UNL     1      -9.271   6.436  68.071  1.00  0.00    -0.110 C  
HETATM    4  C   UNL     1      -9.649   4.701  66.359  1.00  0.00    -0.183 C  
HETATM    5  O   UNL     1      -8.551   4.632  65.828  1.00  0.00    -0.118 OA 
HETATM    6  O   UNL     1     -10.794   4.481  65.681  1.00  0.00    -0.270 OA 
ENDROOT
BRANCH   3   7
HETATM    7  N   UNL     1      -9.490   6.998  69.426  1.00  0.00    -0.146 N  
HETATM    8  C   UNL     1     -10.789   6.940  69.957  1.00  0.00    -0.262 C  
HETATM    9  O   UNL     1     -11.730   6.411  69.363  1.00  0.00    -0.327 OA 
HETATM   10  C   UNL     1     -11.002   7.475  71.358  1.00  0.00    -0.254 C  
BRANCH   7  11
HETATM   11  C   UNL     1      -8.622   8.095  69.785  1.00  0.00    -0.133 A  
HETATM   12  C   UNL     1      -7.493   7.905  70.622  1.00  0.00    -0.069 A  
HETATM   13  I   UNL     1      -7.068   6.117  71.666  1.00  0.00    -0.086 I  
HETATM   14  C   UNL     1      -6.567   8.931  70.815  1.00  0.00    -0.056 A  
HETATM   15  C   UNL     1      -6.767  10.180  70.233  1.00  0.00    -0.143 A  
HETATM   16  C   UNL     1      -7.931  10.461  69.491  1.00  0.00    -0.144 A  
HETATM   17  I   UNL     1      -5.265  11.633  70.517  1.00  0.00    -0.144 I  
HETATM   18  N   UNL     1      -8.076  11.706  68.840  1.00  0.00    -0.339 NA 
HETATM   19  C   UNL     1      -8.817   9.384  69.230  1.00  0.00    -0.150 A  
HETATM   20  H1  UNL     1      -8.919  11.909  68.302  1.00  0.00     0.000 HD 
HETATM   21  I   UNL     1     -10.427   9.789  67.892  1.00  0.00    -0.297 I  
HETATM   22  H2  UNL     1      -7.267  11.849  68.235  1.00  0.00     0.000 HD 
ENDBRANCH   7  11
ENDBRANCH   3   7
TORSDOF 2
ENDMDL
MODEL      123
REMARK 921   NORMALIZED FREE ENERGY PREDICTED BY IDOCK:   -2.95 KCAL/MOL
REMARK 922        TOTAL FREE ENERGY PREDICTED BY IDOCK:   -3.39 KCAL/MOL
REMARK 923 INTER-LIGAND FREE ENERGY PREDICTED BY IDOCK:   -3.32 KCAL/MOL
REMARK 924 INTRA-LIGAND FREE ENERGY PREDICTED BY IDOCK:   -0.07 KCAL/MOL
REMARK 927      BINDING AFFINITY PREDICTED BY RF-SCORE:    0.00 PKD
ROOT
HETATM    1  C   UNL     1     -10.510   9.397  71.366  1.00  0.00    -0.358 C  
HETATM    2  C   UNL     1     -10.494  10.361  70.189  1.00  0.00    -0.185 C  
HETATM    3  C   UNL     1     -10.207   9.703  68.822  1.00  0.00    -0.196 C  
HETATM    4  C   UNL     1     -11.844  11.040  70.093  1.00  0.00    -0.357 C  
HETATM    5  O   UNL     1     -12.886  10.447  69.858  1.00  0.00    -0.104 OA 
HETATM    6  O   UNL     1     -11.802  12.372  70.300  1.00  0.00    -0.322 OA 
ENDROOT
BRANCH   3   7
HETATM    7  N   UNL     1      -8.865   9.090  68.667  1.00  0.00    -0.136 N  
HETATM    8  C   UNL     1      -7.747   9.937  68.743  1.00  0.00    -0.086 C  
HETATM    9  O   UNL     1      -7.837  11.145  68.969  1.00  0.00    -0.138 OA 
HETATM   10  C   UNL     1      -6.376   9.305  68.628  1.00  0.00    -0.049 C  
BRANCH   7  11
HETATM   11  C   UNL     1      -8.816   7.919  67.824  1.00  0.00    -0.122 A  
HETATM   12  C   UNL     1      -8.780   8.024  66.410  1.00  0.00    -0.151 A  
HETATM   13  I   UNL     1      -9.063   9.824  65.338  1.00  0.00    -0.319 I  
HETATM   14  C   UNL     1      -8.553   6.899  65.616  1.00  0.00    -0.119 A  
HETATM   15  C   UNL     1      -8.415   5.642  66.199  1.00  0.00    -0.128 A  
HETATM   16  C   UNL     1      -8.560   5.462  67.588  1.00  0.00    -0.104 A  
HETATM   17  I   UNL     1      -7.989   4.022  64.918  1.00  0.00    -0.095 I  
HETATM   18  N   UNL     1      -8.335   4.194  68.169  1.00  0.00    -0.092 NA 
HETATM   19  C   UNL     1      -8.702   6.624  68.389  1.00  0.00    -0.122 A  
HETATM   20  H1  UNL     1      -8.440   4.064  69.176  1.00  0.00     0.000 HD 
HETATM   21  I   UNL     1      -8.661   6.330  70.500  1.00  0.00    -0.140 I  
HETATM   22  H2  UNL     1      -7.402   3.879  67.901  1.00  0.00     0.000 HD 
ENDBRANCH   7  11
ENDBRANCH   3   7
TORSDOF 2
ENDMDL
MODEL      124
REMARK 921   NORMALIZED FREE ENERGY PREDICTED BY IDOCK:   -2.95 KCAL/MOL
REMARK 922        TOTAL FREE ENERGY PREDICTED BY IDOCK:   -3.39 KCAL/MOL
REMARK 923 INTER-LIGAND FREE ENERGY PREDICTED BY IDOCK:   -3.31 KCAL/MOL
REMARK 924 INTRA-LIGAND FREE ENERGY PREDICTED BY IDOCK:   -0.08 KCAL/MOL
REMARK 927      BINDING AFFINITY PREDICTED BY RF-SCORE:    0.00 PKD
ROOT
HETATM    1  C   UNL     1      -7.421   2.598  70.158  1.00  0.00    -0.043 C  
HETATM    2  C   UNL     1      -7.867   4.016  70.480  1.00  0.00    -0.051 C  
HETATM    3  C   UNL     1      -8.622   4.728  69.337  1.00  0.00    -0.082 C  
HETATM    4  C   UNL     1      -8.787   3.980  71.681  1.00  0.00    -0.108 C  
HETATM    5  O   UNL     1      -9.872   3.419  71.688  1.00  0.00    -0.166 OA 
HETATM    6  O   UNL     1      -8.300   4.622  72.763  1.00  0.00    -0.108 OA 
ENDROOT
BRANCH   3   7
HETATM    7  N   UNL     1      -7.841   4.981  68.102  1.00  0.00    -0.086 N  
HETATM    8  C   UNL     1      -7.111   6.180  68.024  1.00  0.00    -0.078 C  
HETATM    9  O   UNL     1      -7.066   6.996  68.946  1.00  0.00    -0.079 OA 
HETATM   10  C   UNL     1      -6.278   6.417  66.782  1.00  0.00    -0.040 C  
BRANCH   7  11
HETATM   11  C   UNL     1      -8.384   4.399  66.898  1.00  0.00    -0.101 A  
HETATM   12  C   UNL     1      -7.742   3.318  66.241  1.00  0.00    -0.078 A  
HETATM   13  I   UNL     1      -5.819   2.593  66.735  1.00  0.00    -0.024 I  
HETATM   14  C   UNL     1      -8.367   2.651  65.187  1.00  0.00    -0.094 A  
HETATM   15  C   UNL     1      -9.610   3.074  64.723  1.00  0.00    -0.121 A  
HETATM   16  C   UNL     1     -10.239   4.215  65.259  1.00  0.00    -0.191 A  
HETATM   17  I   UNL     1     -10.505   1.945  63.183  1.00  0.00    -0.165 I  
HETATM   18  N   UNL     1     -11.535   4.579  64.833  1.00  0.00    -1.070 NA 
HETATM   19  C   UNL     1      -9.635   4.827  66.387  1.00  0.00    -0.177 A  
HETATM   20  H1  UNL     1     -11.991   5.405  65.222  1.00  0.00     0.000 HD 
HETATM   21  I   UNL     1     -10.746   6.387  67.324  1.00  0.00    -0.449 I  
HETATM   22  H2  UNL     1     -12.154   3.778  64.967  1.00  0.00     0.000 HD 
ENDBRANCH   7  11
ENDBRANCH   3   7
TORSDOF 2
ENDMDL
MODEL      125
REMARK 921   NORMALIZED FREE ENERGY PREDICTED BY IDOCK:   -2.94 KCAL/MOL
REMARK 922        TOTAL FREE ENERGY PREDICTED BY IDOCK:   -3.38 KCAL/MOL
REMARK 923 INTER-LIGAND FREE ENERGY PREDICTED BY IDOCK:   -3.34 KCAL/MOL
REMARK 924 INTRA-LIGAND FREE ENERGY PREDICTED BY IDOCK:   -0.04 KCAL/MOL
REMARK 927      BINDING AFFINITY PREDICTED BY RF-SCORE:    0.00 PKD
ROOT
HETATM    1  C   UNL     1     -11.770  11.910  65.753  1.00  0.00    -0.210 C  
HETATM    2  C   UNL     1     -10.340  12.155  65.297  1.00  0.00    -0.310 C  
HETATM    3  C   UNL     1      -9.257  11.561  66.224  1.00  0.00    -0.211 C  
HETATM    4  C   UNL     1     -10.151  11.544  63.925  1.00  0.00    -0.345 C  
HETATM    5  O   UNL     1     -10.234  10.347  63.698  1.00  0.00    -0.179 OA 
HETATM    6  O   UNL     1      -9.886  12.445  62.956  1.00  0.00    -0.220 OA 
ENDROOT
BRANCH   3   7
HETATM    7  N   UNL     1      -9.189  12.132  67.591  1.00  0.00    -0.175 N  
HETATM    8  C   UNL     1      -8.865  13.493  67.716  1.00  0.00    -0.198 C  
HETATM    9  O   UNL     1      -8.676  14.227  66.744  1.00  0.00    -0.211 OA 
HETATM   10  C   UNL     1      -8.839  14.085  69.109  1.00  0.00     0.297 C  
BRANCH   7  11
HETATM   11  C   UNL     1      -8.792  11.207  68.626  1.00  0.00    -0.155 A  
HETATM   12  C   UNL     1      -9.741  10.626  69.506  1.00  0.00    -0.055 A  
HETATM   13  I   UNL     1     -11.770  11.206  69.625  1.00  0.00    -0.486 I  
HETATM   14  C   UNL     1      -9.371   9.603  70.380  1.00  0.00    -0.268 A  
HETATM   15  C   UNL     1      -8.048   9.175  70.444  1.00  0.00    -0.152 A  
HETATM   16  C   UNL     1      -7.042   9.798  69.679  1.00  0.00    -0.083 A  
HETATM   17  I   UNL     1      -7.612   7.567  71.736  1.00  0.00    -0.104 I  
HETATM   18  N   UNL     1      -5.722   9.295  69.696  1.00  0.00    -0.033 NA 
HETATM   19  C   UNL     1      -7.448  10.773  68.732  1.00  0.00    -0.109 A  
HETATM   20  H1  UNL     1      -4.994   9.746  69.141  1.00  0.00     0.000 HD 
HETATM   21  I   UNL     1      -5.934  11.503  67.420  1.00  0.00    -0.127 I  
HETATM   22  H2  UNL     1      -5.752   8.306  69.444  1.00  0.00     0.000 HD 
ENDBRANCH   7  11
ENDBRANCH   3   7
TORSDOF 2
ENDMDL
MODEL      126
REMARK 921   NORMALIZED FREE ENERGY PREDICTED BY IDOCK:   -2.93 KCAL/MOL
REMARK 922        TOTAL FREE ENERGY PREDICTED BY IDOCK:   -3.37 KCAL/MOL
REMARK 923 INTER-LIGAND FREE ENERGY PREDICTED BY IDOCK:   -3.31 KCAL/MOL
REMARK 924 INTRA-LIGAND FREE ENERGY PREDICTED BY IDOCK:   -0.06 KCAL/MOL
REMARK 927      BINDING AFFINITY PREDICTED BY RF-SCORE:    0.00 PKD
ROOT
HETATM    1  C   UNL     1      -9.140   9.021  70.463  1.00  0.00    -0.259 C  
HETATM    2  C   UNL     1     -10.035  10.103  69.879  1.00  0.00    -0.250 C  
HETATM    3  C   UNL     1     -10.031  10.179  68.336  1.00  0.00    -0.156 C  
HETATM    4  C   UNL     1     -11.462   9.851  70.318  1.00  0.00    -0.281 C  
HETATM    5  O   UNL     1     -12.104   8.861  70.001  1.00  0.00     0.298 OA 
HETATM    6  O   UNL     1     -11.971  10.819  71.108  1.00  0.00    -0.329 OA 
ENDROOT
BRANCH   3   7
HETATM    7  N   UNL     1      -8.739  10.551  67.710  1.00  0.00    -0.122 N  
HETATM    8  C   UNL     1      -8.242  11.842  67.953  1.00  0.00    -0.150 C  
HETATM    9  O   UNL     1      -8.812  12.650  68.689  1.00  0.00    -0.089 OA 
HETATM   10  C   UNL     1      -6.902  12.207  67.349  1.00  0.00    -0.147 C  
BRANCH   7  11
HETATM   11  C   UNL     1      -8.457   9.905  66.450  1.00  0.00    -0.124 A  
HETATM   12  C   UNL     1      -7.546   8.821  66.359  1.00  0.00    -0.091 A  
HETATM   13  I   UNL     1      -6.293   8.180  67.936  1.00  0.00    -0.054 I  
HETATM   14  C   UNL     1      -7.417   8.094  65.175  1.00  0.00    -0.081 A  
HETATM   15  C   UNL     1      -8.141   8.458  64.043  1.00  0.00    -0.142 A  
HETATM   16  C   UNL     1      -8.969   9.597  64.041  1.00  0.00    -0.223 A  
HETATM   17  I   UNL     1      -7.939   7.241  62.332  1.00  0.00    -0.034 I  
HETATM   18  N   UNL     1      -9.759   9.901  62.910  1.00  0.00    -0.536 NA 
HETATM   19  C   UNL     1      -9.158  10.272  65.274  1.00  0.00    -0.191 A  
HETATM   20  H1  UNL     1     -10.359  10.726  62.909  1.00  0.00     0.000 HD 
HETATM   21  I   UNL     1     -10.614  11.829  65.286  1.00  0.00    -0.345 I  
HETATM   22  H2  UNL     1     -10.332   9.086  62.690  1.00  0.00     0.000 HD 
ENDBRANCH   7  11
ENDBRANCH   3   7
TORSDOF 2
ENDMDL
MODEL      127
REMARK 921   NORMALIZED FREE ENERGY PREDICTED BY IDOCK:   -2.91 KCAL/MOL
REMARK 922        TOTAL FREE ENERGY PREDICTED BY IDOCK:   -3.35 KCAL/MOL
REMARK 923 INTER-LIGAND FREE ENERGY PREDICTED BY IDOCK:   -3.36 KCAL/MOL
REMARK 924 INTRA-LIGAND FREE ENERGY PREDICTED BY IDOCK:    0.02 KCAL/MOL
REMARK 927      BINDING AFFINITY PREDICTED BY RF-SCORE:    0.00 PKD
ROOT
HETATM    1  C   UNL     1      -8.538   8.297  72.575  1.00  0.00    -0.273 C  
HETATM    2  C   UNL     1      -9.532   7.402  71.851  1.00  0.00    -0.166 C  
HETATM    3  C   UNL     1      -9.268   7.240  70.338  1.00  0.00    -0.158 C  
HETATM    4  C   UNL     1      -9.492   6.022  72.471  1.00  0.00    -0.147 C  
HETATM    5  O   UNL     1      -8.509   5.296  72.448  1.00  0.00    -0.120 OA 
HETATM    6  O   UNL     1     -10.645   5.656  73.068  1.00  0.00    -0.211 OA 
ENDROOT
BRANCH   3   7
HETATM    7  N   UNL     1      -9.394   8.472  69.522  1.00  0.00    -0.160 N  
HETATM    8  C   UNL     1     -10.595   9.194  69.609  1.00  0.00    -0.228 C  
HETATM    9  O   UNL     1     -11.519   8.868  70.357  1.00  0.00    -0.246 OA 
HETATM   10  C   UNL     1     -10.706  10.475  68.810  1.00  0.00    -0.249 C  
BRANCH   7  11
HETATM   11  C   UNL     1      -8.653   8.469  68.283  1.00  0.00    -0.139 A  
HETATM   12  C   UNL     1      -9.079   7.706  67.166  1.00  0.00    -0.127 A  
HETATM   13  I   UNL     1     -10.646   6.289  67.215  1.00  0.00    -0.476 I  
HETATM   14  C   UNL     1      -8.458   7.850  65.924  1.00  0.00    -0.147 A  
HETATM   15  C   UNL     1      -7.370   8.706  65.776  1.00  0.00    -0.081 A  
HETATM   16  C   UNL     1      -6.830   9.397  66.878  1.00  0.00    -0.080 A  
HETATM   17  I   UNL     1      -6.560   8.916  63.841  1.00  0.00    -0.089 I  
HETATM   18  N   UNL     1      -5.779  10.323  66.692  1.00  0.00    -0.053 NA 
HETATM   19  C   UNL     1      -7.525   9.309  68.111  1.00  0.00    -0.083 A  
HETATM   20  H1  UNL     1      -5.388  10.823  67.491  1.00  0.00     0.000 HD 
HETATM   21  I   UNL     1      -6.825  10.569  69.682  1.00  0.00    -0.129 I  
HETATM   22  H2  UNL     1      -6.074  11.008  65.996  1.00  0.00     0.000 HD 
ENDBRANCH   7  11
ENDBRANCH   3   7
TORSDOF 2
ENDMDL
MODEL      128
REMARK 921   NORMALIZED FREE ENERGY PREDICTED BY IDOCK:   -2.90 KCAL/MOL
REMARK 922        TOTAL FREE ENERGY PREDICTED BY IDOCK:   -3.34 KCAL/MOL
REMARK 923 INTER-LIGAND FREE ENERGY PREDICTED BY IDOCK:   -3.51 KCAL/MOL
REMARK 924 INTRA-LIGAND FREE ENERGY PREDICTED BY IDOCK:    0.17 KCAL/MOL
REMARK 927      BINDING AFFINITY PREDICTED BY RF-SCORE:    0.00 PKD
ROOT
HETATM    1  C   UNL     1      -9.558  10.229  64.622  1.00  0.00    -0.374 C  
HETATM    2  C   UNL     1     -10.811  11.031  64.937  1.00  0.00    -0.211 C  
HETATM    3  C   UNL     1     -10.787  11.753  66.302  1.00  0.00    -0.281 C  
HETATM    4  C   UNL     1     -11.001  12.086  63.868  1.00  0.00    -0.401 C  
HETATM    5  O   UNL     1     -10.216  13.002  63.672  1.00  0.00    -0.302 OA 
HETATM    6  O   UNL     1     -12.120  11.925  63.132  1.00  0.00    -0.411 OA 
ENDROOT
BRANCH   3   7
HETATM    7  N   UNL     1     -10.738  10.877  67.498  1.00  0.00    -0.234 N  
HETATM    8  C   UNL     1     -11.661  11.123  68.528  1.00  0.00    -0.298 C  
HETATM    9  O   UNL     1     -12.522  12.002  68.457  1.00  0.00    -0.090 OA 
HETATM   10  C   UNL     1     -11.640  10.200  69.728  1.00  0.00    -0.245 C  
BRANCH   7  11
HETATM   11  C   UNL     1      -9.434  10.348  67.822  1.00  0.00    -0.145 A  
HETATM   12  C   UNL     1      -8.397  11.181  68.313  1.00  0.00    -0.143 A  
HETATM   13  I   UNL     1      -8.493  13.291  68.386  1.00  0.00     0.053 I  
HETATM   14  C   UNL     1      -7.205  10.632  68.790  1.00  0.00    -0.087 A  
HETATM   15  C   UNL     1      -6.993   9.257  68.736  1.00  0.00    -0.061 A  
HETATM   16  C   UNL     1      -7.939   8.394  68.149  1.00  0.00    -0.119 A  
HETATM   17  I   UNL     1      -5.196   8.523  69.560  1.00  0.00    -0.031 I  
HETATM   18  N   UNL     1      -7.742   6.996  68.180  1.00  0.00    -0.111 NA 
HETATM   19  C   UNL     1      -9.179   8.956  67.752  1.00  0.00    -0.141 A  
HETATM   20  H1  UNL     1      -8.428   6.371  67.754  1.00  0.00     0.000 HD 
HETATM   21  I   UNL     1     -10.676   7.580  67.108  1.00  0.00     0.117 I  
HETATM   22  H2  UNL     1      -7.607   6.711  69.150  1.00  0.00     0.000 HD 
ENDBRANCH   7  11
ENDBRANCH   3   7
TORSDOF 2
ENDMDL
MODEL      129
REMARK 921   NORMALIZED FREE ENERGY PREDICTED BY IDOCK:   -2.88 KCAL/MOL
REMARK 922        TOTAL FREE ENERGY PREDICTED BY IDOCK:   -3.32 KCAL/MOL
REMARK 923 INTER-LIGAND FREE ENERGY PREDICTED BY IDOCK:   -3.23 KCAL/MOL
REMARK 924 INTRA-LIGAND FREE ENERGY PREDICTED BY IDOCK:   -0.09 KCAL/MOL
REMARK 927      BINDING AFFINITY PREDICTED BY RF-SCORE:    0.00 PKD
ROOT
HETATM    1  C   UNL     1      -9.126   2.993  68.478  1.00  0.00    -0.213 C  
HETATM    2  C   UNL     1      -9.685   4.307  67.953  1.00  0.00    -0.172 C  
HETATM    3  C   UNL     1      -9.187   5.562  68.703  1.00  0.00    -0.122 C  
HETATM    4  C   UNL     1      -9.294   4.460  66.499  1.00  0.00    -0.159 C  
HETATM    5  O   UNL     1      -8.139   4.561  66.114  1.00  0.00    -0.102 OA 
HETATM    6  O   UNL     1     -10.342   4.468  65.649  1.00  0.00    -0.260 OA 
ENDROOT
BRANCH   3   7
HETATM    7  N   UNL     1      -9.586   5.667  70.127  1.00  0.00    -0.161 N  
HETATM    8  C   UNL     1     -10.912   6.035  70.410  1.00  0.00    -0.328 C  
HETATM    9  O   UNL     1     -11.753   6.232  69.531  1.00  0.00    -0.360 OA 
HETATM   10  C   UNL     1     -11.330   6.100  71.864  1.00  0.00    -0.350 C  
BRANCH   7  11
HETATM   11  C   UNL     1      -8.532   6.051  71.036  1.00  0.00    -0.124 A  
HETATM   12  C   UNL     1      -8.044   7.382  71.087  1.00  0.00    -0.101 A  
HETATM   13  I   UNL     1      -8.561   8.897  69.707  1.00  0.00    -0.173 I  
HETATM   14  C   UNL     1      -7.156   7.779  72.088  1.00  0.00    -0.072 A  
HETATM   15  C   UNL     1      -6.687   6.857  73.020  1.00  0.00    -0.070 A  
HETATM   16  C   UNL     1      -7.045   5.497  72.945  1.00  0.00    -0.089 A  
HETATM   17  I   UNL     1      -5.417   7.578  74.541  1.00  0.00    -0.067 I  
HETATM   18  N   UNL     1      -6.627   4.594  73.948  1.00  0.00    -0.057 NA 
HETATM   19  C   UNL     1      -8.017   5.127  71.979  1.00  0.00    -0.112 A  
HETATM   20  H1  UNL     1      -6.887   3.609  73.893  1.00  0.00     0.000 HD 
HETATM   21  I   UNL     1      -8.719   3.116  72.067  1.00  0.00    -0.138 I  
HETATM   22  H2  UNL     1      -6.930   4.956  74.852  1.00  0.00     0.000 HD 
ENDBRANCH   7  11
ENDBRANCH   3   7
TORSDOF 2
ENDMDL
MODEL      130
REMARK 921   NORMALIZED FREE ENERGY PREDICTED BY IDOCK:   -2.88 KCAL/MOL
REMARK 922        TOTAL FREE ENERGY PREDICTED BY IDOCK:   -3.32 KCAL/MOL
REMARK 923 INTER-LIGAND FREE ENERGY PREDICTED BY IDOCK:   -3.32 KCAL/MOL
REMARK 924 INTRA-LIGAND FREE ENERGY PREDICTED BY IDOCK:    0.01 KCAL/MOL
REMARK 927      BINDING AFFINITY PREDICTED BY RF-SCORE:    0.00 PKD
ROOT
HETATM    1  C   UNL     1     -10.107  15.645  69.180  1.00  0.00    -0.237 C  
HETATM    2  C   UNL     1     -11.346  14.763  69.209  1.00  0.00    -0.317 C  
HETATM    3  C   UNL     1     -11.056  13.246  69.215  1.00  0.00    -0.153 C  
HETATM    4  C   UNL     1     -12.145  15.079  70.455  1.00  0.00    -0.326 C  
HETATM    5  O   UNL     1     -11.733  14.891  71.590  1.00  0.00    -0.349 OA 
HETATM    6  O   UNL     1     -13.363  15.602  70.207  1.00  0.00    -0.234 OA 
ENDROOT
BRANCH   3   7
HETATM    7  N   UNL     1     -10.389  12.709  68.004  1.00  0.00    -0.221 N  
HETATM    8  C   UNL     1     -11.171  12.532  66.850  1.00  0.00    -0.303 C  
HETATM    9  O   UNL     1     -12.363  12.839  66.798  1.00  0.00    -0.431 OA 
HETATM   10  C   UNL     1     -10.480  12.025  65.602  1.00  0.00    -0.293 C  
BRANCH   7  11
HETATM   11  C   UNL     1      -9.279  11.821  68.254  1.00  0.00    -0.188 A  
HETATM   12  C   UNL     1      -9.480  10.461  68.604  1.00  0.00    -0.167 A  
HETATM   13  I   UNL     1     -11.360   9.614  69.069  1.00  0.00     0.401 I  
HETATM   14  C   UNL     1      -8.405   9.573  68.667  1.00  0.00    -0.117 A  
HETATM   15  C   UNL     1      -7.106  10.023  68.445  1.00  0.00    -0.072 A  
HETATM   16  C   UNL     1      -6.836  11.385  68.212  1.00  0.00    -0.069 A  
HETATM   17  I   UNL     1      -5.565   8.584  68.480  1.00  0.00    -0.038 I  
HETATM   18  N   UNL     1      -5.523  11.807  67.906  1.00  0.00    -0.047 NA 
HETATM   19  C   UNL     1      -7.944  12.257  68.062  1.00  0.00    -0.150 A  
HETATM   20  H1  UNL     1      -5.327  12.795  67.738  1.00  0.00     0.000 HD 
HETATM   21  I   UNL     1      -7.502  14.253  67.458  1.00  0.00    -0.013 I  
HETATM   22  H2  UNL     1      -5.192  11.272  67.103  1.00  0.00     0.000 HD 
ENDBRANCH   7  11
ENDBRANCH   3   7
TORSDOF 2
ENDMDL
MODEL      131
REMARK 921   NORMALIZED FREE ENERGY PREDICTED BY IDOCK:   -2.87 KCAL/MOL
REMARK 922        TOTAL FREE ENERGY PREDICTED BY IDOCK:   -3.30 KCAL/MOL
REMARK 923 INTER-LIGAND FREE ENERGY PREDICTED BY IDOCK:   -3.62 KCAL/MOL
REMARK 924 INTRA-LIGAND FREE ENERGY PREDICTED BY IDOCK:    0.32 KCAL/MOL
REMARK 927      BINDING AFFINITY PREDICTED BY RF-SCORE:    0.00 PKD
ROOT
HETATM    1  C   UNL     1     -10.884   9.317  68.491  1.00  0.00    -0.119 C  
HETATM    2  C   UNL     1     -11.115   9.450  69.988  1.00  0.00    -0.248 C  
HETATM    3  C   UNL     1      -9.825   9.560  70.831  1.00  0.00    -0.209 C  
HETATM    4  C   UNL     1     -11.937  10.695  70.249  1.00  0.00    -0.339 C  
HETATM    5  O   UNL     1     -11.551  11.827  70.000  1.00  0.00    -0.293 OA 
HETATM    6  O   UNL     1     -13.152  10.447  70.779  1.00  0.00    -0.385 OA 
ENDROOT
BRANCH   3   7
HETATM    7  N   UNL     1      -8.938   8.372  70.816  1.00  0.00    -0.147 N  
HETATM    8  C   UNL     1      -8.188   8.100  71.972  1.00  0.00    -0.149 C  
HETATM    9  O   UNL     1      -8.269   8.781  72.996  1.00  0.00    -0.418 OA 
HETATM   10  C   UNL     1      -7.316   6.862  71.971  1.00  0.00    -0.087 C  
BRANCH   7  11
HETATM   11  C   UNL     1      -8.405   8.017  69.522  1.00  0.00    -0.127 A  
HETATM   12  C   UNL     1      -7.389   8.788  68.901  1.00  0.00    -0.078 A  
HETATM   13  I   UNL     1      -6.711  10.661  69.608  1.00  0.00    -0.127 I  
HETATM   14  C   UNL     1      -6.760   8.337  67.740  1.00  0.00    -0.066 A  
HETATM   15  C   UNL     1      -7.161   7.147  67.138  1.00  0.00    -0.087 A  
HETATM   16  C   UNL     1      -8.244   6.402  67.644  1.00  0.00    -0.118 A  
HETATM   17  I   UNL     1      -6.088   6.513  65.437  1.00  0.00    -0.036 I  
HETATM   18  N   UNL     1      -8.582   5.157  67.069  1.00  0.00    -0.106 NA 
HETATM   19  C   UNL     1      -8.813   6.825  68.872  1.00  0.00    -0.128 A  
HETATM   20  H1  UNL     1      -9.366   4.618  67.436  1.00  0.00     0.000 HD 
HETATM   21  I   UNL     1     -10.273   5.532  69.732  1.00  0.00    -0.359 I  
HETATM   22  H2  UNL     1      -7.752   4.563  67.077  1.00  0.00     0.000 HD 
ENDBRANCH   7  11
ENDBRANCH   3   7
TORSDOF 2
ENDMDL
MODEL      132
REMARK 921   NORMALIZED FREE ENERGY PREDICTED BY IDOCK:   -2.85 KCAL/MOL
REMARK 922        TOTAL FREE ENERGY PREDICTED BY IDOCK:   -3.28 KCAL/MOL
REMARK 923 INTER-LIGAND FREE ENERGY PREDICTED BY IDOCK:   -3.46 KCAL/MOL
REMARK 924 INTRA-LIGAND FREE ENERGY PREDICTED BY IDOCK:    0.17 KCAL/MOL
REMARK 927      BINDING AFFINITY PREDICTED BY RF-SCORE:    0.00 PKD
ROOT
HETATM    1  C   UNL     1     -10.840   6.165  67.552  1.00  0.00    -0.422 C  
HETATM    2  C   UNL     1     -10.114   6.177  68.889  1.00  0.00    -0.211 C  
HETATM    3  C   UNL     1      -9.308   7.464  69.171  1.00  0.00    -0.146 C  
HETATM    4  C   UNL     1     -11.131   6.024  70.000  1.00  0.00    -0.381 C  
HETATM    5  O   UNL     1     -12.007   6.842  70.235  1.00  0.00    -0.352 OA 
HETATM    6  O   UNL     1     -10.993   4.888  70.715  1.00  0.00     0.121 OA 
ENDROOT
BRANCH   3   7
HETATM    7  N   UNL     1      -8.167   7.727  68.261  1.00  0.00    -0.123 N  
HETATM    8  C   UNL     1      -6.914   7.989  68.840  1.00  0.00    -0.062 C  
HETATM    9  O   UNL     1      -6.724   7.969  70.057  1.00  0.00    -0.040 OA 
HETATM   10  C   UNL     1      -5.741   8.213  67.909  1.00  0.00    -0.038 C  
BRANCH   7  11
HETATM   11  C   UNL     1      -8.513   8.344  67.002  1.00  0.00    -0.122 A  
HETATM   12  C   UNL     1      -8.989   9.678  66.936  1.00  0.00    -0.134 A  
HETATM   13  I   UNL     1      -9.516  10.842  68.620  1.00  0.00    -0.152 I  
HETATM   14  C   UNL     1      -9.148  10.320  65.707  1.00  0.00    -0.202 A  
HETATM   15  C   UNL     1      -8.896   9.638  64.519  1.00  0.00    -0.223 A  
HETATM   16  C   UNL     1      -8.536   8.277  64.521  1.00  0.00    -0.022 A  
HETATM   17  I   UNL     1      -9.084  10.725  62.721  1.00  0.00    -0.371 I  
HETATM   18  N   UNL     1      -8.204   7.627  63.312  1.00  0.00    -0.351 NA 
HETATM   19  C   UNL     1      -8.292   7.666  65.778  1.00  0.00    -0.141 A  
HETATM   20  H1  UNL     1      -7.943   6.640  63.314  1.00  0.00     0.000 HD 
HETATM   21  I   UNL     1      -7.503   5.686  65.728  1.00  0.00    -0.082 I  
HETATM   22  H2  UNL     1      -7.459   8.155  62.857  1.00  0.00     0.000 HD 
ENDBRANCH   7  11
ENDBRANCH   3   7
TORSDOF 2
ENDMDL
MODEL      133
REMARK 921   NORMALIZED FREE ENERGY PREDICTED BY IDOCK:   -2.81 KCAL/MOL
REMARK 922        TOTAL FREE ENERGY PREDICTED BY IDOCK:   -3.24 KCAL/MOL
REMARK 923 INTER-LIGAND FREE ENERGY PREDICTED BY IDOCK:   -3.32 KCAL/MOL
REMARK 924 INTRA-LIGAND FREE ENERGY PREDICTED BY IDOCK:    0.08 KCAL/MOL
REMARK 927      BINDING AFFINITY PREDICTED BY RF-SCORE:    0.00 PKD
ROOT
HETATM    1  C   UNL     1      -8.239  10.506  65.942  1.00  0.00    -0.152 C  
HETATM    2  C   UNL     1      -7.686   9.324  65.161  1.00  0.00    -0.108 C  
HETATM    3  C   UNL     1      -8.206   7.946  65.625  1.00  0.00    -0.137 C  
HETATM    4  C   UNL     1      -8.056   9.484  63.702  1.00  0.00    -0.151 C  
HETATM    5  O   UNL     1      -9.206   9.480  63.290  1.00  0.00    -0.205 OA 
HETATM    6  O   UNL     1      -6.996   9.641  62.882  1.00  0.00    -0.099 OA 
ENDROOT
BRANCH   3   7
HETATM    7  N   UNL     1      -7.829   7.541  67.000  1.00  0.00    -0.114 N  
HETATM    8  C   UNL     1      -6.823   6.570  67.144  1.00  0.00    -0.066 C  
HETATM    9  O   UNL     1      -6.225   6.081  66.184  1.00  0.00    -0.034 OA 
HETATM   10  C   UNL     1      -6.408   6.189  68.549  1.00  0.00    -0.040 C  
BRANCH   7  11
HETATM   11  C   UNL     1      -8.889   7.617  67.978  1.00  0.00    -0.127 A  
HETATM   12  C   UNL     1      -9.947   6.673  68.001  1.00  0.00    -0.142 A  
HETATM   13  I   UNL     1     -10.286   5.223  66.500  1.00  0.00    -0.284 I  
HETATM   14  C   UNL     1     -10.862   6.651  69.054  1.00  0.00    -0.324 A  
HETATM   15  C   UNL     1     -10.785   7.597  70.073  1.00  0.00    -0.241 A  
HETATM   16  C   UNL     1      -9.829   8.630  70.039  1.00  0.00    -0.179 A  
HETATM   17  I   UNL     1     -12.163   7.424  71.660  1.00  0.00    -0.399 I  
HETATM   18  N   UNL     1      -9.714   9.529  71.123  1.00  0.00    -0.259 NA 
HETATM   19  C   UNL     1      -8.852   8.586  69.012  1.00  0.00    -0.145 A  
HETATM   20  H1  UNL     1      -9.021  10.278  71.098  1.00  0.00     0.000 HD 
HETATM   21  I   UNL     1      -7.275  10.014  69.144  1.00  0.00    -0.109 I  
HETATM   22  H2  UNL     1      -9.571   8.988  71.976  1.00  0.00     0.000 HD 
ENDBRANCH   7  11
ENDBRANCH   3   7
TORSDOF 2
ENDMDL
MODEL      134
REMARK 921   NORMALIZED FREE ENERGY PREDICTED BY IDOCK:   -2.79 KCAL/MOL
REMARK 922        TOTAL FREE ENERGY PREDICTED BY IDOCK:   -3.21 KCAL/MOL
REMARK 923 INTER-LIGAND FREE ENERGY PREDICTED BY IDOCK:   -3.49 KCAL/MOL
REMARK 924 INTRA-LIGAND FREE ENERGY PREDICTED BY IDOCK:    0.27 KCAL/MOL
REMARK 927      BINDING AFFINITY PREDICTED BY RF-SCORE:    0.00 PKD
ROOT
HETATM    1  C   UNL     1     -11.323   6.412  70.214  1.00  0.00    -0.468 C  
HETATM    2  C   UNL     1     -10.719   7.519  71.064  1.00  0.00    -0.243 C  
HETATM    3  C   UNL     1      -9.916   8.574  70.272  1.00  0.00    -0.183 C  
HETATM    4  C   UNL     1     -11.832   8.245  71.789  1.00  0.00    -0.306 C  
HETATM    5  O   UNL     1     -12.710   8.878  71.223  1.00  0.00    -0.313 OA 
HETATM    6  O   UNL     1     -11.780   8.126  73.132  1.00  0.00    -0.245 OA 
ENDROOT
BRANCH   3   7
HETATM    7  N   UNL     1      -8.694   8.081  69.590  1.00  0.00    -0.132 N  
HETATM    8  C   UNL     1      -7.593   8.950  69.514  1.00  0.00    -0.080 C  
HETATM    9  O   UNL     1      -7.592  10.074  70.019  1.00  0.00    -0.154 OA 
HETATM   10  C   UNL     1      -6.331   8.430  68.857  1.00  0.00    -0.045 C  
BRANCH   7  11
HETATM   11  C   UNL     1      -8.921   7.124  68.534  1.00  0.00    -0.127 A  
HETATM   12  C   UNL     1      -9.474   7.513  67.286  1.00  0.00    -0.151 A  
HETATM   13  I   UNL     1     -10.283   9.424  66.883  1.00  0.00    -0.254 I  
HETATM   14  C   UNL     1      -9.522   6.618  66.217  1.00  0.00    -0.120 A  
HETATM   15  C   UNL     1      -9.079   5.308  66.374  1.00  0.00    -0.137 A  
HETATM   16  C   UNL     1      -8.632   4.834  67.623  1.00  0.00    -0.103 A  
HETATM   17  I   UNL     1      -9.115   4.063  64.673  1.00  0.00    -0.165 I  
HETATM   18  N   UNL     1      -8.109   3.527  67.742  1.00  0.00    -0.080 NA 
HETATM   19  C   UNL     1      -8.505   5.777  68.675  1.00  0.00    -0.107 A  
HETATM   20  H1  UNL     1      -7.785   3.184  68.647  1.00  0.00     0.000 HD 
HETATM   21  I   UNL     1      -7.585   5.077  70.466  1.00  0.00    -0.073 I  
HETATM   22  H2  UNL     1      -7.350   3.421  67.068  1.00  0.00     0.000 HD 
ENDBRANCH   7  11
ENDBRANCH   3   7
TORSDOF 2
ENDMDL
MODEL      135
REMARK 921   NORMALIZED FREE ENERGY PREDICTED BY IDOCK:   -2.78 KCAL/MOL
REMARK 922        TOTAL FREE ENERGY PREDICTED BY IDOCK:   -3.20 KCAL/MOL
REMARK 923 INTER-LIGAND FREE ENERGY PREDICTED BY IDOCK:   -3.13 KCAL/MOL
REMARK 924 INTRA-LIGAND FREE ENERGY PREDICTED BY IDOCK:   -0.07 KCAL/MOL
REMARK 927      BINDING AFFINITY PREDICTED BY RF-SCORE:    0.00 PKD
ROOT
HETATM    1  C   UNL     1     -10.905   6.056  70.082  1.00  0.00    -0.409 C  
HETATM    2  C   UNL     1      -9.847   7.133  70.266  1.00  0.00    -0.177 C  
HETATM    3  C   UNL     1      -8.869   7.283  69.081  1.00  0.00    -0.136 C  
HETATM    4  C   UNL     1     -10.534   8.467  70.462  1.00  0.00    -0.204 C  
HETATM    5  O   UNL     1     -11.226   9.005  69.611  1.00  0.00    -0.132 OA 
HETATM    6  O   UNL     1     -10.322   9.019  71.675  1.00  0.00    -0.311 OA 
ENDROOT
BRANCH   3   7
HETATM    7  N   UNL     1      -7.997   6.115  68.807  1.00  0.00    -0.100 N  
HETATM    8  C   UNL     1      -6.690   6.139  69.322  1.00  0.00    -0.060 C  
HETATM    9  O   UNL     1      -6.262   7.063  70.014  1.00  0.00    -0.030 OA 
HETATM   10  C   UNL     1      -5.815   4.926  69.080  1.00  0.00    -0.020 C  
BRANCH   7  11
HETATM   11  C   UNL     1      -8.261   5.426  67.566  1.00  0.00    -0.100 A  
HETATM   12  C   UNL     1      -8.816   4.121  67.545  1.00  0.00    -0.113 A  
HETATM   13  I   UNL     1      -9.079   2.908  69.256  1.00  0.00    -0.185 I  
HETATM   14  C   UNL     1      -9.231   3.540  66.346  1.00  0.00    -0.179 A  
HETATM   15  C   UNL     1      -9.052   4.212  65.139  1.00  0.00    -0.142 A  
HETATM   16  C   UNL     1      -8.398   5.458  65.088  1.00  0.00    -0.144 A  
HETATM   17  I   UNL     1      -9.791   3.284  63.396  1.00  0.00    -0.178 I  
HETATM   18  N   UNL     1      -8.301   6.161  63.867  1.00  0.00    -0.321 NA 
HETATM   19  C   UNL     1      -8.064   6.074  66.322  1.00  0.00    -0.112 A  
HETATM   20  H1  UNL     1      -7.827   7.064  63.830  1.00  0.00     0.000 HD 
HETATM   21  I   UNL     1      -7.312   8.066  66.210  1.00  0.00    -0.081 I  
HETATM   22  H2  UNL     1      -9.241   6.276  63.486  1.00  0.00     0.000 HD 
ENDBRANCH   7  11
ENDBRANCH   3   7
TORSDOF 2
ENDMDL
MODEL      136
REMARK 921   NORMALIZED FREE ENERGY PREDICTED BY IDOCK:   -2.77 KCAL/MOL
REMARK 922        TOTAL FREE ENERGY PREDICTED BY IDOCK:   -3.19 KCAL/MOL
REMARK 923 INTER-LIGAND FREE ENERGY PREDICTED BY IDOCK:   -4.72 KCAL/MOL
REMARK 924 INTRA-LIGAND FREE ENERGY PREDICTED BY IDOCK:    1.53 KCAL/MOL
REMARK 927      BINDING AFFINITY PREDICTED BY RF-SCORE:    0.00 PKD
ROOT
HETATM    1  C   UNL     1      -9.931  15.172  65.395  1.00  0.00    -0.365 C  
HETATM    2  C   UNL     1     -11.187  14.318  65.474  1.00  0.00    -0.320 C  
HETATM    3  C   UNL     1     -12.050  14.558  66.732  1.00  0.00    -0.288 C  
HETATM    4  C   UNL     1     -12.053  14.603  64.266  1.00  0.00    -0.415 C  
HETATM    5  O   UNL     1     -12.560  15.690  64.037  1.00  0.00    -0.632 OA 
HETATM    6  O   UNL     1     -12.214  13.544  63.445  1.00  0.00    -0.641 OA 
ENDROOT
BRANCH   3   7
HETATM    7  N   UNL     1     -11.420  14.207  68.028  1.00  0.00    -0.294 N  
HETATM    8  C   UNL     1     -12.004  14.718  69.199  1.00  0.00    -0.282 C  
HETATM    9  O   UNL     1     -13.027  15.404  69.191  1.00  0.00     0.441 OA 
HETATM   10  C   UNL     1     -11.387  14.322  70.524  1.00  0.00    -0.056 C  
BRANCH   7  11
HETATM   11  C   UNL     1      -9.994  13.987  67.980  1.00  0.00    -0.235 A  
HETATM   12  C   UNL     1      -9.073  15.044  68.196  1.00  0.00    -0.178 A  
HETATM   13  I   UNL     1      -9.608  17.084  68.339  1.00  0.00    -0.308 I  
HETATM   14  C   UNL     1      -7.708  14.786  68.325  1.00  0.00    -0.120 A  
HETATM   15  C   UNL     1      -7.220  13.489  68.186  1.00  0.00    -0.117 A  
HETATM   16  C   UNL     1      -8.074  12.420  67.853  1.00  0.00    -0.161 A  
HETATM   17  I   UNL     1      -5.153  13.195  68.484  1.00  0.00    -0.090 I  
HETATM   18  N   UNL     1      -7.574  11.100  67.799  1.00  0.00    -0.097 NA 
HETATM   19  C   UNL     1      -9.467  12.682  67.814  1.00  0.00    -0.198 A  
HETATM   20  H1  UNL     1      -8.193  10.326  67.558  1.00  0.00     0.000 HD 
HETATM   21  I   UNL     1     -10.741  10.991  67.562  1.00  0.00    -0.361 I  
HETATM   22  H2  UNL     1      -7.127  10.888  68.691  1.00  0.00     0.000 HD 
ENDBRANCH   7  11
ENDBRANCH   3   7
TORSDOF 2
ENDMDL
MODEL      137
REMARK 921   NORMALIZED FREE ENERGY PREDICTED BY IDOCK:   -2.74 KCAL/MOL
REMARK 922        TOTAL FREE ENERGY PREDICTED BY IDOCK:   -3.15 KCAL/MOL
REMARK 923 INTER-LIGAND FREE ENERGY PREDICTED BY IDOCK:   -3.44 KCAL/MOL
REMARK 924 INTRA-LIGAND FREE ENERGY PREDICTED BY IDOCK:    0.29 KCAL/MOL
REMARK 927      BINDING AFFINITY PREDICTED BY RF-SCORE:    0.00 PKD
ROOT
HETATM    1  C   UNL     1     -10.055   7.577  66.649  1.00  0.00    -0.263 C  
HETATM    2  C   UNL     1      -8.946   6.606  67.026  1.00  0.00    -0.120 C  
HETATM    3  C   UNL     1      -8.795   6.361  68.543  1.00  0.00    -0.119 C  
HETATM    4  C   UNL     1      -9.221   5.269  66.373  1.00  0.00    -0.144 C  
HETATM    5  O   UNL     1     -10.195   4.576  66.630  1.00  0.00    -0.233 OA 
HETATM    6  O   UNL     1      -8.294   4.902  65.465  1.00  0.00    -0.115 OA 
ENDROOT
BRANCH   3   7
HETATM    7  N   UNL     1      -8.391   7.535  69.353  1.00  0.00    -0.130 N  
HETATM    8  C   UNL     1      -7.503   7.320  70.421  1.00  0.00    -0.083 C  
HETATM    9  O   UNL     1      -7.026   6.214  70.680  1.00  0.00    -0.060 OA 
HETATM   10  C   UNL     1      -7.057   8.527  71.220  1.00  0.00    -0.078 C  
BRANCH   7  11
HETATM   11  C   UNL     1      -9.375   8.587  69.447  1.00  0.00    -0.154 A  
HETATM   12  C   UNL     1     -10.585   8.410  70.165  1.00  0.00    -0.233 A  
HETATM   13  I   UNL     1     -11.248   6.563  70.950  1.00  0.00    -0.403 I  
HETATM   14  C   UNL     1     -11.442   9.487  70.398  1.00  0.00    -0.297 A  
HETATM   15  C   UNL     1     -11.150  10.745  69.877  1.00  0.00    -0.271 A  
HETATM   16  C   UNL     1     -10.024  10.951  69.056  1.00  0.00    -0.191 A  
HETATM   17  I   UNL     1     -12.465  12.321  70.358  1.00  0.00     0.084 I  
HETATM   18  N   UNL     1      -9.700  12.250  68.606  1.00  0.00    -0.387 NA 
HETATM   19  C   UNL     1      -9.118   9.871  68.903  1.00  0.00    -0.156 A  
HETATM   20  H1  UNL     1      -8.884  12.399  68.012  1.00  0.00     0.000 HD 
HETATM   21  I   UNL     1      -7.303  10.299  67.870  1.00  0.00    -0.087 I  
HETATM   22  H2  UNL     1      -9.621  12.861  69.420  1.00  0.00     0.000 HD 
ENDBRANCH   7  11
ENDBRANCH   3   7
TORSDOF 2
ENDMDL
MODEL      138
REMARK 921   NORMALIZED FREE ENERGY PREDICTED BY IDOCK:   -2.71 KCAL/MOL
REMARK 922        TOTAL FREE ENERGY PREDICTED BY IDOCK:   -3.13 KCAL/MOL
REMARK 923 INTER-LIGAND FREE ENERGY PREDICTED BY IDOCK:   -3.22 KCAL/MOL
REMARK 924 INTRA-LIGAND FREE ENERGY PREDICTED BY IDOCK:    0.09 KCAL/MOL
REMARK 927      BINDING AFFINITY PREDICTED BY RF-SCORE:    0.00 PKD
ROOT
HETATM    1  C   UNL     1      -9.752   8.636  71.482  1.00  0.00    -0.333 C  
HETATM    2  C   UNL     1      -8.362   8.021  71.534  1.00  0.00    -0.139 C  
HETATM    3  C   UNL     1      -7.287   8.793  70.737  1.00  0.00    -0.080 C  
HETATM    4  C   UNL     1      -7.905   7.963  72.976  1.00  0.00    -0.131 C  
HETATM    5  O   UNL     1      -7.718   8.952  73.669  1.00  0.00    -0.386 OA 
HETATM    6  O   UNL     1      -7.727   6.710  73.444  1.00  0.00    -0.091 OA 
ENDROOT
BRANCH   3   7
HETATM    7  N   UNL     1      -7.485   8.849  69.268  1.00  0.00    -0.073 N  
HETATM    8  C   UNL     1      -6.544   8.194  68.456  1.00  0.00    -0.058 C  
HETATM    9  O   UNL     1      -5.597   7.552  68.914  1.00  0.00    -0.021 OA 
HETATM   10  C   UNL     1      -6.771   8.214  66.959  1.00  0.00    -0.065 C  
BRANCH   7  11
HETATM   11  C   UNL     1      -8.143  10.037  68.780  1.00  0.00    -0.106 A  
HETATM   12  C   UNL     1      -7.519  11.310  68.842  1.00  0.00    -0.123 A  
HETATM   13  I   UNL     1      -5.715  11.705  69.871  1.00  0.00    -0.158 I  
HETATM   14  C   UNL     1      -8.087  12.415  68.208  1.00  0.00    -0.166 A  
HETATM   15  C   UNL     1      -9.309  12.299  67.550  1.00  0.00    -0.183 A  
HETATM   16  C   UNL     1     -10.030  11.090  67.559  1.00  0.00    -0.174 A  
HETATM   17  I   UNL     1     -10.037  14.008  66.553  1.00  0.00    -0.318 I  
HETATM   18  N   UNL     1     -11.226  10.969  66.817  1.00  0.00    -0.288 NA 
HETATM   19  C   UNL     1      -9.399   9.955  68.129  1.00  0.00    -0.131 A  
HETATM   20  H1  UNL     1     -11.748  10.093  66.823  1.00  0.00     0.000 HD 
HETATM   21  I   UNL     1     -10.411   8.093  67.894  1.00  0.00    -0.197 I  
HETATM   22  H2  UNL     1     -11.029  11.219  65.847  1.00  0.00     0.000 HD 
ENDBRANCH   7  11
ENDBRANCH   3   7
TORSDOF 2
ENDMDL
MODEL      139
REMARK 921   NORMALIZED FREE ENERGY PREDICTED BY IDOCK:   -2.70 KCAL/MOL
REMARK 922        TOTAL FREE ENERGY PREDICTED BY IDOCK:   -3.12 KCAL/MOL
REMARK 923 INTER-LIGAND FREE ENERGY PREDICTED BY IDOCK:   -5.67 KCAL/MOL
REMARK 924 INTRA-LIGAND FREE ENERGY PREDICTED BY IDOCK:    2.55 KCAL/MOL
REMARK 927      BINDING AFFINITY PREDICTED BY RF-SCORE:    0.00 PKD
ROOT
HETATM    1  C   UNL     1     -11.532  11.789  64.268  1.00  0.00    -0.386 C  
HETATM    2  C   UNL     1     -10.020  11.867  64.414  1.00  0.00    -0.260 C  
HETATM    3  C   UNL     1      -9.488  11.476  65.810  1.00  0.00    -0.234 C  
HETATM    4  C   UNL     1      -9.380  10.937  63.405  1.00  0.00    -0.290 C  
HETATM    5  O   UNL     1      -9.524   9.724  63.415  1.00  0.00    -0.211 OA 
HETATM    6  O   UNL     1      -8.634  11.569  62.475  1.00  0.00    -0.265 OA 
ENDROOT
BRANCH   3   7
HETATM    7  N   UNL     1      -9.897  12.357  66.930  1.00  0.00    -0.211 N  
HETATM    8  C   UNL     1     -11.138  12.106  67.540  1.00  0.00    -0.275 C  
HETATM    9  O   UNL     1     -11.868  11.170  67.208  1.00  0.00    -0.525 OA 
HETATM   10  C   UNL     1     -11.536  12.978  68.712  1.00  0.00    -0.340 C  
BRANCH   7  11
HETATM   11  C   UNL     1      -9.397  13.710  66.866  1.00  0.00    -0.257 A  
HETATM   12  C   UNL     1      -8.092  14.040  67.313  1.00  0.00    -0.156 A  
HETATM   13  I   UNL     1      -6.818  12.718  68.361  1.00  0.00    -0.127 I  
HETATM   14  C   UNL     1      -7.557  15.308  67.081  1.00  0.00    -0.224 A  
HETATM   15  C   UNL     1      -8.321  16.291  66.457  1.00  0.00    -0.308 A  
HETATM   16  C   UNL     1      -9.663  16.055  66.100  1.00  0.00    -0.324 A  
HETATM   17  I   UNL     1      -7.390  18.145  66.078  1.00  0.00    -0.096 I  
HETATM   18  N   UNL     1     -10.394  17.036  65.393  1.00  0.00    -0.641 NA 
HETATM   19  C   UNL     1     -10.162  14.737  66.260  1.00  0.00    -0.298 A  
HETATM   20  H1  UNL     1     -11.366  16.865  65.134  1.00  0.00     0.000 HD 
HETATM   21  I   UNL     1     -12.107  14.361  65.472  1.00  0.00    -0.245 I  
HETATM   22  H2  UNL     1      -9.875  17.278  64.549  1.00  0.00     0.000 HD 
ENDBRANCH   7  11
ENDBRANCH   3   7
TORSDOF 2
ENDMDL
MODEL      140
REMARK 921   NORMALIZED FREE ENERGY PREDICTED BY IDOCK:   -2.69 KCAL/MOL
REMARK 922        TOTAL FREE ENERGY PREDICTED BY IDOCK:   -3.10 KCAL/MOL
REMARK 923 INTER-LIGAND FREE ENERGY PREDICTED BY IDOCK:   -3.20 KCAL/MOL
REMARK 924 INTRA-LIGAND FREE ENERGY PREDICTED BY IDOCK:    0.09 KCAL/MOL
REMARK 927      BINDING AFFINITY PREDICTED BY RF-SCORE:    0.00 PKD
ROOT
HETATM    1  C   UNL     1      -9.300   8.227  70.882  1.00  0.00    -0.187 C  
HETATM    2  C   UNL     1      -7.830   7.844  70.810  1.00  0.00    -0.091 C  
HETATM    3  C   UNL     1      -6.945   8.835  70.023  1.00  0.00    -0.043 C  
HETATM    4  C   UNL     1      -7.276   7.756  72.216  1.00  0.00    -0.081 C  
HETATM    5  O   UNL     1      -7.201   8.709  72.976  1.00  0.00    -0.311 OA 
HETATM    6  O   UNL     1      -6.873   6.517  72.568  1.00  0.00    -0.067 OA 
ENDROOT
BRANCH   3   7
HETATM    7  N   UNL     1      -7.245   8.965  68.576  1.00  0.00    -0.073 N  
HETATM    8  C   UNL     1      -6.234   8.618  67.664  1.00  0.00    -0.052 C  
HETATM    9  O   UNL     1      -5.138   8.178  68.017  1.00  0.00    -0.031 OA 
HETATM   10  C   UNL     1      -6.556   8.709  66.188  1.00  0.00    -0.061 C  
BRANCH   7  11
HETATM   11  C   UNL     1      -8.186  10.004  68.233  1.00  0.00    -0.106 A  
HETATM   12  C   UNL     1      -9.475   9.700  67.725  1.00  0.00    -0.127 A  
HETATM   13  I   UNL     1     -10.104   7.767  67.146  1.00  0.00    -0.387 I  
HETATM   14  C   UNL     1     -10.435  10.700  67.567  1.00  0.00    -0.272 A  
HETATM   15  C   UNL     1     -10.124  12.027  67.853  1.00  0.00    -0.195 A  
HETATM   16  C   UNL     1      -8.825  12.403  68.246  1.00  0.00    -0.174 A  
HETATM   17  I   UNL     1     -11.671  13.447  67.663  1.00  0.00    -0.360 I  
HETATM   18  N   UNL     1      -8.551  13.740  68.611  1.00  0.00    -0.329 NA 
HETATM   19  C   UNL     1      -7.887  11.366  68.488  1.00  0.00    -0.140 A  
HETATM   20  H1  UNL     1      -7.609  14.011  68.897  1.00  0.00     0.000 HD 
HETATM   21  I   UNL     1      -6.019  11.958  69.327  1.00  0.00    -0.110 I  
HETATM   22  H2  UNL     1      -9.201  14.011  69.349  1.00  0.00     0.000 HD 
ENDBRANCH   7  11
ENDBRANCH   3   7
TORSDOF 2
ENDMDL
MODEL      141
REMARK 921   NORMALIZED FREE ENERGY PREDICTED BY IDOCK:   -2.69 KCAL/MOL
REMARK 922        TOTAL FREE ENERGY PREDICTED BY IDOCK:   -3.10 KCAL/MOL
REMARK 923 INTER-LIGAND FREE ENERGY PREDICTED BY IDOCK:   -3.08 KCAL/MOL
REMARK 924 INTRA-LIGAND FREE ENERGY PREDICTED BY IDOCK:   -0.02 KCAL/MOL
REMARK 927      BINDING AFFINITY PREDICTED BY RF-SCORE:    0.00 PKD
ROOT
HETATM    1  C   UNL     1      -8.216   8.176  72.506  1.00  0.00    -0.215 C  
HETATM    2  C   UNL     1      -9.404   7.416  71.937  1.00  0.00    -0.157 C  
HETATM    3  C   UNL     1      -9.334   7.158  70.416  1.00  0.00    -0.159 C  
HETATM    4  C   UNL     1      -9.499   6.070  72.624  1.00  0.00    -0.146 C  
HETATM    5  O   UNL     1      -8.643   5.203  72.539  1.00  0.00    -0.119 OA 
HETATM    6  O   UNL     1     -10.622   5.906  73.355  1.00  0.00    -0.229 OA 
ENDROOT
BRANCH   3   7
HETATM    7  N   UNL     1      -9.367   8.363  69.553  1.00  0.00    -0.157 N  
HETATM    8  C   UNL     1     -10.515   9.172  69.600  1.00  0.00    -0.223 C  
HETATM    9  O   UNL     1     -11.464   8.940  70.350  1.00  0.00    -0.246 OA 
HETATM   10  C   UNL     1     -10.529  10.425  68.751  1.00  0.00    -0.219 C  
BRANCH   7  11
HETATM   11  C   UNL     1      -8.619   8.260  68.322  1.00  0.00    -0.133 A  
HETATM   12  C   UNL     1      -7.319   8.812  68.194  1.00  0.00    -0.087 A  
HETATM   13  I   UNL     1      -6.409  10.068  69.631  1.00  0.00    -0.085 I  
HETATM   14  C   UNL     1      -6.540   8.551  67.066  1.00  0.00    -0.058 A  
HETATM   15  C   UNL     1      -7.050   7.790  66.018  1.00  0.00    -0.065 A  
HETATM   16  C   UNL     1      -8.376   7.317  66.039  1.00  0.00    -0.140 A  
HETATM   17  I   UNL     1      -5.761   7.384  64.400  1.00  0.00    -0.037 I  
HETATM   18  N   UNL     1      -8.848   6.477  65.006  1.00  0.00    -0.352 NA 
HETATM   19  C   UNL     1      -9.124   7.513  67.228  1.00  0.00    -0.124 A  
HETATM   20  H1  UNL     1      -9.809   6.134  65.021  1.00  0.00     0.000 HD 
HETATM   21  I   UNL     1     -11.030   6.561  67.315  1.00  0.00    -0.130 I  
HETATM   22  H2  UNL     1      -8.222   5.675  64.932  1.00  0.00     0.000 HD 
ENDBRANCH   7  11
ENDBRANCH   3   7
TORSDOF 2
ENDMDL
MODEL      142
REMARK 921   NORMALIZED FREE ENERGY PREDICTED BY IDOCK:   -2.65 KCAL/MOL
REMARK 922        TOTAL FREE ENERGY PREDICTED BY IDOCK:   -3.06 KCAL/MOL
REMARK 923 INTER-LIGAND FREE ENERGY PREDICTED BY IDOCK:   -3.97 KCAL/MOL
REMARK 924 INTRA-LIGAND FREE ENERGY PREDICTED BY IDOCK:    0.91 KCAL/MOL
REMARK 927      BINDING AFFINITY PREDICTED BY RF-SCORE:    0.00 PKD
ROOT
HETATM    1  C   UNL     1     -11.603  10.242  68.341  1.00  0.00    -0.047 C  
HETATM    2  C   UNL     1     -10.543   9.638  69.249  1.00  0.00    -0.236 C  
HETATM    3  C   UNL     1      -9.307  10.536  69.481  1.00  0.00    -0.064 C  
HETATM    4  C   UNL     1     -11.159   9.353  70.602  1.00  0.00    -0.289 C  
HETATM    5  O   UNL     1     -11.594  10.220  71.345  1.00  0.00    -0.317 OA 
HETATM    6  O   UNL     1     -11.196   8.043  70.922  1.00  0.00    -0.258 OA 
ENDROOT
BRANCH   3   7
HETATM    7  N   UNL     1      -8.482  10.825  68.283  1.00  0.00    -0.125 N  
HETATM    8  C   UNL     1      -7.163  11.263  68.487  1.00  0.00    -0.094 C  
HETATM    9  O   UNL     1      -6.663  11.376  69.607  1.00  0.00    -0.127 OA 
HETATM   10  C   UNL     1      -6.307  11.515  67.263  1.00  0.00    -0.107 C  
BRANCH   7  11
HETATM   11  C   UNL     1      -9.214  11.285  67.126  1.00  0.00    -0.163 A  
HETATM   12  C   UNL     1      -9.501  10.422  66.038  1.00  0.00    -0.185 A  
HETATM   13  I   UNL     1      -8.699   8.479  65.811  1.00  0.00    -0.186 I  
HETATM   14  C   UNL     1     -10.358  10.825  65.013  1.00  0.00    -0.357 A  
HETATM   15  C   UNL     1     -10.901  12.107  65.013  1.00  0.00    -0.300 A  
HETATM   16  C   UNL     1     -10.556  13.046  66.005  1.00  0.00    -0.279 A  
HETATM   17  I   UNL     1     -12.251  12.587  63.466  1.00  0.00    -0.377 I  
HETATM   18  N   UNL     1     -11.182  14.312  66.035  1.00  0.00    -0.319 NA 
HETATM   19  C   UNL     1      -9.757  12.593  67.086  1.00  0.00    -0.211 A  
HETATM   20  H1  UNL     1     -10.931  14.992  66.754  1.00  0.00     0.000 HD 
HETATM   21  I   UNL     1      -9.472  13.967  68.691  1.00  0.00     0.069 I  
HETATM   22  H2  UNL     1     -12.192  14.171  66.064  1.00  0.00     0.000 HD 
ENDBRANCH   7  11
ENDBRANCH   3   7
TORSDOF 2
ENDMDL
MODEL      143
REMARK 921   NORMALIZED FREE ENERGY PREDICTED BY IDOCK:   -2.65 KCAL/MOL
REMARK 922        TOTAL FREE ENERGY PREDICTED BY IDOCK:   -3.06 KCAL/MOL
REMARK 923 INTER-LIGAND FREE ENERGY PREDICTED BY IDOCK:   -3.31 KCAL/MOL
REMARK 924 INTRA-LIGAND FREE ENERGY PREDICTED BY IDOCK:    0.26 KCAL/MOL
REMARK 927      BINDING AFFINITY PREDICTED BY RF-SCORE:    0.00 PKD
ROOT
HETATM    1  C   UNL     1     -11.542   8.427  70.325  1.00  0.00     0.016 C  
HETATM    2  C   UNL     1     -12.064   7.269  71.161  1.00  0.00    -0.376 C  
HETATM    3  C   UNL     1     -11.015   6.625  72.094  1.00  0.00    -0.245 C  
HETATM    4  C   UNL     1     -13.202   7.763  72.028  1.00  0.00    -0.195 C  
HETATM    5  O   UNL     1     -13.072   8.605  72.903  1.00  0.00    -0.265 OA 
HETATM    6  O   UNL     1     -14.393   7.195  71.744  1.00  0.00    -0.417 OA 
ENDROOT
BRANCH   3   7
HETATM    7  N   UNL     1      -9.872   5.959  71.423  1.00  0.00    -0.166 N  
HETATM    8  C   UNL     1      -9.432   4.731  71.945  1.00  0.00    -0.143 C  
HETATM    9  O   UNL     1      -9.979   4.177  72.900  1.00  0.00    -0.138 OA 
HETATM   10  C   UNL     1      -8.294   4.031  71.233  1.00  0.00    -0.091 C  
BRANCH   7  11
HETATM   11  C   UNL     1      -8.922   6.848  70.798  1.00  0.00    -0.150 A  
HETATM   12  C   UNL     1      -8.008   7.617  71.564  1.00  0.00    -0.094 A  
HETATM   13  I   UNL     1      -8.070   7.794  73.670  1.00  0.00    -0.300 I  
HETATM   14  C   UNL     1      -6.982   8.331  70.946  1.00  0.00    -0.045 A  
HETATM   15  C   UNL     1      -6.872   8.348  69.558  1.00  0.00    -0.041 A  
HETATM   16  C   UNL     1      -7.821   7.701  68.743  1.00  0.00    -0.120 A  
HETATM   17  I   UNL     1      -5.236   9.388  68.728  1.00  0.00    -0.036 I  
HETATM   18  N   UNL     1      -7.646   7.659  67.342  1.00  0.00    -0.106 NA 
HETATM   19  C   UNL     1      -8.805   6.907  69.387  1.00  0.00    -0.136 A  
HETATM   20  H1  UNL     1      -8.334   7.190  66.752  1.00  0.00     0.000 HD 
HETATM   21  I   UNL     1     -10.059   5.742  68.116  1.00  0.00    -0.265 I  
HETATM   22  H2  UNL     1      -6.728   7.260  67.145  1.00  0.00     0.000 HD 
ENDBRANCH   7  11
ENDBRANCH   3   7
TORSDOF 2
ENDMDL
MODEL      144
REMARK 921   NORMALIZED FREE ENERGY PREDICTED BY IDOCK:   -2.59 KCAL/MOL
REMARK 922        TOTAL FREE ENERGY PREDICTED BY IDOCK:   -2.99 KCAL/MOL
REMARK 923 INTER-LIGAND FREE ENERGY PREDICTED BY IDOCK:   -3.20 KCAL/MOL
REMARK 924 INTRA-LIGAND FREE ENERGY PREDICTED BY IDOCK:    0.21 KCAL/MOL
REMARK 927      BINDING AFFINITY PREDICTED BY RF-SCORE:    0.00 PKD
ROOT
HETATM    1  C   UNL     1     -11.407   9.441  70.887  1.00  0.00    -0.386 C  
HETATM    2  C   UNL     1     -10.395  10.210  70.052  1.00  0.00    -0.301 C  
HETATM    3  C   UNL     1      -9.255   9.347  69.467  1.00  0.00    -0.176 C  
HETATM    4  C   UNL     1     -11.113  10.864  68.891  1.00  0.00    -0.252 C  
HETATM    5  O   UNL     1     -11.677  10.241  68.004  1.00  0.00    -0.293 OA 
HETATM    6  O   UNL     1     -11.085  12.213  68.919  1.00  0.00    -0.222 OA 
ENDROOT
BRANCH   3   7
HETATM    7  N   UNL     1      -8.345   8.720  70.456  1.00  0.00    -0.132 N  
HETATM    8  C   UNL     1      -7.257   9.480  70.918  1.00  0.00    -0.044 C  
HETATM    9  O   UNL     1      -7.058  10.644  70.566  1.00  0.00    -0.227 OA 
HETATM   10  C   UNL     1      -6.353   8.854  71.959  1.00  0.00    -0.048 C  
BRANCH   7  11
HETATM   11  C   UNL     1      -8.219   7.285  70.354  1.00  0.00    -0.125 A  
HETATM   12  C   UNL     1      -7.359   6.681  69.402  1.00  0.00    -0.092 A  
HETATM   13  I   UNL     1      -6.371   7.726  67.853  1.00  0.00    -0.054 I  
HETATM   14  C   UNL     1      -7.112   5.308  69.434  1.00  0.00    -0.056 A  
HETATM   15  C   UNL     1      -7.753   4.498  70.367  1.00  0.00    -0.053 A  
HETATM   16  C   UNL     1      -8.707   5.026  71.258  1.00  0.00    -0.129 A  
HETATM   17  I   UNL     1      -7.245   2.451  70.385  1.00  0.00    -0.032 I  
HETATM   18  N   UNL     1      -9.285   4.204  72.251  1.00  0.00    -0.119 NA 
HETATM   19  C   UNL     1      -8.881   6.434  71.274  1.00  0.00    -0.138 A  
HETATM   20  H1  UNL     1      -9.977   4.587  72.896  1.00  0.00     0.000 HD 
HETATM   21  I   UNL     1     -10.140   7.214  72.807  1.00  0.00    -0.325 I  
HETATM   22  H2  UNL     1      -8.533   3.784  72.798  1.00  0.00     0.000 HD 
ENDBRANCH   7  11
ENDBRANCH   3   7
TORSDOF 2
ENDMDL
MODEL      145
REMARK 921   NORMALIZED FREE ENERGY PREDICTED BY IDOCK:   -2.57 KCAL/MOL
REMARK 922        TOTAL FREE ENERGY PREDICTED BY IDOCK:   -2.97 KCAL/MOL
REMARK 923 INTER-LIGAND FREE ENERGY PREDICTED BY IDOCK:   -2.91 KCAL/MOL
REMARK 924 INTRA-LIGAND FREE ENERGY PREDICTED BY IDOCK:   -0.06 KCAL/MOL
REMARK 927      BINDING AFFINITY PREDICTED BY RF-SCORE:    0.00 PKD
ROOT
HETATM    1  C   UNL     1      -7.708   3.190  69.206  1.00  0.00    -0.048 C  
HETATM    2  C   UNL     1      -7.988   3.688  70.615  1.00  0.00    -0.055 C  
HETATM    3  C   UNL     1      -8.755   5.027  70.684  1.00  0.00    -0.122 C  
HETATM    4  C   UNL     1      -8.813   2.652  71.347  1.00  0.00    -0.074 C  
HETATM    5  O   UNL     1      -9.944   2.329  71.016  1.00  0.00    -0.067 OA 
HETATM    6  O   UNL     1      -8.186   2.099  72.406  1.00  0.00    -0.053 OA 
ENDROOT
BRANCH   3   7
HETATM    7  N   UNL     1      -8.048   6.208  70.133  1.00  0.00    -0.114 N  
HETATM    8  C   UNL     1      -6.797   6.538  70.683  1.00  0.00    -0.063 C  
HETATM    9  O   UNL     1      -6.258   5.869  71.566  1.00  0.00    -0.037 OA 
HETATM   10  C   UNL     1      -6.057   7.718  70.090  1.00  0.00    -0.030 C  
BRANCH   7  11
HETATM   11  C   UNL     1      -8.901   7.256  69.626  1.00  0.00    -0.141 A  
HETATM   12  C   UNL     1      -9.498   8.210  70.490  1.00  0.00    -0.163 A  
HETATM   13  I   UNL     1      -9.466   8.095  72.600  1.00  0.00    -0.309 I  
HETATM   14  C   UNL     1     -10.172   9.318  69.973  1.00  0.00    -0.244 A  
HETATM   15  C   UNL     1     -10.318   9.475  68.597  1.00  0.00    -0.205 A  
HETATM   16  C   UNL     1      -9.850   8.498  67.698  1.00  0.00    -0.174 A  
HETATM   17  I   UNL     1     -11.277  11.226  67.920  1.00  0.00    -0.357 I  
HETATM   18  N   UNL     1      -9.935   8.715  66.305  1.00  0.00    -0.412 NA 
HETATM   19  C   UNL     1      -9.091   7.425  68.232  1.00  0.00    -0.128 A  
HETATM   20  H1  UNL     1      -9.595   8.007  65.653  1.00  0.00     0.000 HD 
HETATM   21  I   UNL     1      -8.185   6.112  66.817  1.00  0.00    -0.113 I  
HETATM   22  H2  UNL     1      -9.473   9.598  66.088  1.00  0.00     0.000 HD 
ENDBRANCH   7  11
ENDBRANCH   3   7
TORSDOF 2
ENDMDL
MODEL      146
REMARK 921   NORMALIZED FREE ENERGY PREDICTED BY IDOCK:   -2.56 KCAL/MOL
REMARK 922        TOTAL FREE ENERGY PREDICTED BY IDOCK:   -2.96 KCAL/MOL
REMARK 923 INTER-LIGAND FREE ENERGY PREDICTED BY IDOCK:   -2.98 KCAL/MOL
REMARK 924 INTRA-LIGAND FREE ENERGY PREDICTED BY IDOCK:    0.02 KCAL/MOL
REMARK 927      BINDING AFFINITY PREDICTED BY RF-SCORE:    0.00 PKD
ROOT
HETATM    1  C   UNL     1     -10.656   6.284  73.907  1.00  0.00    -0.231 C  
HETATM    2  C   UNL     1     -10.676   7.236  72.721  1.00  0.00    -0.340 C  
HETATM    3  C   UNL     1      -9.937   6.718  71.468  1.00  0.00    -0.177 C  
HETATM    4  C   UNL     1     -12.113   7.500  72.327  1.00  0.00    -0.230 C  
HETATM    5  O   UNL     1     -12.871   6.638  71.908  1.00  0.00    -0.328 OA 
HETATM    6  O   UNL     1     -12.498   8.783  72.485  1.00  0.00    -0.382 OA 
ENDROOT
BRANCH   3   7
HETATM    7  N   UNL     1      -8.475   6.521  71.612  1.00  0.00    -0.124 N  
HETATM    8  C   UNL     1      -7.698   7.632  71.982  1.00  0.00    -0.088 C  
HETATM    9  O   UNL     1      -8.186   8.736  72.226  1.00  0.00    -0.360 OA 
HETATM   10  C   UNL     1      -6.211   7.419  72.172  1.00  0.00    -0.040 C  
BRANCH   7  11
HETATM   11  C   UNL     1      -7.903   5.504  70.761  1.00  0.00    -0.092 A  
HETATM   12  C   UNL     1      -7.616   4.203  71.249  1.00  0.00    -0.059 A  
HETATM   13  I   UNL     1      -7.715   3.643  73.284  1.00  0.00    -0.068 I  
HETATM   14  C   UNL     1      -7.234   3.183  70.377  1.00  0.00    -0.037 A  
HETATM   15  C   UNL     1      -7.070   3.441  69.019  1.00  0.00    -0.049 A  
HETATM   16  C   UNL     1      -7.224   4.740  68.499  1.00  0.00    -0.061 A  
HETATM   17  I   UNL     1      -6.573   1.810  67.777  1.00  0.00    -0.028 I  
HETATM   18  N   UNL     1      -7.135   4.965  67.108  1.00  0.00    -0.065 NA 
HETATM   19  C   UNL     1      -7.699   5.746  69.380  1.00  0.00    -0.092 A  
HETATM   20  H1  UNL     1      -7.248   5.907  66.732  1.00  0.00     0.000 HD 
HETATM   21  I   UNL     1      -8.164   7.631  68.499  1.00  0.00    -0.125 I  
HETATM   22  H2  UNL     1      -7.802   4.351  66.640  1.00  0.00     0.000 HD 
ENDBRANCH   7  11
ENDBRANCH   3   7
TORSDOF 2
ENDMDL
MODEL      147
REMARK 921   NORMALIZED FREE ENERGY PREDICTED BY IDOCK:   -2.48 KCAL/MOL
REMARK 922        TOTAL FREE ENERGY PREDICTED BY IDOCK:   -2.87 KCAL/MOL
REMARK 923 INTER-LIGAND FREE ENERGY PREDICTED BY IDOCK:   -3.05 KCAL/MOL
REMARK 924 INTRA-LIGAND FREE ENERGY PREDICTED BY IDOCK:    0.18 KCAL/MOL
REMARK 927      BINDING AFFINITY PREDICTED BY RF-SCORE:    0.00 PKD
ROOT
HETATM    1  C   UNL     1      -9.545  10.284  64.622  1.00  0.00    -0.374 C  
HETATM    2  C   UNL     1     -10.663  11.286  64.866  1.00  0.00    -0.337 C  
HETATM    3  C   UNL     1     -10.561  12.050  66.205  1.00  0.00    -0.263 C  
HETATM    4  C   UNL     1     -10.653  12.313  63.754  1.00  0.00    -0.451 C  
HETATM    5  O   UNL     1      -9.728  13.085  63.552  1.00  0.00     0.197 OA 
HETATM    6  O   UNL     1     -11.763  12.301  62.988  1.00  0.00    -0.263 OA 
ENDROOT
BRANCH   3   7
HETATM    7  N   UNL     1     -10.686  11.226  67.432  1.00  0.00    -0.227 N  
HETATM    8  C   UNL     1     -11.649  11.607  68.381  1.00  0.00    -0.312 C  
HETATM    9  O   UNL     1     -12.409  12.563  68.215  1.00  0.00    -0.130 OA 
HETATM   10  C   UNL     1     -11.805  10.741  69.613  1.00  0.00    -0.392 C  
BRANCH   7  11
HETATM   11  C   UNL     1      -9.468  10.586  67.871  1.00  0.00    -0.147 A  
HETATM   12  C   UNL     1      -9.310   9.178  67.819  1.00  0.00    -0.136 A  
HETATM   13  I   UNL     1     -10.865   7.817  67.373  1.00  0.00     0.352 I  
HETATM   14  C   UNL     1      -8.071   8.589  68.076  1.00  0.00    -0.115 A  
HETATM   15  C   UNL     1      -6.981   9.373  68.445  1.00  0.00    -0.067 A  
HETATM   16  C   UNL     1      -7.111  10.763  68.628  1.00  0.00    -0.078 A  
HETATM   17  I   UNL     1      -5.135   8.393  68.727  1.00  0.00    -0.029 I  
HETATM   18  N   UNL     1      -5.976  11.551  68.921  1.00  0.00    -0.048 NA 
HETATM   19  C   UNL     1      -8.351  11.357  68.277  1.00  0.00    -0.152 A  
HETATM   20  H1  UNL     1      -6.071  12.559  69.053  1.00  0.00     0.000 HD 
HETATM   21  I   UNL     1      -8.424  13.487  68.323  1.00  0.00    -0.073 I  
HETATM   22  H2  UNL     1      -5.275  11.387  68.198  1.00  0.00     0.000 HD 
ENDBRANCH   7  11
ENDBRANCH   3   7
TORSDOF 2
ENDMDL
MODEL      148
REMARK 921   NORMALIZED FREE ENERGY PREDICTED BY IDOCK:   -2.48 KCAL/MOL
REMARK 922        TOTAL FREE ENERGY PREDICTED BY IDOCK:   -2.86 KCAL/MOL
REMARK 923 INTER-LIGAND FREE ENERGY PREDICTED BY IDOCK:   -2.83 KCAL/MOL
REMARK 924 INTRA-LIGAND FREE ENERGY PREDICTED BY IDOCK:   -0.03 KCAL/MOL
REMARK 927      BINDING AFFINITY PREDICTED BY RF-SCORE:    0.00 PKD
ROOT
HETATM    1  C   UNL     1      -9.477   6.219  66.500  1.00  0.00    -0.181 C  
HETATM    2  C   UNL     1      -9.011   7.667  66.507  1.00  0.00    -0.187 C  
HETATM    3  C   UNL     1      -8.242   8.089  67.778  1.00  0.00    -0.129 C  
HETATM    4  C   UNL     1      -8.094   7.893  65.324  1.00  0.00    -0.135 C  
HETATM    5  O   UNL     1      -7.018   7.333  65.183  1.00  0.00    -0.053 OA 
HETATM    6  O   UNL     1      -8.574   8.772  64.420  1.00  0.00    -0.164 OA 
ENDROOT
BRANCH   3   7
HETATM    7  N   UNL     1      -9.017   8.065  69.043  1.00  0.00    -0.145 N  
HETATM    8  C   UNL     1     -10.073   8.981  69.180  1.00  0.00    -0.195 C  
HETATM    9  O   UNL     1     -10.398   9.765  68.287  1.00  0.00    -0.179 OA 
HETATM   10  C   UNL     1     -10.891   8.927  70.453  1.00  0.00    -0.269 C  
BRANCH   7  11
HETATM   11  C   UNL     1      -8.277   7.651  70.211  1.00  0.00    -0.123 A  
HETATM   12  C   UNL     1      -7.281   8.478  70.791  1.00  0.00    -0.060 A  
HETATM   13  I   UNL     1      -6.549  10.257  69.916  1.00  0.00    -0.153 I  
HETATM   14  C   UNL     1      -6.702   8.146  72.017  1.00  0.00    -0.073 A  
HETATM   15  C   UNL     1      -7.053   6.964  72.665  1.00  0.00    -0.074 A  
HETATM   16  C   UNL     1      -7.947   6.048  72.078  1.00  0.00    -0.107 A  
HETATM   17  I   UNL     1      -6.185   6.600  74.551  1.00  0.00    -0.072 I  
HETATM   18  N   UNL     1      -8.354   4.897  72.787  1.00  0.00    -0.111 NA 
HETATM   19  C   UNL     1      -8.593   6.440  70.877  1.00  0.00    -0.135 A  
HETATM   20  H1  UNL     1      -9.002   4.233  72.361  1.00  0.00     0.000 HD 
HETATM   21  I   UNL     1     -10.125   5.142  70.160  1.00  0.00    -0.290 I  
HETATM   22  H2  UNL     1      -8.739   5.191  73.685  1.00  0.00     0.000 HD 
ENDBRANCH   7  11
ENDBRANCH   3   7
TORSDOF 2
ENDMDL
MODEL      149
REMARK 921   NORMALIZED FREE ENERGY PREDICTED BY IDOCK:   -2.45 KCAL/MOL
REMARK 922        TOTAL FREE ENERGY PREDICTED BY IDOCK:   -2.84 KCAL/MOL
REMARK 923 INTER-LIGAND FREE ENERGY PREDICTED BY IDOCK:   -3.13 KCAL/MOL
REMARK 924 INTRA-LIGAND FREE ENERGY PREDICTED BY IDOCK:    0.29 KCAL/MOL
REMARK 927      BINDING AFFINITY PREDICTED BY RF-SCORE:    0.00 PKD
ROOT
HETATM    1  C   UNL     1      -9.122   8.722  71.046  1.00  0.00    -0.272 C  
HETATM    2  C   UNL     1      -8.131   7.774  70.389  1.00  0.00    -0.115 C  
HETATM    3  C   UNL     1      -7.998   7.942  68.859  1.00  0.00    -0.123 C  
HETATM    4  C   UNL     1      -6.761   7.999  70.992  1.00  0.00    -0.041 C  
HETATM    5  O   UNL     1      -6.140   9.046  70.892  1.00  0.00    -0.038 OA 
HETATM    6  O   UNL     1      -6.279   6.936  71.668  1.00  0.00    -0.037 OA 
ENDROOT
BRANCH   3   7
HETATM    7  N   UNL     1      -9.212   7.632  68.065  1.00  0.00    -0.138 N  
HETATM    8  C   UNL     1      -9.882   6.427  68.337  1.00  0.00    -0.137 C  
HETATM    9  O   UNL     1      -9.525   5.650  69.224  1.00  0.00    -0.124 OA 
HETATM   10  C   UNL     1     -11.146   6.133  67.556  1.00  0.00    -0.318 C  
BRANCH   7  11
HETATM   11  C   UNL     1      -9.224   8.166  66.724  1.00  0.00    -0.164 A  
HETATM   12  C   UNL     1      -9.832   9.414  66.428  1.00  0.00    -0.269 A  
HETATM   13  I   UNL     1     -11.014  10.519  67.788  1.00  0.00    -0.262 I  
HETATM   14  C   UNL     1      -9.681  10.000  65.171  1.00  0.00    -0.380 A  
HETATM   15  C   UNL     1      -8.979   9.341  64.165  1.00  0.00    -0.081 A  
HETATM   16  C   UNL     1      -8.457   8.049  64.367  1.00  0.00     0.072 A  
HETATM   17  I   UNL     1      -8.737  10.352  62.331  1.00  0.00    -0.382 I  
HETATM   18  N   UNL     1      -7.677   7.432  63.364  1.00  0.00    -0.121 NA 
HETATM   19  C   UNL     1      -8.540   7.505  65.674  1.00  0.00    -0.114 A  
HETATM   20  H1  UNL     1      -7.299   6.495  63.510  1.00  0.00     0.000 HD 
HETATM   21  I   UNL     1      -7.516   5.664  65.999  1.00  0.00    -0.085 I  
HETATM   22  H2  UNL     1      -6.905   8.056  63.127  1.00  0.00     0.000 HD 
ENDBRANCH   7  11
ENDBRANCH   3   7
TORSDOF 2
ENDMDL
MODEL      150
REMARK 921   NORMALIZED FREE ENERGY PREDICTED BY IDOCK:   -2.43 KCAL/MOL
REMARK 922        TOTAL FREE ENERGY PREDICTED BY IDOCK:   -2.81 KCAL/MOL
REMARK 923 INTER-LIGAND FREE ENERGY PREDICTED BY IDOCK:   -2.81 KCAL/MOL
REMARK 924 INTRA-LIGAND FREE ENERGY PREDICTED BY IDOCK:    0.00 KCAL/MOL
REMARK 927      BINDING AFFINITY PREDICTED BY RF-SCORE:    0.00 PKD
ROOT
HETATM    1  C   UNL     1      -7.208   2.919  70.956  1.00  0.00    -0.033 C  
HETATM    2  C   UNL     1      -8.290   3.269  71.965  1.00  0.00    -0.074 C  
HETATM    3  C   UNL     1      -9.064   4.569  71.654  1.00  0.00    -0.131 C  
HETATM    4  C   UNL     1      -9.298   2.140  72.016  1.00  0.00    -0.096 C  
HETATM    5  O   UNL     1      -9.999   1.814  71.070  1.00  0.00    -0.085 OA 
HETATM    6  O   UNL     1      -9.354   1.510  73.207  1.00  0.00    -0.068 OA 
ENDROOT
BRANCH   3   7
HETATM    7  N   UNL     1      -8.269   5.820  71.689  1.00  0.00    -0.118 N  
HETATM    8  C   UNL     1      -7.636   6.160  72.897  1.00  0.00    -0.101 C  
HETATM    9  O   UNL     1      -7.685   5.447  73.900  1.00  0.00    -0.097 OA 
HETATM   10  C   UNL     1      -6.789   7.415  72.919  1.00  0.00    -0.065 C  
BRANCH   7  11
HETATM   11  C   UNL     1      -8.727   6.867  70.807  1.00  0.00    -0.145 A  
HETATM   12  C   UNL     1      -8.114   7.099  69.549  1.00  0.00    -0.130 A  
HETATM   13  I   UNL     1      -6.325   6.175  68.904  1.00  0.00    -0.046 I  
HETATM   14  C   UNL     1      -8.677   7.990  68.633  1.00  0.00    -0.131 A  
HETATM   15  C   UNL     1      -9.821   8.710  68.964  1.00  0.00    -0.182 A  
HETATM   16  C   UNL     1     -10.403   8.608  70.242  1.00  0.00    -0.198 A  
HETATM   17  I   UNL     1     -10.638   9.964  67.479  1.00  0.00    -0.239 I  
HETATM   18  N   UNL     1     -11.610   9.284  70.530  1.00  0.00    -0.373 NA 
HETATM   19  C   UNL     1      -9.874   7.635  71.128  1.00  0.00    -0.173 A  
HETATM   20  H1  UNL     1     -12.032   9.209  71.457  1.00  0.00     0.000 HD 
HETATM   21  I   UNL     1     -10.941   7.334  72.949  1.00  0.00    -0.328 I  
HETATM   22  H2  UNL     1     -12.306   9.007  69.838  1.00  0.00     0.000 HD 
ENDBRANCH   7  11
ENDBRANCH   3   7
TORSDOF 2
ENDMDL
MODEL      151
REMARK 921   NORMALIZED FREE ENERGY PREDICTED BY IDOCK:   -2.42 KCAL/MOL
REMARK 922        TOTAL FREE ENERGY PREDICTED BY IDOCK:   -2.80 KCAL/MOL
REMARK 923 INTER-LIGAND FREE ENERGY PREDICTED BY IDOCK:   -3.11 KCAL/MOL
REMARK 924 INTRA-LIGAND FREE ENERGY PREDICTED BY IDOCK:    0.32 KCAL/MOL
REMARK 927      BINDING AFFINITY PREDICTED BY RF-SCORE:    0.00 PKD
ROOT
HETATM    1  C   UNL     1      -9.835   6.424  71.490  1.00  0.00    -0.186 C  
HETATM    2  C   UNL     1     -10.584   7.684  71.084  1.00  0.00    -0.235 C  
HETATM    3  C   UNL     1     -10.645   7.933  69.561  1.00  0.00    -0.219 C  
HETATM    4  C   UNL     1     -12.008   7.593  71.589  1.00  0.00    -0.299 C  
HETATM    5  O   UNL     1     -12.808   6.750  71.213  1.00  0.00    -0.326 OA 
HETATM    6  O   UNL     1     -12.323   8.528  72.509  1.00  0.00    -0.388 OA 
ENDROOT
BRANCH   3   7
HETATM    7  N   UNL     1      -9.346   8.183  68.892  1.00  0.00    -0.147 N  
HETATM    8  C   UNL     1      -9.299   9.183  67.906  1.00  0.00    -0.137 C  
HETATM    9  O   UNL     1     -10.274   9.875  67.610  1.00  0.00    -0.182 OA 
HETATM   10  C   UNL     1      -7.962   9.467  67.254  1.00  0.00    -0.106 C  
BRANCH   7  11
HETATM   11  C   UNL     1      -8.478   7.034  68.783  1.00  0.00    -0.122 A  
HETATM   12  C   UNL     1      -7.298   6.919  69.562  1.00  0.00    -0.091 A  
HETATM   13  I   UNL     1      -6.500   8.470  70.757  1.00  0.00    -0.055 I  
HETATM   14  C   UNL     1      -6.567   5.730  69.580  1.00  0.00    -0.051 A  
HETATM   15  C   UNL     1      -6.954   4.654  68.785  1.00  0.00    -0.052 A  
HETATM   16  C   UNL     1      -8.047   4.755  67.902  1.00  0.00    -0.092 A  
HETATM   17  I   UNL     1      -5.831   2.877  68.949  1.00  0.00    -0.025 I  
HETATM   18  N   UNL     1      -8.473   3.626  67.167  1.00  0.00    -0.099 NA 
HETATM   19  C   UNL     1      -8.831   5.935  67.962  1.00  0.00    -0.109 A  
HETATM   20  H1  UNL     1      -9.265   3.699  66.528  1.00  0.00     0.000 HD 
HETATM   21  I   UNL     1     -10.619   5.941  66.801  1.00  0.00    -0.193 I  
HETATM   22  H2  UNL     1      -8.657   2.866  67.822  1.00  0.00     0.000 HD 
ENDBRANCH   7  11
ENDBRANCH   3   7
TORSDOF 2
ENDMDL
MODEL      152
REMARK 921   NORMALIZED FREE ENERGY PREDICTED BY IDOCK:   -2.41 KCAL/MOL
REMARK 922        TOTAL FREE ENERGY PREDICTED BY IDOCK:   -2.80 KCAL/MOL
REMARK 923 INTER-LIGAND FREE ENERGY PREDICTED BY IDOCK:   -2.84 KCAL/MOL
REMARK 924 INTRA-LIGAND FREE ENERGY PREDICTED BY IDOCK:    0.04 KCAL/MOL
REMARK 927      BINDING AFFINITY PREDICTED BY RF-SCORE:    0.00 PKD
ROOT
HETATM    1  C   UNL     1      -9.104  12.168  66.876  1.00  0.00    -0.203 C  
HETATM    2  C   UNL     1      -8.901  11.391  65.584  1.00  0.00    -0.080 C  
HETATM    3  C   UNL     1      -8.823   9.859  65.761  1.00  0.00    -0.147 C  
HETATM    4  C   UNL     1     -10.055  11.683  64.649  1.00  0.00    -0.262 C  
HETATM    5  O   UNL     1     -11.215  11.382  64.888  1.00  0.00    -0.224 OA 
HETATM    6  O   UNL     1      -9.694  12.321  63.516  1.00  0.00    -0.301 OA 
ENDROOT
BRANCH   3   7
HETATM    7  N   UNL     1      -7.669   9.355  66.545  1.00  0.00    -0.093 N  
HETATM    8  C   UNL     1      -6.379   9.697  66.105  1.00  0.00    -0.069 C  
HETATM    9  O   UNL     1      -6.177  10.421  65.129  1.00  0.00    -0.122 OA 
HETATM   10  C   UNL     1      -5.204   9.219  66.930  1.00  0.00    -0.035 C  
BRANCH   7  11
HETATM   11  C   UNL     1      -7.882   8.093  67.213  1.00  0.00    -0.105 A  
HETATM   12  C   UNL     1      -8.132   8.024  68.607  1.00  0.00    -0.125 A  
HETATM   13  I   UNL     1      -7.966   9.663  69.932  1.00  0.00    -0.202 I  
HETATM   14  C   UNL     1      -8.512   6.822  69.206  1.00  0.00    -0.129 A  
HETATM   15  C   UNL     1      -8.595   5.655  68.452  1.00  0.00    -0.111 A  
HETATM   16  C   UNL     1      -8.242   5.640  67.089  1.00  0.00    -0.101 A  
HETATM   17  I   UNL     1      -9.260   3.912  69.436  1.00  0.00    -0.244 I  
HETATM   18  N   UNL     1      -8.413   4.466  66.322  1.00  0.00    -0.112 NA 
HETATM   19  C   UNL     1      -7.945   6.884  66.475  1.00  0.00    -0.109 A  
HETATM   20  H1  UNL     1      -8.157   4.456  65.334  1.00  0.00     0.000 HD 
HETATM   21  I   UNL     1      -7.669   6.854  64.362  1.00  0.00    -0.066 I  
HETATM   22  H2  UNL     1      -9.384   4.166  66.406  1.00  0.00     0.000 HD 
ENDBRANCH   7  11
ENDBRANCH   3   7
TORSDOF 2
ENDMDL
MODEL      153
REMARK 921   NORMALIZED FREE ENERGY PREDICTED BY IDOCK:   -2.39 KCAL/MOL
REMARK 922        TOTAL FREE ENERGY PREDICTED BY IDOCK:   -2.77 KCAL/MOL
REMARK 923 INTER-LIGAND FREE ENERGY PREDICTED BY IDOCK:   -4.78 KCAL/MOL
REMARK 924 INTRA-LIGAND FREE ENERGY PREDICTED BY IDOCK:    2.01 KCAL/MOL
REMARK 927      BINDING AFFINITY PREDICTED BY RF-SCORE:    0.00 PKD
ROOT
HETATM    1  C   UNL     1     -11.500  12.203  65.408  1.00  0.00    -0.387 C  
HETATM    2  C   UNL     1      -9.993  12.016  65.491  1.00  0.00    -0.267 C  
HETATM    3  C   UNL     1      -9.428  11.971  66.927  1.00  0.00    -0.203 C  
HETATM    4  C   UNL     1      -9.622  10.714  64.813  1.00  0.00    -0.280 C  
HETATM    5  O   UNL     1      -9.986   9.617  65.208  1.00  0.00    -0.295 OA 
HETATM    6  O   UNL     1      -8.852  10.868  63.716  1.00  0.00    -0.154 OA 
ENDROOT
BRANCH   3   7
HETATM    7  N   UNL     1      -9.574  13.215  67.721  1.00  0.00    -0.201 N  
HETATM    8  C   UNL     1     -10.806  13.446  68.355  1.00  0.00    -0.264 C  
HETATM    9  O   UNL     1     -11.742  12.645  68.309  1.00  0.00    -0.308 OA 
HETATM   10  C   UNL     1     -10.940  14.694  69.202  1.00  0.00    -0.277 C  
BRANCH   7  11
HETATM   11  C   UNL     1      -8.790  14.336  67.260  1.00  0.00    -0.214 A  
HETATM   12  C   UNL     1      -9.347  15.337  66.423  1.00  0.00    -0.296 A  
HETATM   13  I   UNL     1     -11.255  15.214  65.522  1.00  0.00    -0.188 I  
HETATM   14  C   UNL     1      -8.635  16.501  66.132  1.00  0.00    -0.334 A  
HETATM   15  C   UNL     1      -7.339  16.674  66.613  1.00  0.00    -0.255 A  
HETATM   16  C   UNL     1      -6.694  15.662  67.349  1.00  0.00    -0.183 A  
HETATM   17  I   UNL     1      -6.385  18.505  66.188  1.00  0.00    -0.299 I  
HETATM   18  N   UNL     1      -5.412  15.889  67.898  1.00  0.00    -0.127 NA 
HETATM   19  C   UNL     1      -7.460  14.524  67.711  1.00  0.00    -0.169 A  
HETATM   20  H1  UNL     1      -4.945  15.155  68.431  1.00  0.00     0.000 HD 
HETATM   21  I   UNL     1      -6.527  13.139  69.037  1.00  0.00    -0.080 I  
HETATM   22  H2  UNL     1      -5.455  16.728  68.476  1.00  0.00     0.000 HD 
ENDBRANCH   7  11
ENDBRANCH   3   7
TORSDOF 2
ENDMDL
MODEL      154
REMARK 921   NORMALIZED FREE ENERGY PREDICTED BY IDOCK:   -2.39 KCAL/MOL
REMARK 922        TOTAL FREE ENERGY PREDICTED BY IDOCK:   -2.77 KCAL/MOL
REMARK 923 INTER-LIGAND FREE ENERGY PREDICTED BY IDOCK:   -2.82 KCAL/MOL
REMARK 924 INTRA-LIGAND FREE ENERGY PREDICTED BY IDOCK:    0.05 KCAL/MOL
REMARK 927      BINDING AFFINITY PREDICTED BY RF-SCORE:    0.00 PKD
ROOT
HETATM    1  C   UNL     1      -8.591   8.437  71.227  1.00  0.00    -0.198 C  
HETATM    2  C   UNL     1      -9.627   9.241  70.457  1.00  0.00    -0.317 C  
HETATM    3  C   UNL     1      -9.595   9.034  68.927  1.00  0.00    -0.156 C  
HETATM    4  C   UNL     1     -11.008   8.852  70.940  1.00  0.00    -0.266 C  
HETATM    5  O   UNL     1     -11.481   7.733  70.812  1.00  0.00    -0.280 OA 
HETATM    6  O   UNL     1     -11.681   9.856  71.541  1.00  0.00    -0.380 OA 
ENDROOT
BRANCH   3   7
HETATM    7  N   UNL     1      -8.362   9.484  68.237  1.00  0.00    -0.117 N  
HETATM    8  C   UNL     1      -7.985  10.829  68.382  1.00  0.00    -0.124 C  
HETATM    9  O   UNL     1      -8.611  11.627  69.081  1.00  0.00     0.102 OA 
HETATM   10  C   UNL     1      -6.702  11.277  67.714  1.00  0.00    -0.069 C  
BRANCH   7  11
HETATM   11  C   UNL     1      -8.050   8.784  67.013  1.00  0.00    -0.099 A  
HETATM   12  C   UNL     1      -8.594   9.190  65.767  1.00  0.00    -0.153 A  
HETATM   13  I   UNL     1     -10.106  10.650  65.544  1.00  0.00    -0.289 I  
HETATM   14  C   UNL     1      -8.147   8.622  64.574  1.00  0.00    -0.162 A  
HETATM   15  C   UNL     1      -7.198   7.602  64.591  1.00  0.00    -0.075 A  
HETATM   16  C   UNL     1      -6.712   7.078  65.805  1.00  0.00    -0.052 A  
HETATM   17  I   UNL     1      -6.529   6.872  62.730  1.00  0.00    -0.049 I  
HETATM   18  N   UNL     1      -5.690   6.103  65.800  1.00  0.00    -0.023 NA 
HETATM   19  C   UNL     1      -7.108   7.726  67.003  1.00  0.00    -0.085 A  
HETATM   20  H1  UNL     1      -5.338   5.724  66.680  1.00  0.00     0.000 HD 
HETATM   21  I   UNL     1      -6.153   7.068  68.792  1.00  0.00    -0.029 I  
HETATM   22  H2  UNL     1      -4.900   6.469  65.269  1.00  0.00     0.000 HD 
ENDBRANCH   7  11
ENDBRANCH   3   7
TORSDOF 2
ENDMDL
MODEL      155
REMARK 921   NORMALIZED FREE ENERGY PREDICTED BY IDOCK:   -2.39 KCAL/MOL
REMARK 922        TOTAL FREE ENERGY PREDICTED BY IDOCK:   -2.77 KCAL/MOL
REMARK 923 INTER-LIGAND FREE ENERGY PREDICTED BY IDOCK:   -2.79 KCAL/MOL
REMARK 924 INTRA-LIGAND FREE ENERGY PREDICTED BY IDOCK:    0.02 KCAL/MOL
REMARK 927      BINDING AFFINITY PREDICTED BY RF-SCORE:    0.00 PKD
ROOT
HETATM    1  C   UNL     1      -8.152   6.644  69.688  1.00  0.00    -0.126 C  
HETATM    2  C   UNL     1      -6.893   6.494  68.847  1.00  0.00    -0.069 C  
HETATM    3  C   UNL     1      -6.474   7.768  68.083  1.00  0.00    -0.054 C  
HETATM    4  C   UNL     1      -5.743   6.104  69.750  1.00  0.00    -0.013 C  
HETATM    5  O   UNL     1      -5.309   6.819  70.641  1.00  0.00    -0.022 OA 
HETATM    6  O   UNL     1      -5.234   4.882  69.493  1.00  0.00     0.000 OA 
ENDROOT
BRANCH   3   7
HETATM    7  N   UNL     1      -7.419   8.242  67.043  1.00  0.00    -0.087 N  
HETATM    8  C   UNL     1      -7.110   7.964  65.701  1.00  0.00    -0.056 C  
HETATM    9  O   UNL     1      -6.116   7.317  65.365  1.00  0.00    -0.036 OA 
HETATM   10  C   UNL     1      -8.097   8.409  64.643  1.00  0.00    -0.156 C  
BRANCH   7  11
HETATM   11  C   UNL     1      -8.144   9.447  67.371  1.00  0.00    -0.110 A  
HETATM   12  C   UNL     1      -7.507  10.714  67.388  1.00  0.00    -0.094 A  
HETATM   13  I   UNL     1      -5.421  11.005  67.215  1.00  0.00    -0.076 I  
HETATM   14  C   UNL     1      -8.252  11.886  67.530  1.00  0.00    -0.155 A  
HETATM   15  C   UNL     1      -9.631  11.825  67.716  1.00  0.00    -0.184 A  
HETATM   16  C   UNL     1     -10.299  10.591  67.828  1.00  0.00    -0.212 A  
HETATM   17  I   UNL     1     -10.673  13.655  67.834  1.00  0.00    -0.287 I  
HETATM   18  N   UNL     1     -11.707  10.550  67.934  1.00  0.00    -0.714 NA 
HETATM   19  C   UNL     1      -9.543   9.413  67.592  1.00  0.00    -0.134 A  
HETATM   20  H1  UNL     1     -12.190   9.655  68.014  1.00  0.00     0.000 HD 
HETATM   21  I   UNL     1     -10.639   7.586  67.516  1.00  0.00    -0.206 I  
HETATM   22  H2  UNL     1     -12.103  11.059  67.143  1.00  0.00     0.000 HD 
ENDBRANCH   7  11
ENDBRANCH   3   7
TORSDOF 2
ENDMDL
MODEL      156
REMARK 921   NORMALIZED FREE ENERGY PREDICTED BY IDOCK:   -2.31 KCAL/MOL
REMARK 922        TOTAL FREE ENERGY PREDICTED BY IDOCK:   -2.68 KCAL/MOL
REMARK 923 INTER-LIGAND FREE ENERGY PREDICTED BY IDOCK:   -2.67 KCAL/MOL
REMARK 924 INTRA-LIGAND FREE ENERGY PREDICTED BY IDOCK:   -0.02 KCAL/MOL
REMARK 927      BINDING AFFINITY PREDICTED BY RF-SCORE:    0.00 PKD
ROOT
HETATM    1  C   UNL     1      -8.972   6.448  65.711  1.00  0.00    -0.068 C  
HETATM    2  C   UNL     1      -8.347   5.063  65.765  1.00  0.00    -0.118 C  
HETATM    3  C   UNL     1      -8.356   4.408  67.164  1.00  0.00    -0.101 C  
HETATM    4  C   UNL     1      -9.103   4.146  64.828  1.00  0.00    -0.145 C  
HETATM    5  O   UNL     1     -10.278   3.846  64.975  1.00  0.00    -0.191 OA 
HETATM    6  O   UNL     1      -8.364   3.687  63.796  1.00  0.00    -0.089 OA 
ENDROOT
BRANCH   3   7
HETATM    7  N   UNL     1      -7.550   5.091  68.205  1.00  0.00    -0.079 N  
HETATM    8  C   UNL     1      -6.308   4.530  68.545  1.00  0.00    -0.036 C  
HETATM    9  O   UNL     1      -5.853   3.528  67.989  1.00  0.00    -0.024 OA 
HETATM   10  C   UNL     1      -5.467   5.253  69.576  1.00  0.00    -0.007 C  
BRANCH   7  11
HETATM   11  C   UNL     1      -8.311   5.796  69.208  1.00  0.00    -0.108 A  
HETATM   12  C   UNL     1      -8.387   7.213  69.224  1.00  0.00    -0.133 A  
HETATM   13  I   UNL     1      -7.221   8.484  68.001  1.00  0.00    -0.090 I  
HETATM   14  C   UNL     1      -9.265   7.872  70.085  1.00  0.00    -0.153 A  
HETATM   15  C   UNL     1     -10.042   7.149  70.987  1.00  0.00    -0.192 A  
HETATM   16  C   UNL     1      -9.920   5.751  71.098  1.00  0.00    -0.192 A  
HETATM   17  I   UNL     1     -11.397   8.235  72.183  1.00  0.00    -0.450 I  
HETATM   18  N   UNL     1     -10.776   5.028  71.959  1.00  0.00    -0.178 NA 
HETATM   19  C   UNL     1      -9.091   5.088  70.156  1.00  0.00    -0.120 A  
HETATM   20  H1  UNL     1     -10.687   4.015  72.038  1.00  0.00     0.000 HD 
HETATM   21  I   UNL     1      -9.135   2.957  70.193  1.00  0.00    -0.192 I  
HETATM   22  H2  UNL     1     -11.741   5.248  71.711  1.00  0.00     0.000 HD 
ENDBRANCH   7  11
ENDBRANCH   3   7
TORSDOF 2
ENDMDL
MODEL      157
REMARK 921   NORMALIZED FREE ENERGY PREDICTED BY IDOCK:   -2.29 KCAL/MOL
REMARK 922        TOTAL FREE ENERGY PREDICTED BY IDOCK:   -2.66 KCAL/MOL
REMARK 923 INTER-LIGAND FREE ENERGY PREDICTED BY IDOCK:   -2.57 KCAL/MOL
REMARK 924 INTRA-LIGAND FREE ENERGY PREDICTED BY IDOCK:   -0.09 KCAL/MOL
REMARK 927      BINDING AFFINITY PREDICTED BY RF-SCORE:    0.00 PKD
ROOT
HETATM    1  C   UNL     1      -9.347   5.821  73.147  1.00  0.00    -0.139 C  
HETATM    2  C   UNL     1      -9.946   6.875  72.228  1.00  0.00    -0.176 C  
HETATM    3  C   UNL     1      -9.691   6.637  70.724  1.00  0.00    -0.179 C  
HETATM    4  C   UNL     1     -11.445   6.911  72.436  1.00  0.00    -0.259 C  
HETATM    5  O   UNL     1     -12.188   5.975  72.184  1.00  0.00    -0.288 OA 
HETATM    6  O   UNL     1     -11.900   8.079  72.937  1.00  0.00    -0.337 OA 
ENDROOT
BRANCH   3   7
HETATM    7  N   UNL     1      -8.274   6.697  70.290  1.00  0.00    -0.124 N  
HETATM    8  C   UNL     1      -7.569   7.890  70.519  1.00  0.00    -0.081 C  
HETATM    9  O   UNL     1      -8.066   8.859  71.095  1.00  0.00    -0.147 OA 
HETATM   10  C   UNL     1      -6.110   7.935  70.115  1.00  0.00    -0.032 C  
BRANCH   7  11
HETATM   11  C   UNL     1      -7.947   5.887  69.140  1.00  0.00    -0.099 A  
HETATM   12  C   UNL     1      -8.266   6.305  67.822  1.00  0.00    -0.118 A  
HETATM   13  I   UNL     1      -9.470   7.979  67.360  1.00  0.00    -0.242 I  
HETATM   14  C   UNL     1      -7.788   5.603  66.715  1.00  0.00    -0.101 A  
HETATM   15  C   UNL     1      -7.036   4.443  66.887  1.00  0.00    -0.068 A  
HETATM   16  C   UNL     1      -6.791   3.917  68.170  1.00  0.00    -0.047 A  
HETATM   17  I   UNL     1      -6.291   3.507  65.151  1.00  0.00    -0.029 I  
HETATM   18  N   UNL     1      -5.957   2.787  68.327  1.00  0.00    -0.023 NA 
HETATM   19  C   UNL     1      -7.206   4.688  69.286  1.00  0.00    -0.052 A  
HETATM   20  H1  UNL     1      -5.779   2.406  69.257  1.00  0.00     0.000 HD 
HETATM   21  I   UNL     1      -6.590   3.985  71.202  1.00  0.00    -0.028 I  
HETATM   22  H2  UNL     1      -5.060   2.986  67.885  1.00  0.00     0.000 HD 
ENDBRANCH   7  11
ENDBRANCH   3   7
TORSDOF 2
ENDMDL
MODEL      158
REMARK 921   NORMALIZED FREE ENERGY PREDICTED BY IDOCK:   -2.29 KCAL/MOL
REMARK 922        TOTAL FREE ENERGY PREDICTED BY IDOCK:   -2.66 KCAL/MOL
REMARK 923 INTER-LIGAND FREE ENERGY PREDICTED BY IDOCK:   -2.59 KCAL/MOL
REMARK 924 INTRA-LIGAND FREE ENERGY PREDICTED BY IDOCK:   -0.07 KCAL/MOL
REMARK 927      BINDING AFFINITY PREDICTED BY RF-SCORE:    0.00 PKD
ROOT
HETATM    1  C   UNL     1      -8.758   6.701  65.831  1.00  0.00    -0.147 C  
HETATM    2  C   UNL     1      -8.355   5.235  65.874  1.00  0.00    -0.120 C  
HETATM    3  C   UNL     1      -8.524   4.561  67.253  1.00  0.00    -0.104 C  
HETATM    4  C   UNL     1      -9.202   4.464  64.883  1.00  0.00    -0.157 C  
HETATM    5  O   UNL     1     -10.415   4.346  64.976  1.00  0.00    -0.212 OA 
HETATM    6  O   UNL     1      -8.499   3.917  63.870  1.00  0.00    -0.091 OA 
ENDROOT
BRANCH   3   7
HETATM    7  N   UNL     1      -7.669   5.092  68.342  1.00  0.00    -0.079 N  
HETATM    8  C   UNL     1      -6.338   4.648  68.404  1.00  0.00    -0.036 C  
HETATM    9  O   UNL     1      -5.852   3.876  67.575  1.00  0.00    -0.021 OA 
HETATM   10  C   UNL     1      -5.453   5.223  69.490  1.00  0.00    -0.007 C  
BRANCH   7  11
HETATM   11  C   UNL     1      -8.364   5.430  69.562  1.00  0.00    -0.100 A  
HETATM   12  C   UNL     1      -8.886   4.430  70.421  1.00  0.00    -0.087 A  
HETATM   13  I   UNL     1      -8.976   2.373  69.942  1.00  0.00    -0.182 I  
HETATM   14  C   UNL     1      -9.394   4.762  71.678  1.00  0.00    -0.194 A  
HETATM   15  C   UNL     1      -9.450   6.092  72.086  1.00  0.00    -0.151 A  
HETATM   16  C   UNL     1      -9.057   7.136  71.226  1.00  0.00    -0.151 A  
HETATM   17  I   UNL     1     -10.156   6.478  74.035  1.00  0.00    -0.304 I  
HETATM   18  N   UNL     1      -9.043   8.471  71.688  1.00  0.00    -0.207 NA 
HETATM   19  C   UNL     1      -8.460   6.778  69.990  1.00  0.00    -0.140 A  
HETATM   20  H1  UNL     1      -8.757   9.227  71.065  1.00  0.00     0.000 HD 
HETATM   21  I   UNL     1      -7.647   8.375  68.835  1.00  0.00    -0.100 I  
HETATM   22  H2  UNL     1      -8.468   8.514  72.530  1.00  0.00     0.000 HD 
ENDBRANCH   7  11
ENDBRANCH   3   7
TORSDOF 2
ENDMDL
MODEL      159
REMARK 921   NORMALIZED FREE ENERGY PREDICTED BY IDOCK:   -2.27 KCAL/MOL
REMARK 922        TOTAL FREE ENERGY PREDICTED BY IDOCK:   -2.64 KCAL/MOL
REMARK 923 INTER-LIGAND FREE ENERGY PREDICTED BY IDOCK:   -2.66 KCAL/MOL
REMARK 924 INTRA-LIGAND FREE ENERGY PREDICTED BY IDOCK:    0.02 KCAL/MOL
REMARK 927      BINDING AFFINITY PREDICTED BY RF-SCORE:    0.00 PKD
ROOT
HETATM    1  C   UNL     1      -8.858   5.025  73.021  1.00  0.00    -0.116 C  
HETATM    2  C   UNL     1      -8.606   6.392  72.402  1.00  0.00    -0.120 C  
HETATM    3  C   UNL     1      -8.763   6.441  70.866  1.00  0.00    -0.136 C  
HETATM    4  C   UNL     1      -9.583   7.386  72.992  1.00  0.00    -0.194 C  
HETATM    5  O   UNL     1     -10.794   7.315  72.845  1.00  0.00    -0.278 OA 
HETATM    6  O   UNL     1      -9.000   8.367  73.711  1.00  0.00    -0.167 OA 
ENDROOT
BRANCH   3   7
HETATM    7  N   UNL     1      -7.796   5.627  70.089  1.00  0.00    -0.089 N  
HETATM    8  C   UNL     1      -6.431   5.777  70.382  1.00  0.00    -0.036 C  
HETATM    9  O   UNL     1      -6.016   6.520  71.275  1.00  0.00    -0.034 OA 
HETATM   10  C   UNL     1      -5.448   4.914  69.619  1.00  0.00    -0.008 C  
BRANCH   7  11
HETATM   11  C   UNL     1      -8.204   5.305  68.743  1.00  0.00    -0.089 A  
HETATM   12  C   UNL     1      -8.065   6.237  67.682  1.00  0.00    -0.117 A  
HETATM   13  I   UNL     1      -7.520   8.263  67.937  1.00  0.00    -0.100 I  
HETATM   14  C   UNL     1      -8.294   5.853  66.360  1.00  0.00    -0.114 A  
HETATM   15  C   UNL     1      -8.722   4.561  66.065  1.00  0.00    -0.115 A  
HETATM   16  C   UNL     1      -8.991   3.631  67.088  1.00  0.00    -0.145 A  
HETATM   17  I   UNL     1      -8.957   4.060  64.031  1.00  0.00    -0.143 I  
HETATM   18  N   UNL     1      -9.343   2.302  66.766  1.00  0.00    -0.370 NA 
HETATM   19  C   UNL     1      -8.668   4.006  68.417  1.00  0.00    -0.100 A  
HETATM   20  H1  UNL     1      -9.539   1.628  67.507  1.00  0.00     0.000 HD 
HETATM   21  I   UNL     1      -8.849   2.484  69.899  1.00  0.00    -0.188 I  
HETATM   22  H2  UNL     1      -8.617   1.914  66.162  1.00  0.00     0.000 HD 
ENDBRANCH   7  11
ENDBRANCH   3   7
TORSDOF 2
ENDMDL
MODEL      160
REMARK 921   NORMALIZED FREE ENERGY PREDICTED BY IDOCK:   -2.24 KCAL/MOL
REMARK 922        TOTAL FREE ENERGY PREDICTED BY IDOCK:   -2.60 KCAL/MOL
REMARK 923 INTER-LIGAND FREE ENERGY PREDICTED BY IDOCK:   -4.44 KCAL/MOL
REMARK 924 INTRA-LIGAND FREE ENERGY PREDICTED BY IDOCK:    1.84 KCAL/MOL
REMARK 927      BINDING AFFINITY PREDICTED BY RF-SCORE:    0.00 PKD
ROOT
HETATM    1  C   UNL     1     -10.401  10.224  65.330  1.00  0.00    -0.218 C  
HETATM    2  C   UNL     1     -10.892  11.620  65.679  1.00  0.00    -0.330 C  
HETATM    3  C   UNL     1      -9.793  12.583  66.179  1.00  0.00    -0.258 C  
HETATM    4  C   UNL     1     -11.519  12.242  64.449  1.00  0.00    -0.354 C  
HETATM    5  O   UNL     1     -10.900  12.493  63.427  1.00  0.00    -0.439 OA 
HETATM    6  O   UNL     1     -12.839  12.492  64.574  1.00  0.00    -0.701 OA 
ENDROOT
BRANCH   3   7
HETATM    7  N   UNL     1      -9.142  12.215  67.459  1.00  0.00    -0.174 N  
HETATM    8  C   UNL     1      -8.025  12.965  67.865  1.00  0.00    -0.156 C  
HETATM    9  O   UNL     1      -7.599  13.927  67.224  1.00  0.00    -0.160 OA 
HETATM   10  C   UNL     1      -7.388  12.617  69.194  1.00  0.00     0.134 C  
BRANCH   7  11
HETATM   11  C   UNL     1      -9.229  10.819  67.816  1.00  0.00    -0.152 A  
HETATM   12  C   UNL     1     -10.295  10.320  68.609  1.00  0.00    -0.184 A  
HETATM   13  I   UNL     1     -11.720  11.534  69.592  1.00  0.00    -0.414 I  
HETATM   14  C   UNL     1     -10.465   8.948  68.796  1.00  0.00    -0.223 A  
HETATM   15  C   UNL     1      -9.554   8.045  68.254  1.00  0.00    -0.146 A  
HETATM   16  C   UNL     1      -8.412   8.489  67.559  1.00  0.00    -0.128 A  
HETATM   17  I   UNL     1      -9.949   5.992  68.523  1.00  0.00    -0.241 I  
HETATM   18  N   UNL     1      -7.545   7.558  66.946  1.00  0.00    -0.100 NA 
HETATM   19  C   UNL     1      -8.301   9.880  67.301  1.00  0.00    -0.121 A  
HETATM   20  H1  UNL     1      -6.718   7.880  66.442  1.00  0.00     0.000 HD 
HETATM   21  I   UNL     1      -6.698  10.480  66.030  1.00  0.00    -0.078 I  
HETATM   22  H2  UNL     1      -8.096   6.972  66.317  1.00  0.00     0.000 HD 
ENDBRANCH   7  11
ENDBRANCH   3   7
TORSDOF 2
ENDMDL
MODEL      161
REMARK 921   NORMALIZED FREE ENERGY PREDICTED BY IDOCK:   -2.23 KCAL/MOL
REMARK 922        TOTAL FREE ENERGY PREDICTED BY IDOCK:   -2.59 KCAL/MOL
REMARK 923 INTER-LIGAND FREE ENERGY PREDICTED BY IDOCK:   -2.57 KCAL/MOL
REMARK 924 INTRA-LIGAND FREE ENERGY PREDICTED BY IDOCK:   -0.02 KCAL/MOL
REMARK 927      BINDING AFFINITY PREDICTED BY RF-SCORE:    0.00 PKD
ROOT
HETATM    1  C   UNL     1     -13.104  15.553  70.300  1.00  0.00    -0.033 C  
HETATM    2  C   UNL     1     -12.629  14.108  70.282  1.00  0.00    -0.367 C  
HETATM    3  C   UNL     1     -11.164  13.918  69.834  1.00  0.00    -0.032 C  
HETATM    4  C   UNL     1     -12.758  13.531  71.675  1.00  0.00    -0.287 C  
HETATM    5  O   UNL     1     -12.130  13.941  72.640  1.00  0.00     0.270 OA 
HETATM    6  O   UNL     1     -13.644  12.518  71.769  1.00  0.00    -0.276 OA 
ENDROOT
BRANCH   3   7
HETATM    7  N   UNL     1     -10.858  14.304  68.435  1.00  0.00    -0.246 N  
HETATM    8  C   UNL     1     -11.468  13.569  67.405  1.00  0.00    -0.336 C  
HETATM    9  O   UNL     1     -12.266  12.655  67.619  1.00  0.00    -0.367 OA 
HETATM   10  C   UNL     1     -11.190  13.992  65.978  1.00  0.00    -0.310 C  
BRANCH   7  11
HETATM   11  C   UNL     1      -9.547  14.871  68.224  1.00  0.00    -0.214 A  
HETATM   12  C   UNL     1      -8.401  14.052  68.066  1.00  0.00    -0.163 A  
HETATM   13  I   UNL     1      -8.376  11.961  68.377  1.00  0.00    -0.032 I  
HETATM   14  C   UNL     1      -7.176  14.603  67.686  1.00  0.00    -0.206 A  
HETATM   15  C   UNL     1      -7.046  15.978  67.513  1.00  0.00    -0.171 A  
HETATM   16  C   UNL     1      -8.120  16.851  67.773  1.00  0.00    -0.181 A  
HETATM   17  I   UNL     1      -5.176  16.698  66.856  1.00  0.00     0.271 I  
HETATM   18  N   UNL     1      -7.992  18.233  67.512  1.00  0.00    -0.230 NA 
HETATM   19  C   UNL     1      -9.379  16.270  68.070  1.00  0.00    -0.214 A  
HETATM   20  H1  UNL     1      -8.771  18.865  67.700  1.00  0.00     0.000 HD 
HETATM   21  I   UNL     1     -11.031  17.612  68.203  1.00  0.00     0.557 I  
HETATM   22  H2  UNL     1      -7.711  18.352  66.538  1.00  0.00     0.000 HD 
ENDBRANCH   7  11
ENDBRANCH   3   7
TORSDOF 2
ENDMDL
MODEL      162
REMARK 921   NORMALIZED FREE ENERGY PREDICTED BY IDOCK:   -2.21 KCAL/MOL
REMARK 922        TOTAL FREE ENERGY PREDICTED BY IDOCK:   -2.57 KCAL/MOL
REMARK 923 INTER-LIGAND FREE ENERGY PREDICTED BY IDOCK:   -2.59 KCAL/MOL
REMARK 924 INTRA-LIGAND FREE ENERGY PREDICTED BY IDOCK:    0.02 KCAL/MOL
REMARK 927      BINDING AFFINITY PREDICTED BY RF-SCORE:    0.00 PKD
ROOT
HETATM    1  C   UNL     1      -8.332   6.696  70.285  1.00  0.00    -0.134 C  
HETATM    2  C   UNL     1      -7.043   6.328  69.565  1.00  0.00    -0.073 C  
HETATM    3  C   UNL     1      -6.562   7.371  68.533  1.00  0.00    -0.049 C  
HETATM    4  C   UNL     1      -5.941   6.158  70.589  1.00  0.00    -0.026 C  
HETATM    5  O   UNL     1      -5.528   7.063  71.298  1.00  0.00    -0.027 OA 
HETATM    6  O   UNL     1      -5.451   4.903  70.662  1.00  0.00    -0.007 OA 
ENDROOT
BRANCH   3   7
HETATM    7  N   UNL     1      -7.452   7.587  67.366  1.00  0.00    -0.101 N  
HETATM    8  C   UNL     1      -6.994   7.163  66.108  1.00  0.00    -0.065 C  
HETATM    9  O   UNL     1      -5.914   6.591  65.947  1.00  0.00    -0.027 OA 
HETATM   10  C   UNL     1      -7.921   7.343  64.924  1.00  0.00    -0.128 C  
BRANCH   7  11
HETATM   11  C   UNL     1      -8.320   8.736  67.458  1.00  0.00    -0.109 A  
HETATM   12  C   UNL     1      -9.720   8.596  67.639  1.00  0.00    -0.159 A  
HETATM   13  I   UNL     1     -10.760   6.759  67.529  1.00  0.00    -0.391 I  
HETATM   14  C   UNL     1     -10.521   9.708  67.904  1.00  0.00    -0.296 A  
HETATM   15  C   UNL     1      -9.965  10.984  67.938  1.00  0.00    -0.174 A  
HETATM   16  C   UNL     1      -8.603  11.195  67.648  1.00  0.00    -0.126 A  
HETATM   17  I   UNL     1     -11.246  12.585  68.431  1.00  0.00    -0.404 I  
HETATM   18  N   UNL     1      -8.041  12.485  67.769  1.00  0.00    -0.151 NA 
HETATM   19  C   UNL     1      -7.786  10.049  67.469  1.00  0.00    -0.095 A  
HETATM   20  H1  UNL     1      -7.054  12.637  67.559  1.00  0.00     0.000 HD 
HETATM   21  I   UNL     1      -5.691  10.400  67.288  1.00  0.00    -0.044 I  
HETATM   22  H2  UNL     1      -8.225  12.829  68.712  1.00  0.00     0.000 HD 
ENDBRANCH   7  11
ENDBRANCH   3   7
TORSDOF 2
ENDMDL
MODEL      163
REMARK 921   NORMALIZED FREE ENERGY PREDICTED BY IDOCK:   -2.17 KCAL/MOL
REMARK 922        TOTAL FREE ENERGY PREDICTED BY IDOCK:   -2.52 KCAL/MOL
REMARK 923 INTER-LIGAND FREE ENERGY PREDICTED BY IDOCK:   -4.38 KCAL/MOL
REMARK 924 INTRA-LIGAND FREE ENERGY PREDICTED BY IDOCK:    1.86 KCAL/MOL
REMARK 927      BINDING AFFINITY PREDICTED BY RF-SCORE:    0.00 PKD
ROOT
HETATM    1  C   UNL     1      -7.799   7.859  71.313  1.00  0.00    -0.088 C  
HETATM    2  C   UNL     1      -8.368   8.422  70.020  1.00  0.00    -0.123 C  
HETATM    3  C   UNL     1      -9.827   8.916  70.121  1.00  0.00    -0.178 C  
HETATM    4  C   UNL     1      -7.519   9.596  69.581  1.00  0.00    -0.102 C  
HETATM    5  O   UNL     1      -7.407  10.630  70.222  1.00  0.00    -0.167 OA 
HETATM    6  O   UNL     1      -6.879   9.401  68.409  1.00  0.00    -0.062 OA 
ENDROOT
BRANCH   3   7
HETATM    7  N   UNL     1     -10.844   7.877  70.414  1.00  0.00    -0.242 N  
HETATM    8  C   UNL     1     -11.959   8.251  71.183  1.00  0.00    -0.265 C  
HETATM    9  O   UNL     1     -12.138   9.403  71.583  1.00  0.00    -0.341 OA 
HETATM   10  C   UNL     1     -13.018   7.202  71.445  1.00  0.00    -0.419 C  
BRANCH   7  11
HETATM   11  C   UNL     1     -10.339   6.528  70.503  1.00  0.00    -0.201 A  
HETATM   12  C   UNL     1     -10.092   5.908  71.755  1.00  0.00    -0.187 A  
HETATM   13  I   UNL     1     -10.153   6.910  73.615  1.00  0.00    -0.397 I  
HETATM   14  C   UNL     1      -9.776   4.551  71.830  1.00  0.00    -0.235 A  
HETATM   15  C   UNL     1      -9.642   3.794  70.669  1.00  0.00    -0.189 A  
HETATM   16  C   UNL     1      -9.759   4.383  69.396  1.00  0.00    -0.197 A  
HETATM   17  I   UNL     1      -9.248   1.735  70.897  1.00  0.00    -0.180 I  
HETATM   18  N   UNL     1      -9.702   3.583  68.233  1.00  0.00    -0.078 NA 
HETATM   19  C   UNL     1     -10.167   5.740  69.337  1.00  0.00    -0.234 A  
HETATM   20  H1  UNL     1      -9.787   4.011  67.311  1.00  0.00     0.000 HD 
HETATM   21  I   UNL     1     -10.581   6.520  67.396  1.00  0.00    -0.493 I  
HETATM   22  H2  UNL     1     -10.407   2.849  68.313  1.00  0.00     0.000 HD 
ENDBRANCH   7  11
ENDBRANCH   3   7
TORSDOF 2
ENDMDL
MODEL      164
REMARK 921   NORMALIZED FREE ENERGY PREDICTED BY IDOCK:   -2.15 KCAL/MOL
REMARK 922        TOTAL FREE ENERGY PREDICTED BY IDOCK:   -2.50 KCAL/MOL
REMARK 923 INTER-LIGAND FREE ENERGY PREDICTED BY IDOCK:   -2.57 KCAL/MOL
REMARK 924 INTRA-LIGAND FREE ENERGY PREDICTED BY IDOCK:    0.07 KCAL/MOL
REMARK 927      BINDING AFFINITY PREDICTED BY RF-SCORE:    0.00 PKD
ROOT
HETATM    1  C   UNL     1      -8.574   8.589  72.845  1.00  0.00    -0.141 C  
HETATM    2  C   UNL     1      -7.952   7.218  72.629  1.00  0.00    -0.111 C  
HETATM    3  C   UNL     1      -7.691   6.856  71.150  1.00  0.00    -0.089 C  
HETATM    4  C   UNL     1      -6.623   7.163  73.353  1.00  0.00    -0.065 C  
HETATM    5  O   UNL     1      -5.667   7.868  73.070  1.00  0.00    -0.044 OA 
HETATM    6  O   UNL     1      -6.584   6.262  74.357  1.00  0.00    -0.074 OA 
ENDROOT
BRANCH   3   7
HETATM    7  N   UNL     1      -8.893   6.727  70.292  1.00  0.00    -0.151 N  
HETATM    8  C   UNL     1      -9.886   5.816  70.690  1.00  0.00    -0.187 C  
HETATM    9  O   UNL     1      -9.813   5.160  71.731  1.00  0.00    -0.162 OA 
HETATM   10  C   UNL     1     -11.134   5.717  69.837  1.00  0.00    -0.327 C  
BRANCH   7  11
HETATM   11  C   UNL     1      -8.677   6.975  68.887  1.00  0.00    -0.131 A  
HETATM   12  C   UNL     1      -9.091   8.186  68.274  1.00  0.00    -0.135 A  
HETATM   13  I   UNL     1     -10.292   9.649  69.215  1.00  0.00    -0.278 I  
HETATM   14  C   UNL     1      -8.719   8.487  66.964  1.00  0.00    -0.132 A  
HETATM   15  C   UNL     1      -7.981   7.574  66.214  1.00  0.00    -0.109 A  
HETATM   16  C   UNL     1      -7.645   6.308  66.730  1.00  0.00    -0.099 A  
HETATM   17  I   UNL     1      -7.398   8.163  64.275  1.00  0.00    -0.114 I  
HETATM   18  N   UNL     1      -6.826   5.430  65.986  1.00  0.00    -0.057 NA 
HETATM   19  C   UNL     1      -7.952   6.053  68.091  1.00  0.00    -0.110 A  
HETATM   20  H1  UNL     1      -6.583   4.513  66.360  1.00  0.00     0.000 HD 
HETATM   21  I   UNL     1      -7.201   4.231  68.904  1.00  0.00    -0.055 I  
HETATM   22  H2  UNL     1      -5.963   5.920  65.749  1.00  0.00     0.000 HD 
ENDBRANCH   7  11
ENDBRANCH   3   7
TORSDOF 2
ENDMDL
MODEL      165
REMARK 921   NORMALIZED FREE ENERGY PREDICTED BY IDOCK:   -2.13 KCAL/MOL
REMARK 922        TOTAL FREE ENERGY PREDICTED BY IDOCK:   -2.48 KCAL/MOL
REMARK 923 INTER-LIGAND FREE ENERGY PREDICTED BY IDOCK:   -5.69 KCAL/MOL
REMARK 924 INTRA-LIGAND FREE ENERGY PREDICTED BY IDOCK:    3.20 KCAL/MOL
REMARK 927      BINDING AFFINITY PREDICTED BY RF-SCORE:    0.00 PKD
ROOT
HETATM    1  C   UNL     1     -11.110  14.259  69.507  1.00  0.00    -0.244 C  
HETATM    2  C   UNL     1     -10.945  15.684  70.012  1.00  0.00    -0.336 C  
HETATM    3  C   UNL     1     -11.119  16.773  68.931  1.00  0.00    -0.194 C  
HETATM    4  C   UNL     1     -11.973  15.945  71.091  1.00  0.00    -0.427 C  
HETATM    5  O   UNL     1     -13.179  15.936  70.896  1.00  0.00    -0.516 OA 
HETATM    6  O   UNL     1     -11.441  16.184  72.308  1.00  0.00    -0.363 OA 
ENDROOT
BRANCH   3   7
HETATM    7  N   UNL     1     -10.114  16.771  67.840  1.00  0.00    -0.274 N  
HETATM    8  C   UNL     1      -9.955  15.588  67.099  1.00  0.00    -0.242 C  
HETATM    9  O   UNL     1     -10.638  14.581  67.294  1.00  0.00    -0.274 OA 
HETATM   10  C   UNL     1      -8.960  15.601  65.958  1.00  0.00    -0.297 C  
BRANCH   7  11
HETATM   11  C   UNL     1      -8.980  17.640  68.046  1.00  0.00    -0.264 A  
HETATM   12  C   UNL     1      -9.028  19.017  67.707  1.00  0.00    -0.293 A  
HETATM   13  I   UNL     1     -10.604  19.927  66.632  1.00  0.00    -0.126 I  
HETATM   14  C   UNL     1      -7.994  19.879  68.075  1.00  0.00    -0.314 A  
HETATM   15  C   UNL     1      -6.868  19.389  68.731  1.00  0.00    -0.319 A  
HETATM   16  C   UNL     1      -6.713  18.013  68.986  1.00  0.00    -0.251 A  
HETATM   17  I   UNL     1      -5.404  20.790  69.317  1.00  0.00    -0.317 I  
HETATM   18  N   UNL     1      -5.604  17.547  69.726  1.00  0.00    -0.214 NA 
HETATM   19  C   UNL     1      -7.809  17.164  68.688  1.00  0.00    -0.265 A  
HETATM   20  H1  UNL     1      -5.492  16.550  69.911  1.00  0.00     0.000 HD 
HETATM   21  I   UNL     1      -7.635  15.137  69.324  1.00  0.00    -0.156 I  
HETATM   22  H2  UNL     1      -5.580  18.044  70.617  1.00  0.00     0.000 HD 
ENDBRANCH   7  11
ENDBRANCH   3   7
TORSDOF 2
ENDMDL
MODEL      166
REMARK 921   NORMALIZED FREE ENERGY PREDICTED BY IDOCK:   -2.11 KCAL/MOL
REMARK 922        TOTAL FREE ENERGY PREDICTED BY IDOCK:   -2.45 KCAL/MOL
REMARK 923 INTER-LIGAND FREE ENERGY PREDICTED BY IDOCK:   -2.37 KCAL/MOL
REMARK 924 INTRA-LIGAND FREE ENERGY PREDICTED BY IDOCK:   -0.08 KCAL/MOL
REMARK 927      BINDING AFFINITY PREDICTED BY RF-SCORE:    0.00 PKD
ROOT
HETATM    1  C   UNL     1      -9.148   6.440  65.659  1.00  0.00     0.038 C  
HETATM    2  C   UNL     1      -8.650   5.026  65.404  1.00  0.00    -0.143 C  
HETATM    3  C   UNL     1      -8.645   4.112  66.649  1.00  0.00    -0.112 C  
HETATM    4  C   UNL     1      -9.534   4.374  64.363  1.00  0.00    -0.116 C  
HETATM    5  O   UNL     1     -10.722   4.145  64.530  1.00  0.00    -0.251 OA 
HETATM    6  O   UNL     1      -8.895   4.070  63.215  1.00  0.00    -0.101 OA 
ENDROOT
BRANCH   3   7
HETATM    7  N   UNL     1      -7.728   4.511  67.744  1.00  0.00    -0.081 N  
HETATM    8  C   UNL     1      -6.372   4.163  67.621  1.00  0.00    -0.037 C  
HETATM    9  O   UNL     1      -5.919   3.581  66.635  1.00  0.00    -0.023 OA 
HETATM   10  C   UNL     1      -5.429   4.609  68.718  1.00  0.00    -0.012 C  
BRANCH   7  11
HETATM   11  C   UNL     1      -8.328   4.586  69.054  1.00  0.00    -0.079 A  
HETATM   12  C   UNL     1      -8.655   5.831  69.651  1.00  0.00    -0.116 A  
HETATM   13  I   UNL     1      -8.085   7.713  68.875  1.00  0.00    -0.129 I  
HETATM   14  C   UNL     1      -9.394   5.884  70.834  1.00  0.00    -0.180 A  
HETATM   15  C   UNL     1      -9.774   4.710  71.480  1.00  0.00    -0.175 A  
HETATM   16  C   UNL     1      -9.376   3.449  70.996  1.00  0.00    -0.142 A  
HETATM   17  I   UNL     1     -10.961   4.900  73.212  1.00  0.00    -0.386 I  
HETATM   18  N   UNL     1      -9.841   2.269  71.617  1.00  0.00    -0.154 NA 
HETATM   19  C   UNL     1      -8.703   3.408  69.748  1.00  0.00    -0.077 A  
HETATM   20  H1  UNL     1      -9.552   1.355  71.266  1.00  0.00     0.000 HD 
HETATM   21  I   UNL     1      -8.346   1.473  68.929  1.00  0.00    -0.095 I  
HETATM   22  H2  UNL     1     -10.861   2.297  71.638  1.00  0.00     0.000 HD 
ENDBRANCH   7  11
ENDBRANCH   3   7
TORSDOF 2
ENDMDL
MODEL      167
REMARK 921   NORMALIZED FREE ENERGY PREDICTED BY IDOCK:   -2.08 KCAL/MOL
REMARK 922        TOTAL FREE ENERGY PREDICTED BY IDOCK:   -2.43 KCAL/MOL
REMARK 923 INTER-LIGAND FREE ENERGY PREDICTED BY IDOCK:   -2.66 KCAL/MOL
REMARK 924 INTRA-LIGAND FREE ENERGY PREDICTED BY IDOCK:    0.24 KCAL/MOL
REMARK 927      BINDING AFFINITY PREDICTED BY RF-SCORE:    0.00 PKD
ROOT
HETATM    1  C   UNL     1      -9.002   6.272  65.577  1.00  0.00     0.016 C  
HETATM    2  C   UNL     1      -8.727   6.635  67.028  1.00  0.00    -0.113 C  
HETATM    3  C   UNL     1      -8.863   8.139  67.352  1.00  0.00    -0.127 C  
HETATM    4  C   UNL     1      -9.701   5.889  67.914  1.00  0.00    -0.119 C  
HETATM    5  O   UNL     1     -10.910   6.059  67.887  1.00  0.00    -0.283 OA 
HETATM    6  O   UNL     1      -9.116   5.000  68.744  1.00  0.00    -0.103 OA 
ENDROOT
BRANCH   3   7
HETATM    7  N   UNL     1      -7.895   9.038  66.677  1.00  0.00    -0.099 N  
HETATM    8  C   UNL     1      -6.536   8.681  66.713  1.00  0.00    -0.061 C  
HETATM    9  O   UNL     1      -6.131   7.645  67.243  1.00  0.00    -0.045 OA 
HETATM   10  C   UNL     1      -5.554   9.576  65.986  1.00  0.00    -0.048 C  
BRANCH   7  11
HETATM   11  C   UNL     1      -8.264  10.433  66.650  1.00  0.00    -0.128 A  
HETATM   12  C   UNL     1      -8.783  11.041  65.478  1.00  0.00    -0.138 A  
HETATM   13  I   UNL     1      -8.836  10.117  63.578  1.00  0.00    -0.317 I  
HETATM   14  C   UNL     1      -9.301  12.336  65.515  1.00  0.00     0.057 A  
HETATM   15  C   UNL     1      -9.264  13.076  66.694  1.00  0.00    -0.219 A  
HETATM   16  C   UNL     1      -8.654  12.567  67.857  1.00  0.00    -0.179 A  
HETATM   17  I   UNL     1     -10.150  14.989  66.664  1.00  0.00    -0.318 I  
HETATM   18  N   UNL     1      -8.701  13.298  69.064  1.00  0.00    -0.275 NA 
HETATM   19  C   UNL     1      -8.213  11.219  67.828  1.00  0.00    -0.120 A  
HETATM   20  H1  UNL     1      -8.258  12.929  69.906  1.00  0.00     0.000 HD 
HETATM   21  I   UNL     1      -7.532  10.408  69.679  1.00  0.00    -0.042 I  
HETATM   22  H2  UNL     1      -9.677  13.504  69.278  1.00  0.00     0.000 HD 
ENDBRANCH   7  11
ENDBRANCH   3   7
TORSDOF 2
ENDMDL
MODEL      168
REMARK 921   NORMALIZED FREE ENERGY PREDICTED BY IDOCK:   -2.05 KCAL/MOL
REMARK 922        TOTAL FREE ENERGY PREDICTED BY IDOCK:   -2.39 KCAL/MOL
REMARK 923 INTER-LIGAND FREE ENERGY PREDICTED BY IDOCK:   -3.89 KCAL/MOL
REMARK 924 INTRA-LIGAND FREE ENERGY PREDICTED BY IDOCK:    1.50 KCAL/MOL
REMARK 927      BINDING AFFINITY PREDICTED BY RF-SCORE:    0.00 PKD
ROOT
HETATM    1  C   UNL     1      -7.601  13.435  67.133  1.00  0.00     0.030 C  
HETATM    2  C   UNL     1      -8.734  14.278  67.696  1.00  0.00    -0.192 C  
HETATM    3  C   UNL     1      -9.677  13.527  68.661  1.00  0.00    -0.101 C  
HETATM    4  C   UNL     1      -8.145  15.449  68.453  1.00  0.00    -0.140 C  
HETATM    5  O   UNL     1      -7.460  15.332  69.458  1.00  0.00    -0.199 OA 
HETATM    6  O   UNL     1      -8.436  16.652  67.915  1.00  0.00    -0.188 OA 
ENDROOT
BRANCH   3   7
HETATM    7  N   UNL     1     -10.458  12.414  68.070  1.00  0.00    -0.211 N  
HETATM    8  C   UNL     1     -11.076  11.509  68.948  1.00  0.00    -0.232 C  
HETATM    9  O   UNL     1     -11.025  11.627  70.174  1.00  0.00     0.117 OA 
HETATM   10  C   UNL     1     -11.910  10.399  68.344  1.00  0.00     0.172 C  
BRANCH   7  11
HETATM   11  C   UNL     1      -9.996  11.954  66.782  1.00  0.00    -0.195 A  
HETATM   12  C   UNL     1      -9.068  10.888  66.664  1.00  0.00    -0.162 A  
HETATM   13  I   UNL     1      -8.037  10.017  68.291  1.00  0.00    -0.111 I  
HETATM   14  C   UNL     1      -8.768  10.336  65.417  1.00  0.00    -0.183 A  
HETATM   15  C   UNL     1      -9.334  10.864  64.259  1.00  0.00    -0.228 A  
HETATM   16  C   UNL     1     -10.168  11.997  64.306  1.00  0.00    -0.318 A  
HETATM   17  I   UNL     1      -8.882   9.904  62.437  1.00  0.00    -0.341 I  
HETATM   18  N   UNL     1     -10.798  12.467  63.132  1.00  0.00    -0.662 NA 
HETATM   19  C   UNL     1     -10.534  12.490  65.585  1.00  0.00    -0.273 A  
HETATM   20  H1  UNL     1     -11.403  13.288  63.166  1.00  0.00     0.000 HD 
HETATM   21  I   UNL     1     -11.997  14.040  65.618  1.00  0.00    -0.475 I  
HETATM   22  H2  UNL     1     -11.325  11.696  62.720  1.00  0.00     0.000 HD 
ENDBRANCH   7  11
ENDBRANCH   3   7
TORSDOF 2
ENDMDL
MODEL      169
REMARK 921   NORMALIZED FREE ENERGY PREDICTED BY IDOCK:   -2.02 KCAL/MOL
REMARK 922        TOTAL FREE ENERGY PREDICTED BY IDOCK:   -2.36 KCAL/MOL
REMARK 923 INTER-LIGAND FREE ENERGY PREDICTED BY IDOCK:   -3.00 KCAL/MOL
REMARK 924 INTRA-LIGAND FREE ENERGY PREDICTED BY IDOCK:    0.64 KCAL/MOL
REMARK 927      BINDING AFFINITY PREDICTED BY RF-SCORE:    0.00 PKD
ROOT
HETATM    1  C   UNL     1     -10.859  18.540  67.121  1.00  0.00    -0.304 C  
HETATM    2  C   UNL     1     -10.235  18.929  68.452  1.00  0.00    -0.433 C  
HETATM    3  C   UNL     1      -8.816  18.366  68.687  1.00  0.00    -0.283 C  
HETATM    4  C   UNL     1     -10.144  20.438  68.530  1.00  0.00    -0.031 C  
HETATM    5  O   UNL     1      -9.460  21.116  67.778  1.00  0.00    -0.116 OA 
HETATM    6  O   UNL     1     -10.899  20.982  69.507  1.00  0.00     0.506 OA 
ENDROOT
BRANCH   3   7
HETATM    7  N   UNL     1      -8.712  16.889  68.779  1.00  0.00    -0.260 N  
HETATM    8  C   UNL     1      -7.551  16.350  69.359  1.00  0.00    -0.098 C  
HETATM    9  O   UNL     1      -6.649  17.050  69.822  1.00  0.00    -0.199 OA 
HETATM   10  C   UNL     1      -7.465  14.844  69.493  1.00  0.00    -0.162 C  
BRANCH   7  11
HETATM   11  C   UNL     1      -9.393  16.157  67.738  1.00  0.00    -0.211 A  
HETATM   12  C   UNL     1      -8.878  16.090  66.418  1.00  0.00    -0.328 A  
HETATM   13  I   UNL     1      -7.244  17.231  65.715  1.00  0.00     1.319 I  
HETATM   14  C   UNL     1      -9.447  15.236  65.472  1.00  0.00    -0.141 A  
HETATM   15  C   UNL     1     -10.570  14.478  65.793  1.00  0.00    -0.317 A  
HETATM   16  C   UNL     1     -11.195  14.595  67.049  1.00  0.00    -0.344 A  
HETATM   17  I   UNL     1     -11.299  13.158  64.319  1.00  0.00    -0.448 I  
HETATM   18  N   UNL     1     -12.282  13.757  67.384  1.00  0.00    -0.438 NA 
HETATM   19  C   UNL     1     -10.554  15.397  68.028  1.00  0.00    -0.263 A  
HETATM   20  H1  UNL     1     -12.734  13.842  68.295  1.00  0.00     0.000 HD 
HETATM   21  I   UNL     1     -11.389  15.343  69.989  1.00  0.00    -0.445 I  
HETATM   22  H2  UNL     1     -11.990  12.787  67.259  1.00  0.00     0.000 HD 
ENDBRANCH   7  11
ENDBRANCH   3   7
TORSDOF 2
ENDMDL
MODEL      170
REMARK 921   NORMALIZED FREE ENERGY PREDICTED BY IDOCK:   -2.02 KCAL/MOL
REMARK 922        TOTAL FREE ENERGY PREDICTED BY IDOCK:   -2.36 KCAL/MOL
REMARK 923 INTER-LIGAND FREE ENERGY PREDICTED BY IDOCK:   -2.32 KCAL/MOL
REMARK 924 INTRA-LIGAND FREE ENERGY PREDICTED BY IDOCK:   -0.03 KCAL/MOL
REMARK 927      BINDING AFFINITY PREDICTED BY RF-SCORE:    0.00 PKD
ROOT
HETATM    1  C   UNL     1     -12.165  15.551  69.368  1.00  0.00    -0.233 C  
HETATM    2  C   UNL     1     -11.629  14.274  69.998  1.00  0.00    -0.325 C  
HETATM    3  C   UNL     1     -10.092  14.130  69.949  1.00  0.00     0.767 C  
HETATM    4  C   UNL     1     -12.045  14.232  71.453  1.00  0.00    -0.279 C  
HETATM    5  O   UNL     1     -11.674  15.043  72.288  1.00  0.00    -0.377 OA 
HETATM    6  O   UNL     1     -12.878  13.215  71.754  1.00  0.00    -0.318 OA 
ENDROOT
BRANCH   3   7
HETATM    7  N   UNL     1      -9.494  14.017  68.597  1.00  0.00    -0.182 N  
HETATM    8  C   UNL     1      -9.292  12.728  68.075  1.00  0.00    -0.213 C  
HETATM    9  O   UNL     1      -9.626  11.705  68.676  1.00  0.00    -0.190 OA 
HETATM   10  C   UNL     1      -8.722  12.615  66.677  1.00  0.00    -0.084 C  
BRANCH   7  11
HETATM   11  C   UNL     1      -8.589  15.082  68.232  1.00  0.00    -0.156 A  
HETATM   12  C   UNL     1      -7.295  15.185  68.805  1.00  0.00    -0.131 A  
HETATM   13  I   UNL     1      -6.609  14.011  70.423  1.00  0.00     0.568 I  
HETATM   14  C   UNL     1      -6.370  16.108  68.316  1.00  0.00    -0.124 A  
HETATM   15  C   UNL     1      -6.722  16.984  67.293  1.00  0.00    -0.164 A  
HETATM   16  C   UNL     1      -8.029  17.007  66.769  1.00  0.00    -0.239 A  
HETATM   17  I   UNL     1      -5.224  18.279  66.569  1.00  0.00    -0.213 I  
HETATM   18  N   UNL     1      -8.344  17.845  65.677  1.00  0.00    -0.270 NA 
HETATM   19  C   UNL     1      -8.931  16.005  67.213  1.00  0.00    -0.197 A  
HETATM   20  H1  UNL     1      -9.291  17.861  65.298  1.00  0.00     0.000 HD 
HETATM   21  I   UNL     1     -10.811  15.914  66.212  1.00  0.00     0.035 I  
HETATM   22  H2  UNL     1      -7.697  17.637  64.916  1.00  0.00     0.000 HD 
ENDBRANCH   7  11
ENDBRANCH   3   7
TORSDOF 2
ENDMDL
MODEL      171
REMARK 921   NORMALIZED FREE ENERGY PREDICTED BY IDOCK:   -2.00 KCAL/MOL
REMARK 922        TOTAL FREE ENERGY PREDICTED BY IDOCK:   -2.34 KCAL/MOL
REMARK 923 INTER-LIGAND FREE ENERGY PREDICTED BY IDOCK:   -2.32 KCAL/MOL
REMARK 924 INTRA-LIGAND FREE ENERGY PREDICTED BY IDOCK:   -0.02 KCAL/MOL
REMARK 927      BINDING AFFINITY PREDICTED BY RF-SCORE:    0.00 PKD
ROOT
HETATM    1  C   UNL     1      -8.182  18.035  66.139  1.00  0.00    -0.180 C  
HETATM    2  C   UNL     1      -7.289  17.384  67.185  1.00  0.00    -0.199 C  
HETATM    3  C   UNL     1      -7.285  15.840  67.157  1.00  0.00    -0.206 C  
HETATM    4  C   UNL     1      -5.864  17.848  66.970  1.00  0.00    -0.141 C  
HETATM    5  O   UNL     1      -5.215  17.601  65.965  1.00  0.00    -0.177 OA 
HETATM    6  O   UNL     1      -5.364  18.574  67.991  1.00  0.00    -0.167 OA 
ENDROOT
BRANCH   3   7
HETATM    7  N   UNL     1      -8.574  15.183  67.480  1.00  0.00    -0.171 N  
HETATM    8  C   UNL     1      -8.962  15.130  68.829  1.00  0.00    -0.197 C  
HETATM    9  O   UNL     1      -8.299  15.637  69.735  1.00  0.00    -0.162 OA 
HETATM   10  C   UNL     1     -10.299  14.497  69.153  1.00  0.00    -0.197 C  
BRANCH   7  11
HETATM   11  C   UNL     1      -8.965  14.120  66.584  1.00  0.00    -0.169 A  
HETATM   12  C   UNL     1      -9.917  14.330  65.553  1.00  0.00    -0.312 A  
HETATM   13  I   UNL     1     -11.079  16.082  65.341  1.00  0.00     0.100 I  
HETATM   14  C   UNL     1     -10.151  13.350  64.588  1.00  0.00    -0.256 A  
HETATM   15  C   UNL     1      -9.495  12.124  64.655  1.00  0.00     0.182 A  
HETATM   16  C   UNL     1      -8.630  11.817  65.723  1.00  0.00     0.219 A  
HETATM   17  I   UNL     1      -9.856  10.746  63.099  1.00  0.00    -0.115 I  
HETATM   18  N   UNL     1      -7.911  10.601  65.728  1.00  0.00    -0.192 NA 
HETATM   19  C   UNL     1      -8.334  12.853  66.645  1.00  0.00     0.145 A  
HETATM   20  H1  UNL     1      -7.284  10.379  66.503  1.00  0.00     0.000 HD 
HETATM   21  I   UNL     1      -6.827  12.427  68.093  1.00  0.00    -0.127 I  
HETATM   22  H2  UNL     1      -7.382  10.536  64.858  1.00  0.00     0.000 HD 
ENDBRANCH   7  11
ENDBRANCH   3   7
TORSDOF 2
ENDMDL
MODEL      172
REMARK 921   NORMALIZED FREE ENERGY PREDICTED BY IDOCK:   -1.91 KCAL/MOL
REMARK 922        TOTAL FREE ENERGY PREDICTED BY IDOCK:   -2.23 KCAL/MOL
REMARK 923 INTER-LIGAND FREE ENERGY PREDICTED BY IDOCK:   -2.14 KCAL/MOL
REMARK 924 INTRA-LIGAND FREE ENERGY PREDICTED BY IDOCK:   -0.09 KCAL/MOL
REMARK 927      BINDING AFFINITY PREDICTED BY RF-SCORE:    0.00 PKD
ROOT
HETATM    1  C   UNL     1      -9.108   7.012  65.719  1.00  0.00     0.017 C  
HETATM    2  C   UNL     1      -7.873   6.137  65.867  1.00  0.00    -0.107 C  
HETATM    3  C   UNL     1      -7.706   5.491  67.260  1.00  0.00    -0.100 C  
HETATM    4  C   UNL     1      -7.940   5.017  64.850  1.00  0.00    -0.099 C  
HETATM    5  O   UNL     1      -8.803   4.153  64.849  1.00  0.00    -0.123 OA 
HETATM    6  O   UNL     1      -6.957   5.057  63.927  1.00  0.00    -0.046 OA 
ENDROOT
BRANCH   3   7
HETATM    7  N   UNL     1      -7.490   6.429  68.388  1.00  0.00    -0.086 N  
HETATM    8  C   UNL     1      -6.265   7.115  68.443  1.00  0.00    -0.035 C  
HETATM    9  O   UNL     1      -5.394   6.997  67.580  1.00  0.00    -0.014 OA 
HETATM   10  C   UNL     1      -6.063   8.106  69.571  1.00  0.00    -0.033 C  
BRANCH   7  11
HETATM   11  C   UNL     1      -8.169   6.084  69.615  1.00  0.00    -0.115 A  
HETATM   12  C   UNL     1      -9.334   6.775  70.038  1.00  0.00    -0.158 A  
HETATM   13  I   UNL     1     -10.078   8.530  69.126  1.00  0.00    -0.219 I  
HETATM   14  C   UNL     1     -10.079   6.318  71.126  1.00  0.00    -0.218 A  
HETATM   15  C   UNL     1      -9.657   5.207  71.852  1.00  0.00    -0.150 A  
HETATM   16  C   UNL     1      -8.446   4.555  71.550  1.00  0.00    -0.110 A  
HETATM   17  I   UNL     1     -10.900   4.549  73.423  1.00  0.00    -0.385 I  
HETATM   18  N   UNL     1      -8.077   3.382  72.244  1.00  0.00    -0.067 NA 
HETATM   19  C   UNL     1      -7.747   4.975  70.389  1.00  0.00    -0.070 A  
HETATM   20  H1  UNL     1      -7.199   2.909  72.025  1.00  0.00     0.000 HD 
HETATM   21  I   UNL     1      -6.060   3.800  69.824  1.00  0.00    -0.025 I  
HETATM   22  H2  UNL     1      -8.836   2.705  72.157  1.00  0.00     0.000 HD 
ENDBRANCH   7  11
ENDBRANCH   3   7
TORSDOF 2
ENDMDL
MODEL      173
REMARK 921   NORMALIZED FREE ENERGY PREDICTED BY IDOCK:   -1.88 KCAL/MOL
REMARK 922        TOTAL FREE ENERGY PREDICTED BY IDOCK:   -2.20 KCAL/MOL
REMARK 923 INTER-LIGAND FREE ENERGY PREDICTED BY IDOCK:   -4.45 KCAL/MOL
REMARK 924 INTRA-LIGAND FREE ENERGY PREDICTED BY IDOCK:    2.25 KCAL/MOL
REMARK 927      BINDING AFFINITY PREDICTED BY RF-SCORE:    0.00 PKD
ROOT
HETATM    1  C   UNL     1      -9.958  14.559  68.333  1.00  0.00    -0.241 C  
HETATM    2  C   UNL     1      -8.818  13.649  67.903  1.00  0.00    -0.188 C  
HETATM    3  C   UNL     1      -8.813  13.289  66.402  1.00  0.00     0.122 C  
HETATM    4  C   UNL     1      -7.502  14.330  68.213  1.00  0.00    -0.125 C  
HETATM    5  O   UNL     1      -7.139  15.372  67.690  1.00  0.00    -0.145 OA 
HETATM    6  O   UNL     1      -6.756  13.686  69.134  1.00  0.00    -0.108 OA 
ENDROOT
BRANCH   3   7
HETATM    7  N   UNL     1      -9.969  12.493  65.922  1.00  0.00    -0.256 N  
HETATM    8  C   UNL     1     -11.175  13.171  65.680  1.00  0.00    -0.283 C  
HETATM    9  O   UNL     1     -11.294  14.390  65.812  1.00  0.00    -0.320 OA 
HETATM   10  C   UNL     1     -12.342  12.365  65.148  1.00  0.00    -0.403 C  
BRANCH   7  11
HETATM   11  C   UNL     1     -10.001  11.121  66.370  1.00  0.00    -0.217 A  
HETATM   12  C   UNL     1     -10.686  10.743  67.553  1.00  0.00    -0.264 A  
HETATM   13  I   UNL     1     -11.503  12.106  68.947  1.00  0.00    -0.407 I  
HETATM   14  C   UNL     1     -10.861   9.397  67.878  1.00  0.00    -0.215 A  
HETATM   15  C   UNL     1     -10.313   8.401  67.073  1.00  0.00    -0.315 A  
HETATM   16  C   UNL     1      -9.523   8.722  65.953  1.00  0.00    -0.208 A  
HETATM   17  I   UNL     1     -10.708   6.400  67.606  1.00  0.00    -0.429 I  
HETATM   18  N   UNL     1      -9.046   7.699  65.103  1.00  0.00    -0.257 NA 
HETATM   19  C   UNL     1      -9.429  10.089  65.586  1.00  0.00    -0.220 A  
HETATM   20  H1  UNL     1      -8.473   7.932  64.291  1.00  0.00     0.000 HD 
HETATM   21  I   UNL     1      -8.441  10.508  63.744  1.00  0.00     0.036 I  
HETATM   22  H2  UNL     1      -9.843   7.147  64.786  1.00  0.00     0.000 HD 
ENDBRANCH   7  11
ENDBRANCH   3   7
TORSDOF 2
ENDMDL
MODEL      174
REMARK 921   NORMALIZED FREE ENERGY PREDICTED BY IDOCK:   -1.88 KCAL/MOL
REMARK 922        TOTAL FREE ENERGY PREDICTED BY IDOCK:   -2.20 KCAL/MOL
REMARK 923 INTER-LIGAND FREE ENERGY PREDICTED BY IDOCK:   -4.53 KCAL/MOL
REMARK 924 INTRA-LIGAND FREE ENERGY PREDICTED BY IDOCK:    2.33 KCAL/MOL
REMARK 927      BINDING AFFINITY PREDICTED BY RF-SCORE:    0.00 PKD
ROOT
HETATM    1  C   UNL     1      -8.223   8.220  72.421  1.00  0.00    -0.214 C  
HETATM    2  C   UNL     1      -8.206   8.192  70.901  1.00  0.00    -0.110 C  
HETATM    3  C   UNL     1      -9.530   8.627  70.235  1.00  0.00    -0.167 C  
HETATM    4  C   UNL     1      -7.119   9.122  70.405  1.00  0.00    -0.079 C  
HETATM    5  O   UNL     1      -7.126  10.330  70.587  1.00  0.00    -0.322 OA 
HETATM    6  O   UNL     1      -6.124   8.497  69.742  1.00  0.00    -0.034 OA 
ENDROOT
BRANCH   3   7
HETATM    7  N   UNL     1     -10.702   7.756  70.492  1.00  0.00    -0.232 N  
HETATM    8  C   UNL     1     -11.690   8.230  71.372  1.00  0.00    -0.287 C  
HETATM    9  O   UNL     1     -11.636   9.343  71.898  1.00  0.00    -0.378 OA 
HETATM   10  C   UNL     1     -12.907   7.359  71.600  1.00  0.00    -0.406 C  
BRANCH   7  11
HETATM   11  C   UNL     1     -10.446   6.338  70.407  1.00  0.00    -0.222 A  
HETATM   12  C   UNL     1     -10.299   5.683  69.157  1.00  0.00    -0.258 A  
HETATM   13  I   UNL     1     -10.690   6.584  67.285  1.00  0.00    -0.446 I  
HETATM   14  C   UNL     1      -9.876   4.355  69.091  1.00  0.00    -0.198 A  
HETATM   15  C   UNL     1      -9.648   3.630  70.258  1.00  0.00    -0.176 A  
HETATM   16  C   UNL     1      -9.893   4.192  71.526  1.00  0.00    -0.184 A  
HETATM   17  I   UNL     1      -8.930   1.659  70.048  1.00  0.00    -0.154 I  
HETATM   18  N   UNL     1      -9.576   3.470  72.698  1.00  0.00    -0.127 NA 
HETATM   19  C   UNL     1     -10.235   5.568  71.578  1.00  0.00    -0.212 A  
HETATM   20  H1  UNL     1      -9.754   3.878  73.616  1.00  0.00     0.000 HD 
HETATM   21  I   UNL     1     -10.346   6.442  73.520  1.00  0.00    -0.325 I  
HETATM   22  H2  UNL     1      -8.594   3.198  72.652  1.00  0.00     0.000 HD 
ENDBRANCH   7  11
ENDBRANCH   3   7
TORSDOF 2
ENDMDL
MODEL      175
REMARK 921   NORMALIZED FREE ENERGY PREDICTED BY IDOCK:   -1.86 KCAL/MOL
REMARK 922        TOTAL FREE ENERGY PREDICTED BY IDOCK:   -2.18 KCAL/MOL
REMARK 923 INTER-LIGAND FREE ENERGY PREDICTED BY IDOCK:   -3.92 KCAL/MOL
REMARK 924 INTRA-LIGAND FREE ENERGY PREDICTED BY IDOCK:    1.73 KCAL/MOL
REMARK 927      BINDING AFFINITY PREDICTED BY RF-SCORE:    0.00 PKD
ROOT
HETATM    1  C   UNL     1     -10.249   4.971  69.713  1.00  0.00    -0.336 C  
HETATM    2  C   UNL     1      -9.005   5.668  69.185  1.00  0.00    -0.120 C  
HETATM    3  C   UNL     1      -8.029   6.156  70.278  1.00  0.00    -0.107 C  
HETATM    4  C   UNL     1      -8.246   4.708  68.292  1.00  0.00    -0.090 C  
HETATM    5  O   UNL     1      -7.745   3.667  68.687  1.00  0.00    -0.056 OA 
HETATM    6  O   UNL     1      -8.175   5.100  67.003  1.00  0.00    -0.107 OA 
ENDROOT
BRANCH   3   7
HETATM    7  N   UNL     1      -8.545   7.210  71.185  1.00  0.00    -0.128 N  
HETATM    8  C   UNL     1      -8.945   6.825  72.475  1.00  0.00    -0.130 C  
HETATM    9  O   UNL     1      -8.847   5.668  72.888  1.00  0.00    -0.125 OA 
HETATM   10  C   UNL     1      -9.430   7.908  73.415  1.00  0.00    -0.341 C  
BRANCH   7  11
HETATM   11  C   UNL     1      -9.211   8.312  70.532  1.00  0.00    -0.151 A  
HETATM   12  C   UNL     1     -10.623   8.448  70.561  1.00  0.00    -0.216 A  
HETATM   13  I   UNL     1     -11.949   6.974  71.294  1.00  0.00    -0.415 I  
HETATM   14  C   UNL     1     -11.239   9.605  70.084  1.00  0.00    -0.302 A  
HETATM   15  C   UNL     1     -10.479  10.624  69.515  1.00  0.00    -0.204 A  
HETATM   16  C   UNL     1      -9.087  10.492  69.352  1.00  0.00    -0.104 A  
HETATM   17  I   UNL     1     -11.498  12.366  68.903  1.00  0.00    -0.398 I  
HETATM   18  N   UNL     1      -8.323  11.569  68.850  1.00  0.00    -0.351 NA 
HETATM   19  C   UNL     1      -8.466   9.351  69.922  1.00  0.00    -0.177 A  
HETATM   20  H1  UNL     1      -7.314  11.472  68.732  1.00  0.00     0.000 HD 
HETATM   21  I   UNL     1      -6.334   9.314  69.879  1.00  0.00    -0.056 I  
HETATM   22  H2  UNL     1      -8.502  12.388  69.433  1.00  0.00     0.000 HD 
ENDBRANCH   7  11
ENDBRANCH   3   7
TORSDOF 2
ENDMDL
MODEL      176
REMARK 921   NORMALIZED FREE ENERGY PREDICTED BY IDOCK:   -1.75 KCAL/MOL
REMARK 922        TOTAL FREE ENERGY PREDICTED BY IDOCK:   -2.06 KCAL/MOL
REMARK 923 INTER-LIGAND FREE ENERGY PREDICTED BY IDOCK:   -4.57 KCAL/MOL
REMARK 924 INTRA-LIGAND FREE ENERGY PREDICTED BY IDOCK:    2.52 KCAL/MOL
REMARK 927      BINDING AFFINITY PREDICTED BY RF-SCORE:    0.00 PKD
ROOT
HETATM    1  C   UNL     1      -7.244  17.258  66.420  1.00  0.00    -0.327 C  
HETATM    2  C   UNL     1      -8.657  17.278  66.983  1.00  0.00    -0.246 C  
HETATM    3  C   UNL     1      -8.736  17.251  68.525  1.00  0.00    -0.273 C  
HETATM    4  C   UNL     1      -9.356  18.536  66.513  1.00  0.00    -0.313 C  
HETATM    5  O   UNL     1      -8.999  19.664  66.818  1.00  0.00    -0.319 OA 
HETATM    6  O   UNL     1     -10.416  18.307  65.711  1.00  0.00    -0.589 OA 
ENDROOT
BRANCH   3   7
HETATM    7  N   UNL     1      -8.218  16.025  69.180  1.00  0.00    -0.238 N  
HETATM    8  C   UNL     1      -6.953  16.092  69.787  1.00  0.00    -0.040 C  
HETATM    9  O   UNL     1      -6.286  17.127  69.829  1.00  0.00    -0.240 OA 
HETATM   10  C   UNL     1      -6.445  14.852  70.493  1.00  0.00    -0.004 C  
BRANCH   7  11
HETATM   11  C   UNL     1      -8.664  14.781  68.598  1.00  0.00    -0.178 A  
HETATM   12  C   UNL     1      -7.749  13.853  68.038  1.00  0.00    -0.151 A  
HETATM   13  I   UNL     1      -5.695  14.244  67.723  1.00  0.00     0.216 I  
HETATM   14  C   UNL     1      -8.171  12.583  67.644  1.00  0.00    -0.172 A  
HETATM   15  C   UNL     1      -9.513  12.225  67.740  1.00  0.00    -0.197 A  
HETATM   16  C   UNL     1     -10.484  13.147  68.176  1.00  0.00    -0.248 A  
HETATM   17  I   UNL     1     -10.031  10.255  67.198  1.00  0.00    -0.285 I  
HETATM   18  N   UNL     1     -11.826  12.740  68.346  1.00  0.00    -0.327 NA 
HETATM   19  C   UNL     1     -10.028  14.401  68.657  1.00  0.00    -0.241 A  
HETATM   20  H1  UNL     1     -12.529  13.409  68.662  1.00  0.00     0.000 HD 
HETATM   21  I   UNL     1     -11.498  15.665  69.545  1.00  0.00    -0.402 I  
HETATM   22  H2  UNL     1     -11.841  11.937  68.974  1.00  0.00     0.000 HD 
ENDBRANCH   7  11
ENDBRANCH   3   7
TORSDOF 2
ENDMDL
MODEL      177
REMARK 921   NORMALIZED FREE ENERGY PREDICTED BY IDOCK:   -1.69 KCAL/MOL
REMARK 922        TOTAL FREE ENERGY PREDICTED BY IDOCK:   -1.99 KCAL/MOL
REMARK 923 INTER-LIGAND FREE ENERGY PREDICTED BY IDOCK:   -2.04 KCAL/MOL
REMARK 924 INTRA-LIGAND FREE ENERGY PREDICTED BY IDOCK:    0.05 KCAL/MOL
REMARK 927      BINDING AFFINITY PREDICTED BY RF-SCORE:    0.00 PKD
ROOT
HETATM    1  C   UNL     1     -10.850   5.276  70.909  1.00  0.00    -0.119 C  
HETATM    2  C   UNL     1     -10.035   3.995  70.820  1.00  0.00    -0.158 C  
HETATM    3  C   UNL     1      -8.562   4.198  70.402  1.00  0.00    -0.073 C  
HETATM    4  C   UNL     1     -10.036   3.318  72.174  1.00  0.00    -0.161 C  
HETATM    5  O   UNL     1      -9.539   3.807  73.177  1.00  0.00    -0.111 OA 
HETATM    6  O   UNL     1     -10.647   2.115  72.184  1.00  0.00    -0.079 OA 
ENDROOT
BRANCH   3   7
HETATM    7  N   UNL     1      -8.343   4.734  69.037  1.00  0.00    -0.081 N  
HETATM    8  C   UNL     1      -7.810   3.865  68.070  1.00  0.00    -0.073 C  
HETATM    9  O   UNL     1      -7.558   2.681  68.303  1.00  0.00    -0.055 OA 
HETATM   10  C   UNL     1      -7.628   4.400  66.666  1.00  0.00    -0.089 C  
BRANCH   7  11
HETATM   11  C   UNL     1      -8.043   6.144  68.969  1.00  0.00    -0.112 A  
HETATM   12  C   UNL     1      -8.939   7.066  68.369  1.00  0.00    -0.122 A  
HETATM   13  I   UNL     1     -10.660   6.516  67.272  1.00  0.00    -0.490 I  
HETATM   14  C   UNL     1      -8.722   8.441  68.469  1.00  0.00    -0.136 A  
HETATM   15  C   UNL     1      -7.588   8.930  69.111  1.00  0.00    -0.080 A  
HETATM   16  C   UNL     1      -6.605   8.059  69.620  1.00  0.00    -0.038 A  
HETATM   17  I   UNL     1      -7.399  11.023  69.281  1.00  0.00     0.023 I  
HETATM   18  N   UNL     1      -5.504   8.573  70.341  1.00  0.00    -0.021 NA 
HETATM   19  C   UNL     1      -6.883   6.668  69.591  1.00  0.00    -0.058 A  
HETATM   20  H1  UNL     1      -4.792   7.941  70.710  1.00  0.00     0.000 HD 
HETATM   21  I   UNL     1      -5.492   5.405  70.599  1.00  0.00    -0.005 I  
HETATM   22  H2  UNL     1      -5.860   9.140  71.111  1.00  0.00     0.000 HD 
ENDBRANCH   7  11
ENDBRANCH   3   7
TORSDOF 2
ENDMDL
MODEL      178
REMARK 921   NORMALIZED FREE ENERGY PREDICTED BY IDOCK:   -1.63 KCAL/MOL
REMARK 922        TOTAL FREE ENERGY PREDICTED BY IDOCK:   -1.92 KCAL/MOL
REMARK 923 INTER-LIGAND FREE ENERGY PREDICTED BY IDOCK:   -2.49 KCAL/MOL
REMARK 924 INTRA-LIGAND FREE ENERGY PREDICTED BY IDOCK:    0.56 KCAL/MOL
REMARK 927      BINDING AFFINITY PREDICTED BY RF-SCORE:    0.00 PKD
ROOT
HETATM    1  C   UNL     1      -9.824   9.671  70.190  1.00  0.00    -0.310 C  
HETATM    2  C   UNL     1      -9.094  10.200  68.965  1.00  0.00    -0.176 C  
HETATM    3  C   UNL     1      -8.774   9.133  67.896  1.00  0.00    -0.128 C  
HETATM    4  C   UNL     1      -9.948  11.263  68.307  1.00  0.00    -0.195 C  
HETATM    5  O   UNL     1     -11.043  11.044  67.813  1.00  0.00    -0.251 OA 
HETATM    6  O   UNL     1      -9.395  12.494  68.318  1.00  0.00    -0.205 OA 
ENDROOT
BRANCH   3   7
HETATM    7  N   UNL     1      -7.834   8.063  68.309  1.00  0.00    -0.120 N  
HETATM    8  C   UNL     1      -6.583   8.451  68.816  1.00  0.00    -0.054 C  
HETATM    9  O   UNL     1      -6.260   9.631  68.966  1.00  0.00    -0.041 OA 
HETATM   10  C   UNL     1      -5.641   7.359  69.279  1.00  0.00    -0.015 C  
BRANCH   7  11
HETATM   11  C   UNL     1      -7.952   6.823  67.578  1.00  0.00    -0.115 A  
HETATM   12  C   UNL     1      -7.690   6.754  66.186  1.00  0.00    -0.091 A  
HETATM   13  I   UNL     1      -7.368   8.436  64.947  1.00  0.00    -0.101 I  
HETATM   14  C   UNL     1      -7.633   5.523  65.530  1.00  0.00    -0.079 A  
HETATM   15  C   UNL     1      -7.892   4.343  66.224  1.00  0.00    -0.095 A  
HETATM   16  C   UNL     1      -8.274   4.362  67.579  1.00  0.00    -0.099 A  
HETATM   17  I   UNL     1      -7.696   2.533  65.160  1.00  0.00    -0.079 I  
HETATM   18  N   UNL     1      -8.451   3.152  68.285  1.00  0.00    -0.078 NA 
HETATM   19  C   UNL     1      -8.240   5.610  68.252  1.00  0.00    -0.103 A  
HETATM   20  H1  UNL     1      -8.728   3.166  69.267  1.00  0.00     0.000 HD 
HETATM   21  I   UNL     1      -8.575   5.558  70.357  1.00  0.00    -0.151 I  
HETATM   22  H2  UNL     1      -7.595   2.603  68.201  1.00  0.00     0.000 HD 
ENDBRANCH   7  11
ENDBRANCH   3   7
TORSDOF 2
ENDMDL
MODEL      179
REMARK 921   NORMALIZED FREE ENERGY PREDICTED BY IDOCK:   -1.61 KCAL/MOL
REMARK 922        TOTAL FREE ENERGY PREDICTED BY IDOCK:   -1.90 KCAL/MOL
REMARK 923 INTER-LIGAND FREE ENERGY PREDICTED BY IDOCK:   -4.33 KCAL/MOL
REMARK 924 INTRA-LIGAND FREE ENERGY PREDICTED BY IDOCK:    2.43 KCAL/MOL
REMARK 927      BINDING AFFINITY PREDICTED BY RF-SCORE:    0.00 PKD
ROOT
HETATM    1  C   UNL     1      -7.866  15.166  69.613  1.00  0.00    -0.125 C  
HETATM    2  C   UNL     1      -7.628  14.283  68.398  1.00  0.00    -0.124 C  
HETATM    3  C   UNL     1      -7.794  15.000  67.040  1.00  0.00    -0.129 C  
HETATM    4  C   UNL     1      -6.216  13.738  68.456  1.00  0.00    -0.092 C  
HETATM    5  O   UNL     1      -5.217  14.438  68.399  1.00  0.00    -0.091 OA 
HETATM    6  O   UNL     1      -6.152  12.397  68.585  1.00  0.00    -0.060 OA 
ENDROOT
BRANCH   3   7
HETATM    7  N   UNL     1      -9.157  15.495  66.731  1.00  0.00    -0.234 N  
HETATM    8  C   UNL     1      -9.270  16.717  66.045  1.00  0.00    -0.228 C  
HETATM    9  O   UNL     1      -8.291  17.361  65.663  1.00  0.00    -0.487 OA 
HETATM   10  C   UNL     1     -10.660  17.200  65.691  1.00  0.00    -0.187 C  
BRANCH   7  11
HETATM   11  C   UNL     1     -10.181  15.111  67.674  1.00  0.00    -0.241 A  
HETATM   12  C   UNL     1     -10.837  13.857  67.586  1.00  0.00    -0.254 A  
HETATM   13  I   UNL     1     -10.634  12.514  65.967  1.00  0.00    -0.327 I  
HETATM   14  C   UNL     1     -11.692  13.426  68.602  1.00  0.00    -0.384 A  
HETATM   15  C   UNL     1     -11.960  14.248  69.693  1.00  0.00    -0.336 A  
HETATM   16  C   UNL     1     -11.430  15.550  69.773  1.00  0.00    -0.331 A  
HETATM   17  I   UNL     1     -13.196  13.467  71.213  1.00  0.00    -0.060 I  
HETATM   18  N   UNL     1     -11.645  16.337  70.926  1.00  0.00    -0.571 NA 
HETATM   19  C   UNL     1     -10.494  15.939  68.780  1.00  0.00    -0.237 A  
HETATM   20  H1  UNL     1     -11.261  17.280  70.984  1.00  0.00     0.000 HD 
HETATM   21  I   UNL     1      -9.524  17.814  69.078  1.00  0.00     0.174 I  
HETATM   22  H2  UNL     1     -11.326  15.809  71.739  1.00  0.00     0.000 HD 
ENDBRANCH   7  11
ENDBRANCH   3   7
TORSDOF 2
ENDMDL
MODEL      180
REMARK 921   NORMALIZED FREE ENERGY PREDICTED BY IDOCK:   -1.58 KCAL/MOL
REMARK 922        TOTAL FREE ENERGY PREDICTED BY IDOCK:   -1.87 KCAL/MOL
REMARK 923 INTER-LIGAND FREE ENERGY PREDICTED BY IDOCK:   -3.90 KCAL/MOL
REMARK 924 INTRA-LIGAND FREE ENERGY PREDICTED BY IDOCK:    2.03 KCAL/MOL
REMARK 927      BINDING AFFINITY PREDICTED BY RF-SCORE:    0.00 PKD
ROOT
HETATM    1  C   UNL     1     -12.024  16.132  68.978  1.00  0.00    -0.060 C  
HETATM    2  C   UNL     1     -11.178  15.046  69.625  1.00  0.00    -0.296 C  
HETATM    3  C   UNL     1      -9.653  15.261  69.506  1.00  0.00    -0.215 C  
HETATM    4  C   UNL     1     -11.515  14.974  71.099  1.00  0.00    -0.309 C  
HETATM    5  O   UNL     1     -11.312  15.886  71.886  1.00  0.00    -0.351 OA 
HETATM    6  O   UNL     1     -12.073  13.806  71.477  1.00  0.00    -0.195 OA 
ENDROOT
BRANCH   3   7
HETATM    7  N   UNL     1      -9.099  15.229  68.131  1.00  0.00    -0.173 N  
HETATM    8  C   UNL     1      -8.246  16.276  67.745  1.00  0.00    -0.149 C  
HETATM    9  O   UNL     1      -7.915  17.184  68.509  1.00  0.00    -0.238 OA 
HETATM   10  C   UNL     1      -7.645  16.220  66.356  1.00  0.00    -0.131 C  
BRANCH   7  11
HETATM   11  C   UNL     1      -9.939  14.594  67.143  1.00  0.00    -0.240 A  
HETATM   12  C   UNL     1     -10.634  15.349  66.164  1.00  0.00    -0.316 A  
HETATM   13  I   UNL     1     -10.774  17.458  66.160  1.00  0.00     0.360 I  
HETATM   14  C   UNL     1     -11.295  14.716  65.110  1.00  0.00    -0.375 A  
HETATM   15  C   UNL     1     -11.331  13.326  65.035  1.00  0.00    -0.305 A  
HETATM   16  C   UNL     1     -10.760  12.526  66.043  1.00  0.00    -0.262 A  
HETATM   17  I   UNL     1     -12.282  12.472  63.358  1.00  0.00    -0.159 I  
HETATM   18  N   UNL     1     -10.734  11.120  65.907  1.00  0.00    -0.233 NA 
HETATM   19  C   UNL     1     -10.017  13.182  67.058  1.00  0.00    -0.244 A  
HETATM   20  H1  UNL     1     -10.320  10.541  66.638  1.00  0.00     0.000 HD 
HETATM   21  I   UNL     1      -8.957  11.925  68.415  1.00  0.00    -0.008 I  
HETATM   22  H2  UNL     1     -10.282  10.892  65.021  1.00  0.00     0.000 HD 
ENDBRANCH   7  11
ENDBRANCH   3   7
TORSDOF 2
ENDMDL
MODEL      181
REMARK 921   NORMALIZED FREE ENERGY PREDICTED BY IDOCK:   -1.56 KCAL/MOL
REMARK 922        TOTAL FREE ENERGY PREDICTED BY IDOCK:   -1.84 KCAL/MOL
REMARK 923 INTER-LIGAND FREE ENERGY PREDICTED BY IDOCK:   -2.19 KCAL/MOL
REMARK 924 INTRA-LIGAND FREE ENERGY PREDICTED BY IDOCK:    0.36 KCAL/MOL
REMARK 927      BINDING AFFINITY PREDICTED BY RF-SCORE:    0.00 PKD
ROOT
HETATM    1  C   UNL     1      -6.919  10.673  65.137  1.00  0.00     0.061 C  
HETATM    2  C   UNL     1      -7.910   9.625  65.621  1.00  0.00    -0.107 C  
HETATM    3  C   UNL     1      -9.012  10.167  66.558  1.00  0.00    -0.143 C  
HETATM    4  C   UNL     1      -8.595   9.006  64.422  1.00  0.00    -0.150 C  
HETATM    5  O   UNL     1      -9.314   9.629  63.655  1.00  0.00    -0.211 OA 
HETATM    6  O   UNL     1      -8.336   7.692  64.261  1.00  0.00    -0.059 OA 
ENDROOT
BRANCH   3   7
HETATM    7  N   UNL     1      -8.549  10.701  67.862  1.00  0.00    -0.123 N  
HETATM    8  C   UNL     1      -7.614   9.943  68.586  1.00  0.00    -0.080 C  
HETATM    9  O   UNL     1      -7.143   8.885  68.164  1.00  0.00    -0.076 OA 
HETATM   10  C   UNL     1      -7.110  10.510  69.896  1.00  0.00    -0.148 C  
BRANCH   7  11
HETATM   11  C   UNL     1      -9.511  11.512  68.571  1.00  0.00    -0.174 A  
HETATM   12  C   UNL     1      -9.521  12.926  68.453  1.00  0.00    -0.162 A  
HETATM   13  I   UNL     1      -8.021  14.053  67.480  1.00  0.00    -0.142 I  
HETATM   14  C   UNL     1     -10.560  13.680  68.998  1.00  0.00    -0.147 A  
HETATM   15  C   UNL     1     -11.577  13.061  69.720  1.00  0.00    -0.216 A  
HETATM   16  C   UNL     1     -11.554  11.675  69.970  1.00  0.00    -0.255 A  
HETATM   17  I   UNL     1     -13.144  14.282  70.428  1.00  0.00     0.503 I  
HETATM   18  N   UNL     1     -12.636  11.054  70.632  1.00  0.00    -0.344 NA 
HETATM   19  C   UNL     1     -10.542  10.911  69.335  1.00  0.00    -0.197 A  
HETATM   20  H1  UNL     1     -12.619  10.050  70.814  1.00  0.00     0.000 HD 
HETATM   21  I   UNL     1     -10.693   8.793  69.531  1.00  0.00    -0.023 I  
HETATM   22  H2  UNL     1     -13.493  11.274  70.124  1.00  0.00     0.000 HD 
ENDBRANCH   7  11
ENDBRANCH   3   7
TORSDOF 2
ENDMDL
MODEL      182
REMARK 921   NORMALIZED FREE ENERGY PREDICTED BY IDOCK:   -1.52 KCAL/MOL
REMARK 922        TOTAL FREE ENERGY PREDICTED BY IDOCK:   -1.80 KCAL/MOL
REMARK 923 INTER-LIGAND FREE ENERGY PREDICTED BY IDOCK:   -2.03 KCAL/MOL
REMARK 924 INTRA-LIGAND FREE ENERGY PREDICTED BY IDOCK:    0.23 KCAL/MOL
REMARK 927      BINDING AFFINITY PREDICTED BY RF-SCORE:    0.00 PKD
ROOT
HETATM    1  C   UNL     1      -9.974  12.522  66.773  1.00  0.00    -0.234 C  
HETATM    2  C   UNL     1      -9.672  12.768  68.243  1.00  0.00    -0.216 C  
HETATM    3  C   UNL     1      -8.261  12.331  68.692  1.00  0.00    -0.017 C  
HETATM    4  C   UNL     1      -9.804  14.249  68.530  1.00  0.00    -0.231 C  
HETATM    5  O   UNL     1      -9.089  15.103  68.029  1.00  0.00    -0.176 OA 
HETATM    6  O   UNL     1     -10.797  14.553  69.392  1.00  0.00    -0.249 OA 
ENDROOT
BRANCH   3   7
HETATM    7  N   UNL     1      -7.976  10.878  68.614  1.00  0.00    -0.131 N  
HETATM    8  C   UNL     1      -7.279  10.289  69.682  1.00  0.00    -0.140 C  
HETATM    9  O   UNL     1      -6.935  10.920  70.684  1.00  0.00    -0.088 OA 
HETATM   10  C   UNL     1      -7.027   8.797  69.622  1.00  0.00    -0.050 C  
BRANCH   7  11
HETATM   11  C   UNL     1      -7.809  10.354  67.280  1.00  0.00    -0.106 A  
HETATM   12  C   UNL     1      -6.645  10.626  66.515  1.00  0.00    -0.108 A  
HETATM   13  I   UNL     1      -5.151  12.015  67.070  1.00  0.00     0.133 I  
HETATM   14  C   UNL     1      -6.416   9.971  65.305  1.00  0.00    -0.112 A  
HETATM   15  C   UNL     1      -7.358   9.079  64.798  1.00  0.00    -0.100 A  
HETATM   16  C   UNL     1      -8.584   8.861  65.455  1.00  0.00    -0.176 A  
HETATM   17  I   UNL     1      -6.876   8.079  63.005  1.00  0.00    -0.090 I  
HETATM   18  N   UNL     1      -9.489   7.891  64.969  1.00  0.00     0.346 NA 
HETATM   19  C   UNL     1      -8.763   9.464  66.726  1.00  0.00    -0.127 A  
HETATM   20  H1  UNL     1     -10.377   7.733  65.445  1.00  0.00     0.000 HD 
HETATM   21  I   UNL     1     -10.518   8.904  67.799  1.00  0.00    -0.158 I  
HETATM   22  H2  UNL     1      -8.998   6.999  64.900  1.00  0.00     0.000 HD 
ENDBRANCH   7  11
ENDBRANCH   3   7
TORSDOF 2
ENDMDL
MODEL      183
REMARK 921   NORMALIZED FREE ENERGY PREDICTED BY IDOCK:   -1.46 KCAL/MOL
REMARK 922        TOTAL FREE ENERGY PREDICTED BY IDOCK:   -1.73 KCAL/MOL
REMARK 923 INTER-LIGAND FREE ENERGY PREDICTED BY IDOCK:   -4.10 KCAL/MOL
REMARK 924 INTRA-LIGAND FREE ENERGY PREDICTED BY IDOCK:    2.37 KCAL/MOL
REMARK 927      BINDING AFFINITY PREDICTED BY RF-SCORE:    0.00 PKD
ROOT
HETATM    1  C   UNL     1      -8.018  10.803  65.851  1.00  0.00    -0.140 C  
HETATM    2  C   UNL     1      -8.490   9.358  65.863  1.00  0.00    -0.135 C  
HETATM    3  C   UNL     1      -9.993   9.174  66.167  1.00  0.00    -0.268 C  
HETATM    4  C   UNL     1      -8.221   8.742  64.506  1.00  0.00    -0.167 C  
HETATM    5  O   UNL     1      -8.751   9.121  63.473  1.00  0.00    -0.201 OA 
HETATM    6  O   UNL     1      -7.329   7.730  64.530  1.00  0.00    -0.078 OA 
ENDROOT
BRANCH   3   7
HETATM    7  N   UNL     1     -10.437   9.598  67.517  1.00  0.00    -0.245 N  
HETATM    8  C   UNL     1     -11.231  10.753  67.612  1.00  0.00    -0.299 C  
HETATM    9  O   UNL     1     -11.599  11.394  66.626  1.00  0.00    -0.432 OA 
HETATM   10  C   UNL     1     -11.721  11.160  68.986  1.00  0.00    -0.408 C  
BRANCH   7  11
HETATM   11  C   UNL     1      -9.539   9.261  68.596  1.00  0.00    -0.147 A  
HETATM   12  C   UNL     1      -9.451   7.940  69.104  1.00  0.00    -0.155 A  
HETATM   13  I   UNL     1     -10.765   6.369  68.579  1.00  0.00    -0.390 I  
HETATM   14  C   UNL     1      -8.456   7.591  70.018  1.00  0.00    -0.137 A  
HETATM   15  C   UNL     1      -7.567   8.552  70.493  1.00  0.00    -0.074 A  
HETATM   16  C   UNL     1      -7.683   9.903  70.114  1.00  0.00    -0.175 A  
HETATM   17  I   UNL     1      -6.050   7.903  71.806  1.00  0.00    -0.043 I  
HETATM   18  N   UNL     1      -6.722  10.847  70.540  1.00  0.00    -0.486 NA 
HETATM   19  C   UNL     1      -8.640  10.225  69.117  1.00  0.00    -0.164 A  
HETATM   20  H1  UNL     1      -6.807  11.826  70.265  1.00  0.00     0.000 HD 
HETATM   21  I   UNL     1      -8.609  12.228  68.388  1.00  0.00     0.046 I  
HETATM   22  H2  UNL     1      -5.799  10.513  70.262  1.00  0.00     0.000 HD 
ENDBRANCH   7  11
ENDBRANCH   3   7
TORSDOF 2
ENDMDL
MODEL      184
REMARK 921   NORMALIZED FREE ENERGY PREDICTED BY IDOCK:   -1.42 KCAL/MOL
REMARK 922        TOTAL FREE ENERGY PREDICTED BY IDOCK:   -1.68 KCAL/MOL
REMARK 923 INTER-LIGAND FREE ENERGY PREDICTED BY IDOCK:   -2.77 KCAL/MOL
REMARK 924 INTRA-LIGAND FREE ENERGY PREDICTED BY IDOCK:    1.09 KCAL/MOL
REMARK 927      BINDING AFFINITY PREDICTED BY RF-SCORE:    0.00 PKD
ROOT
HETATM    1  C   UNL     1      -7.438  14.393  69.117  1.00  0.00    -0.094 C  
HETATM    2  C   UNL     1      -8.509  13.888  68.162  1.00  0.00    -0.171 C  
HETATM    3  C   UNL     1      -8.904  12.408  68.364  1.00  0.00    -0.129 C  
HETATM    4  C   UNL     1      -9.759  14.722  68.341  1.00  0.00    -0.214 C  
HETATM    5  O   UNL     1     -10.409  14.758  69.375  1.00  0.00    -0.217 OA 
HETATM    6  O   UNL     1     -10.098  15.440  67.250  1.00  0.00    -0.234 OA 
ENDROOT
BRANCH   3   7
HETATM    7  N   UNL     1      -7.838  11.411  68.102  1.00  0.00    -0.122 N  
HETATM    8  C   UNL     1      -6.863  11.732  67.142  1.00  0.00    -0.148 C  
HETATM    9  O   UNL     1      -6.840  12.811  66.549  1.00  0.00     0.463 OA 
HETATM   10  C   UNL     1      -5.751  10.732  66.907  1.00  0.00    -0.062 C  
BRANCH   7  11
HETATM   11  C   UNL     1      -8.224  10.033  68.291  1.00  0.00    -0.106 A  
HETATM   12  C   UNL     1      -7.762   9.279  69.400  1.00  0.00    -0.082 A  
HETATM   13  I   UNL     1      -6.274   9.932  70.751  1.00  0.00     0.022 I  
HETATM   14  C   UNL     1      -8.281   8.011  69.668  1.00  0.00    -0.121 A  
HETATM   15  C   UNL     1      -9.222   7.441  68.814  1.00  0.00    -0.144 A  
HETATM   16  C   UNL     1      -9.627   8.094  67.635  1.00  0.00    -0.152 A  
HETATM   17  I   UNL     1     -10.005   5.559  69.356  1.00  0.00    -0.338 I  
HETATM   18  N   UNL     1     -10.643   7.537  66.826  1.00  0.00    -0.494 NA 
HETATM   19  C   UNL     1      -9.160   9.416  67.424  1.00  0.00    -0.126 A  
HETATM   20  H1  UNL     1     -10.937   8.011  65.971  1.00  0.00     0.000 HD 
HETATM   21  I   UNL     1      -9.996  10.462  65.764  1.00  0.00    -0.299 I  
HETATM   22  H2  UNL     1     -11.468   7.383  67.407  1.00  0.00     0.000 HD 
ENDBRANCH   7  11
ENDBRANCH   3   7
TORSDOF 2
ENDMDL
MODEL      185
REMARK 921   NORMALIZED FREE ENERGY PREDICTED BY IDOCK:   -1.40 KCAL/MOL
REMARK 922        TOTAL FREE ENERGY PREDICTED BY IDOCK:   -1.67 KCAL/MOL
REMARK 923 INTER-LIGAND FREE ENERGY PREDICTED BY IDOCK:   -4.85 KCAL/MOL
REMARK 924 INTRA-LIGAND FREE ENERGY PREDICTED BY IDOCK:    3.18 KCAL/MOL
REMARK 927      BINDING AFFINITY PREDICTED BY RF-SCORE:    0.00 PKD
ROOT
HETATM    1  C   UNL     1      -8.475  17.168  66.057  1.00  0.00    -0.154 C  
HETATM    2  C   UNL     1      -9.885  16.601  66.106  1.00  0.00    -0.340 C  
HETATM    3  C   UNL     1     -10.535  16.614  67.507  1.00  0.00    -0.317 C  
HETATM    4  C   UNL     1     -10.772  17.410  65.184  1.00  0.00     0.139 C  
HETATM    5  O   UNL     1     -11.022  18.594  65.351  1.00  0.00    -0.491 OA 
HETATM    6  O   UNL     1     -11.264  16.709  64.143  1.00  0.00    -1.103 OA 
ENDROOT
BRANCH   3   7
HETATM    7  N   UNL     1      -9.884  15.764  68.532  1.00  0.00    -0.205 N  
HETATM    8  C   UNL     1      -8.482  15.794  68.613  1.00  0.00    -0.193 C  
HETATM    9  O   UNL     1      -7.787  16.520  67.900  1.00  0.00    -0.150 OA 
HETATM   10  C   UNL     1      -7.820  14.959  69.689  1.00  0.00    -0.040 C  
BRANCH   7  11
HETATM   11  C   UNL     1     -10.590  14.549  68.865  1.00  0.00    -0.249 A  
HETATM   12  C   UNL     1     -10.395  13.352  68.129  1.00  0.00    -0.247 A  
HETATM   13  I   UNL     1      -9.296  13.223  66.328  1.00  0.00     0.128 I  
HETATM   14  C   UNL     1     -10.943  12.146  68.569  1.00  0.00    -0.276 A  
HETATM   15  C   UNL     1     -11.742  12.110  69.709  1.00  0.00    -0.310 A  
HETATM   16  C   UNL     1     -12.067  13.287  70.410  1.00  0.00    -0.327 A  
HETATM   17  I   UNL     1     -12.451  10.225  70.334  1.00  0.00    -0.100 I  
HETATM   18  N   UNL     1     -12.809  13.219  71.610  1.00  0.00    -0.331 NA 
HETATM   19  C   UNL     1     -11.430  14.488  70.004  1.00  0.00    -0.258 A  
HETATM   20  H1  UNL     1     -13.044  14.073  72.117  1.00  0.00     0.000 HD 
HETATM   21  I   UNL     1     -11.748  16.192  71.246  1.00  0.00    -0.027 I  
HETATM   22  H2  UNL     1     -12.328  12.587  72.250  1.00  0.00     0.000 HD 
ENDBRANCH   7  11
ENDBRANCH   3   7
TORSDOF 2
ENDMDL
MODEL      186
REMARK 921   NORMALIZED FREE ENERGY PREDICTED BY IDOCK:   -1.32 KCAL/MOL
REMARK 922        TOTAL FREE ENERGY PREDICTED BY IDOCK:   -1.57 KCAL/MOL
REMARK 923 INTER-LIGAND FREE ENERGY PREDICTED BY IDOCK:   -4.02 KCAL/MOL
REMARK 924 INTRA-LIGAND FREE ENERGY PREDICTED BY IDOCK:    2.45 KCAL/MOL
REMARK 927      BINDING AFFINITY PREDICTED BY RF-SCORE:    0.00 PKD
ROOT
HETATM    1  C   UNL     1     -10.486   9.699  66.390  1.00  0.00    -0.181 C  
HETATM    2  C   UNL     1     -10.542  11.153  65.949  1.00  0.00    -0.294 C  
HETATM    3  C   UNL     1      -9.220  11.931  66.128  1.00  0.00    -0.199 C  
HETATM    4  C   UNL     1     -10.907  11.206  64.480  1.00  0.00    -0.250 C  
HETATM    5  O   UNL     1     -10.206  10.750  63.590  1.00  0.00    -0.333 OA 
HETATM    6  O   UNL     1     -12.092  11.802  64.232  1.00  0.00    -0.263 OA 
ENDROOT
BRANCH   3   7
HETATM    7  N   UNL     1      -8.755  12.107  67.525  1.00  0.00    -0.165 N  
HETATM    8  C   UNL     1      -7.848  11.165  68.037  1.00  0.00    -0.114 C  
HETATM    9  O   UNL     1      -7.401  10.234  67.364  1.00  0.00    -0.091 OA 
HETATM   10  C   UNL     1      -7.341  11.370  69.449  1.00  0.00     0.012 C  
BRANCH   7  11
HETATM   11  C   UNL     1      -9.701  12.740  68.413  1.00  0.00    -0.186 A  
HETATM   12  C   UNL     1      -9.865  14.149  68.441  1.00  0.00    -0.231 A  
HETATM   13  I   UNL     1      -8.610  15.517  67.430  1.00  0.00    -0.251 I  
HETATM   14  C   UNL     1     -10.902  14.733  69.169  1.00  0.00    -0.267 A  
HETATM   15  C   UNL     1     -11.760  13.943  69.931  1.00  0.00    -0.291 A  
HETATM   16  C   UNL     1     -11.570  12.552  70.036  1.00  0.00    -0.130 A  
HETATM   17  I   UNL     1     -13.344  14.916  70.925  1.00  0.00    -0.177 I  
HETATM   18  N   UNL     1     -12.499  11.759  70.745  1.00  0.00    -0.348 NA 
HETATM   19  C   UNL     1     -10.569  11.964  69.220  1.00  0.00     0.025 A  
HETATM   20  H1  UNL     1     -12.361  10.750  70.821  1.00  0.00     0.000 HD 
HETATM   21  I   UNL     1     -10.486   9.833  69.215  1.00  0.00    -0.285 I  
HETATM   22  H2  UNL     1     -13.427  11.928  70.358  1.00  0.00     0.000 HD 
ENDBRANCH   7  11
ENDBRANCH   3   7
TORSDOF 2
ENDMDL
MODEL      187
REMARK 921   NORMALIZED FREE ENERGY PREDICTED BY IDOCK:   -1.31 KCAL/MOL
REMARK 922        TOTAL FREE ENERGY PREDICTED BY IDOCK:   -1.56 KCAL/MOL
REMARK 923 INTER-LIGAND FREE ENERGY PREDICTED BY IDOCK:   -2.56 KCAL/MOL
REMARK 924 INTRA-LIGAND FREE ENERGY PREDICTED BY IDOCK:    1.00 KCAL/MOL
REMARK 927      BINDING AFFINITY PREDICTED BY RF-SCORE:    0.00 PKD
ROOT
HETATM    1  C   UNL     1     -10.950  18.176  67.455  1.00  0.00    -0.123 C  
HETATM    2  C   UNL     1     -10.198  18.739  68.652  1.00  0.00    -0.366 C  
HETATM    3  C   UNL     1      -8.748  18.229  68.798  1.00  0.00    -0.218 C  
HETATM    4  C   UNL     1     -10.142  20.247  68.530  1.00  0.00    -0.163 C  
HETATM    5  O   UNL     1      -9.561  20.833  67.630  1.00  0.00    -0.362 OA 
HETATM    6  O   UNL     1     -10.803  20.900  69.509  1.00  0.00     0.433 OA 
ENDROOT
BRANCH   3   7
HETATM    7  N   UNL     1      -8.594  16.778  69.061  1.00  0.00    -0.204 N  
HETATM    8  C   UNL     1      -7.366  16.333  69.580  1.00  0.00    -0.078 C  
HETATM    9  O   UNL     1      -6.442  17.099  69.856  1.00  0.00    -0.175 OA 
HETATM   10  C   UNL     1      -7.225  14.858  69.889  1.00  0.00    -0.069 C  
BRANCH   7  11
HETATM   11  C   UNL     1      -9.357  15.910  68.196  1.00  0.00    -0.198 A  
HETATM   12  C   UNL     1     -10.499  15.212  68.664  1.00  0.00    -0.234 A  
HETATM   13  I   UNL     1     -11.086  15.110  70.692  1.00  0.00    -0.129 I  
HETATM   14  C   UNL     1     -11.328  14.522  67.779  1.00  0.00    -0.335 A  
HETATM   15  C   UNL     1     -11.013  14.459  66.424  1.00  0.00    -0.319 A  
HETATM   16  C   UNL     1      -9.829  15.033  65.922  1.00  0.00    -0.338 A  
HETATM   17  I   UNL     1     -12.376  13.464  65.159  1.00  0.00    -0.490 I  
HETATM   18  N   UNL     1      -9.570  15.030  64.534  1.00  0.00     0.062 NA 
HETATM   19  C   UNL     1      -9.045  15.805  66.817  1.00  0.00    -0.249 A  
HETATM   20  H1  UNL     1      -8.711  15.447  64.171  1.00  0.00     0.000 HD 
HETATM   21  I   UNL     1      -7.404  16.865  65.963  1.00  0.00     0.994 I  
HETATM   22  H2  UNL     1     -10.362  15.463  64.058  1.00  0.00     0.000 HD 
ENDBRANCH   7  11
ENDBRANCH   3   7
TORSDOF 2
ENDMDL
MODEL      188
REMARK 921   NORMALIZED FREE ENERGY PREDICTED BY IDOCK:   -1.27 KCAL/MOL
REMARK 922        TOTAL FREE ENERGY PREDICTED BY IDOCK:   -1.52 KCAL/MOL
REMARK 923 INTER-LIGAND FREE ENERGY PREDICTED BY IDOCK:   -2.28 KCAL/MOL
REMARK 924 INTRA-LIGAND FREE ENERGY PREDICTED BY IDOCK:    0.76 KCAL/MOL
REMARK 927      BINDING AFFINITY PREDICTED BY RF-SCORE:    0.00 PKD
ROOT
HETATM    1  C   UNL     1     -10.646   5.253  70.771  1.00  0.00    -0.256 C  
HETATM    2  C   UNL     1     -10.410   5.289  72.273  1.00  0.00    -0.265 C  
HETATM    3  C   UNL     1      -9.961   6.662  72.820  1.00  0.00    -0.172 C  
HETATM    4  C   UNL     1     -11.694   4.914  72.981  1.00  0.00    -0.127 C  
HETATM    5  O   UNL     1     -12.720   5.575  72.919  1.00  0.00     0.189 OA 
HETATM    6  O   UNL     1     -11.614   3.769  73.689  1.00  0.00    -0.166 OA 
ENDROOT
BRANCH   3   7
HETATM    7  N   UNL     1      -8.644   7.151  72.344  1.00  0.00    -0.119 N  
HETATM    8  C   UNL     1      -7.844   7.865  73.251  1.00  0.00    -0.148 C  
HETATM    9  O   UNL     1      -8.175   8.063  74.421  1.00  0.00    -0.236 OA 
HETATM   10  C   UNL     1      -6.482   8.326  72.777  1.00  0.00    -0.094 C  
BRANCH   7  11
HETATM   11  C   UNL     1      -8.574   7.461  70.936  1.00  0.00    -0.135 A  
HETATM   12  C   UNL     1      -7.710   6.754  70.062  1.00  0.00    -0.102 A  
HETATM   13  I   UNL     1      -6.237   5.376  70.696  1.00  0.00    -0.029 I  
HETATM   14  C   UNL     1      -7.782   6.940  68.680  1.00  0.00    -0.113 A  
HETATM   15  C   UNL     1      -8.667   7.869  68.140  1.00  0.00    -0.126 A  
HETATM   16  C   UNL     1      -9.464   8.684  68.968  1.00  0.00    -0.153 A  
HETATM   17  I   UNL     1      -8.758   8.012  66.039  1.00  0.00    -0.153 I  
HETATM   18  N   UNL     1     -10.415   9.561  68.400  1.00  0.00    -0.217 NA 
HETATM   19  C   UNL     1      -9.445   8.421  70.361  1.00  0.00    -0.168 A  
HETATM   20  H1  UNL     1     -10.992  10.151  68.999  1.00  0.00     0.000 HD 
HETATM   21  I   UNL     1     -10.852   9.498  71.547  1.00  0.00     0.309 I  
HETATM   22  H2  UNL     1     -11.031   9.018  67.794  1.00  0.00     0.000 HD 
ENDBRANCH   7  11
ENDBRANCH   3   7
TORSDOF 2
ENDMDL
MODEL      189
REMARK 921   NORMALIZED FREE ENERGY PREDICTED BY IDOCK:   -1.20 KCAL/MOL
REMARK 922        TOTAL FREE ENERGY PREDICTED BY IDOCK:   -1.44 KCAL/MOL
REMARK 923 INTER-LIGAND FREE ENERGY PREDICTED BY IDOCK:   -3.41 KCAL/MOL
REMARK 924 INTRA-LIGAND FREE ENERGY PREDICTED BY IDOCK:    1.97 KCAL/MOL
REMARK 927      BINDING AFFINITY PREDICTED BY RF-SCORE:    0.00 PKD
ROOT
HETATM    1  C   UNL     1      -7.439   5.861  71.683  1.00  0.00    -0.094 C  
HETATM    2  C   UNL     1      -8.717   6.470  72.237  1.00  0.00    -0.130 C  
HETATM    3  C   UNL     1     -10.018   5.897  71.632  1.00  0.00    -0.175 C  
HETATM    4  C   UNL     1      -8.767   6.233  73.731  1.00  0.00    -0.123 C  
HETATM    5  O   UNL     1      -8.833   5.124  74.240  1.00  0.00    -0.113 OA 
HETATM    6  O   UNL     1      -8.725   7.363  74.466  1.00  0.00    -0.205 OA 
ENDROOT
BRANCH   3   7
HETATM    7  N   UNL     1     -10.223   6.146  70.184  1.00  0.00    -0.189 N  
HETATM    8  C   UNL     1     -10.149   5.045  69.314  1.00  0.00    -0.200 C  
HETATM    9  O   UNL     1      -9.960   3.893  69.709  1.00  0.00    -0.145 OA 
HETATM   10  C   UNL     1     -10.403   5.293  67.842  1.00  0.00    -0.189 C  
BRANCH   7  11
HETATM   11  C   UNL     1      -9.816   7.450  69.719  1.00  0.00    -0.171 A  
HETATM   12  C   UNL     1      -8.699   7.616  68.860  1.00  0.00    -0.135 A  
HETATM   13  I   UNL     1      -7.335   6.079  68.365  1.00  0.00    -0.089 I  
HETATM   14  C   UNL     1      -8.424   8.854  68.277  1.00  0.00    -0.130 A  
HETATM   15  C   UNL     1      -9.212   9.963  68.574  1.00  0.00    -0.136 A  
HETATM   16  C   UNL     1     -10.260   9.883  69.512  1.00  0.00    -0.225 A  
HETATM   17  I   UNL     1      -8.764  11.764  67.574  1.00  0.00    -0.187 I  
HETATM   18  N   UNL     1     -11.098  10.997  69.738  1.00  0.00    -0.375 NA 
HETATM   19  C   UNL     1     -10.582   8.601  70.027  1.00  0.00    -0.227 A  
HETATM   20  H1  UNL     1     -11.858  10.939  70.417  1.00  0.00     0.000 HD 
HETATM   21  I   UNL     1     -12.331   8.483  71.240  1.00  0.00    -0.172 I  
HETATM   22  H2  UNL     1     -11.490  11.292  68.843  1.00  0.00     0.000 HD 
ENDBRANCH   7  11
ENDBRANCH   3   7
TORSDOF 2
ENDMDL
MODEL      190
REMARK 921   NORMALIZED FREE ENERGY PREDICTED BY IDOCK:   -1.20 KCAL/MOL
REMARK 922        TOTAL FREE ENERGY PREDICTED BY IDOCK:   -1.44 KCAL/MOL
REMARK 923 INTER-LIGAND FREE ENERGY PREDICTED BY IDOCK:   -2.02 KCAL/MOL
REMARK 924 INTRA-LIGAND FREE ENERGY PREDICTED BY IDOCK:    0.58 KCAL/MOL
REMARK 927      BINDING AFFINITY PREDICTED BY RF-SCORE:    0.00 PKD
ROOT
HETATM    1  C   UNL     1     -11.587   6.003  69.357  1.00  0.00     0.178 C  
HETATM    2  C   UNL     1     -10.639   6.710  70.313  1.00  0.00    -0.265 C  
HETATM    3  C   UNL     1      -9.293   7.136  69.687  1.00  0.00    -0.149 C  
HETATM    4  C   UNL     1     -11.313   7.960  70.838  1.00  0.00    -0.277 C  
HETATM    5  O   UNL     1     -11.634   8.904  70.133  1.00  0.00    -0.126 OA 
HETATM    6  O   UNL     1     -11.541   7.942  72.168  1.00  0.00    -0.288 OA 
ENDROOT
BRANCH   3   7
HETATM    7  N   UNL     1      -8.414   6.033  69.227  1.00  0.00    -0.114 N  
HETATM    8  C   UNL     1      -7.899   5.158  70.198  1.00  0.00    -0.078 C  
HETATM    9  O   UNL     1      -8.178   5.250  71.395  1.00  0.00    -0.112 OA 
HETATM   10  C   UNL     1      -7.038   4.007  69.723  1.00  0.00    -0.042 C  
BRANCH   7  11
HETATM   11  C   UNL     1      -7.641   6.315  68.041  1.00  0.00    -0.102 A  
HETATM   12  C   UNL     1      -7.800   5.556  66.853  1.00  0.00    -0.101 A  
HETATM   13  I   UNL     1      -8.943   3.784  66.714  1.00  0.00    -0.197 I  
HETATM   14  C   UNL     1      -7.181   5.950  65.666  1.00  0.00    -0.075 A  
HETATM   15  C   UNL     1      -6.348   7.065  65.642  1.00  0.00    -0.046 A  
HETATM   16  C   UNL     1      -6.060   7.786  66.817  1.00  0.00    -0.048 A  
HETATM   17  I   UNL     1      -5.531   7.623  63.780  1.00  0.00    -0.042 I  
HETATM   18  N   UNL     1      -5.280   8.962  66.757  1.00  0.00    -0.038 NA 
HETATM   19  C   UNL     1      -6.765   7.428  67.995  1.00  0.00    -0.055 A  
HETATM   20  H1  UNL     1      -5.072   9.484  67.609  1.00  0.00     0.000 HD 
HETATM   21  I   UNL     1      -6.494   8.703  69.683  1.00  0.00    -0.040 I  
HETATM   22  H2  UNL     1      -5.711   9.599  66.087  1.00  0.00     0.000 HD 
ENDBRANCH   7  11
ENDBRANCH   3   7
TORSDOF 2
ENDMDL
MODEL      191
REMARK 921   NORMALIZED FREE ENERGY PREDICTED BY IDOCK:   -1.20 KCAL/MOL
REMARK 922        TOTAL FREE ENERGY PREDICTED BY IDOCK:   -1.44 KCAL/MOL
REMARK 923 INTER-LIGAND FREE ENERGY PREDICTED BY IDOCK:   -4.21 KCAL/MOL
REMARK 924 INTRA-LIGAND FREE ENERGY PREDICTED BY IDOCK:    2.78 KCAL/MOL
REMARK 927      BINDING AFFINITY PREDICTED BY RF-SCORE:    0.00 PKD
ROOT
HETATM    1  C   UNL     1     -10.829  15.964  66.701  1.00  0.00    -0.213 C  
HETATM    2  C   UNL     1      -9.595  15.227  67.198  1.00  0.00    -0.223 C  
HETATM    3  C   UNL     1      -9.094  14.107  66.260  1.00  0.00    -0.040 C  
HETATM    4  C   UNL     1      -8.465  16.219  67.367  1.00  0.00    -0.172 C  
HETATM    5  O   UNL     1      -7.970  16.847  66.443  1.00  0.00    -0.263 OA 
HETATM    6  O   UNL     1      -8.048  16.363  68.642  1.00  0.00    -0.194 OA 
ENDROOT
BRANCH   3   7
HETATM    7  N   UNL     1     -10.016  12.961  66.068  1.00  0.00    -0.271 N  
HETATM    8  C   UNL     1     -11.143  13.156  65.253  1.00  0.00    -0.283 C  
HETATM    9  O   UNL     1     -11.369  14.217  64.668  1.00  0.00    -0.369 OA 
HETATM   10  C   UNL     1     -12.059  11.973  65.023  1.00  0.00    -0.204 C  
BRANCH   7  11
HETATM   11  C   UNL     1     -10.090  12.038  67.176  1.00  0.00    -0.201 A  
HETATM   12  C   UNL     1     -10.951  12.271  68.280  1.00  0.00    -0.232 A  
HETATM   13  I   UNL     1     -12.015  14.069  68.605  1.00  0.00    -0.136 I  
HETATM   14  C   UNL     1     -11.146  11.290  69.253  1.00  0.00    -0.314 A  
HETATM   15  C   UNL     1     -10.452  10.085  69.187  1.00  0.00    -0.219 A  
HETATM   16  C   UNL     1      -9.496   9.848  68.180  1.00  0.00    -0.138 A  
HETATM   17  I   UNL     1     -10.884   8.638  70.658  1.00  0.00    -0.307 I  
HETATM   18  N   UNL     1      -8.864   8.588  68.082  1.00  0.00    -0.142 NA 
HETATM   19  C   UNL     1      -9.375  10.815  67.150  1.00  0.00    -0.155 A  
HETATM   20  H1  UNL     1      -8.172   8.417  67.352  1.00  0.00     0.000 HD 
HETATM   21  I   UNL     1      -8.108  10.301  65.514  1.00  0.00    -0.139 I  
HETATM   22  H2  UNL     1      -9.586   7.870  68.014  1.00  0.00     0.000 HD 
ENDBRANCH   7  11
ENDBRANCH   3   7
TORSDOF 2
ENDMDL
MODEL      192
REMARK 921   NORMALIZED FREE ENERGY PREDICTED BY IDOCK:   -1.18 KCAL/MOL
REMARK 922        TOTAL FREE ENERGY PREDICTED BY IDOCK:   -1.42 KCAL/MOL
REMARK 923 INTER-LIGAND FREE ENERGY PREDICTED BY IDOCK:   -3.98 KCAL/MOL
REMARK 924 INTRA-LIGAND FREE ENERGY PREDICTED BY IDOCK:    2.56 KCAL/MOL
REMARK 927      BINDING AFFINITY PREDICTED BY RF-SCORE:    0.00 PKD
ROOT
HETATM    1  C   UNL     1      -8.854  16.122  65.988  1.00  0.00    -0.313 C  
HETATM    2  C   UNL     1     -10.360  15.908  65.998  1.00  0.00    -0.363 C  
HETATM    3  C   UNL     1     -11.043  16.203  67.351  1.00  0.00    -0.134 C  
HETATM    4  C   UNL     1     -10.991  16.814  64.962  1.00  0.00    -0.108 C  
HETATM    5  O   UNL     1     -10.957  18.034  65.018  1.00  0.00    -0.748 OA 
HETATM    6  O   UNL     1     -11.596  16.154  63.953  1.00  0.00    -0.834 OA 
ENDROOT
BRANCH   3   7
HETATM    7  N   UNL     1     -10.654  15.322  68.479  1.00  0.00    -0.231 N  
HETATM    8  C   UNL     1     -10.819  15.817  69.784  1.00  0.00    -0.314 C  
HETATM    9  O   UNL     1     -11.304  16.925  70.021  1.00  0.00     0.100 OA 
HETATM   10  C   UNL     1     -10.463  14.901  70.935  1.00  0.00     0.442 C  
BRANCH   7  11
HETATM   11  C   UNL     1      -9.579  14.400  68.199  1.00  0.00    -0.218 A  
HETATM   12  C   UNL     1      -9.832  13.078  67.750  1.00  0.00    -0.224 A  
HETATM   13  I   UNL     1     -11.748  12.186  67.688  1.00  0.00    -0.084 I  
HETATM   14  C   UNL     1      -8.790  12.260  67.313  1.00  0.00    -0.190 A  
HETATM   15  C   UNL     1      -7.473  12.709  67.366  1.00  0.00    -0.146 A  
HETATM   16  C   UNL     1      -7.152  13.966  67.913  1.00  0.00    -0.163 A  
HETATM   17  I   UNL     1      -5.983  11.427  66.602  1.00  0.00     0.012 I  
HETATM   18  N   UNL     1      -5.820  14.437  67.881  1.00  0.00    -0.211 NA 
HETATM   19  C   UNL     1      -8.227  14.820  68.269  1.00  0.00    -0.142 A  
HETATM   20  H1  UNL     1      -5.588  15.348  68.277  1.00  0.00     0.000 HD 
HETATM   21  I   UNL     1      -7.706  16.804  68.850  1.00  0.00    -0.111 I  
HETATM   22  H2  UNL     1      -5.495  14.415  66.914  1.00  0.00     0.000 HD 
ENDBRANCH   7  11
ENDBRANCH   3   7
TORSDOF 2
ENDMDL
MODEL      193
REMARK 921   NORMALIZED FREE ENERGY PREDICTED BY IDOCK:   -1.17 KCAL/MOL
REMARK 922        TOTAL FREE ENERGY PREDICTED BY IDOCK:   -1.41 KCAL/MOL
REMARK 923 INTER-LIGAND FREE ENERGY PREDICTED BY IDOCK:   -3.17 KCAL/MOL
REMARK 924 INTRA-LIGAND FREE ENERGY PREDICTED BY IDOCK:    1.76 KCAL/MOL
REMARK 927      BINDING AFFINITY PREDICTED BY RF-SCORE:    0.00 PKD
ROOT
HETATM    1  C   UNL     1      -8.226   6.932  66.505  1.00  0.00    -0.117 C  
HETATM    2  C   UNL     1      -7.928   7.532  65.139  1.00  0.00    -0.128 C  
HETATM    3  C   UNL     1      -6.860   8.647  65.145  1.00  0.00    -0.068 C  
HETATM    4  C   UNL     1      -7.437   6.435  64.218  1.00  0.00    -0.091 C  
HETATM    5  O   UNL     1      -6.401   5.812  64.398  1.00  0.00    -0.031 OA 
HETATM    6  O   UNL     1      -8.253   6.192  63.171  1.00  0.00    -0.103 OA 
ENDROOT
BRANCH   3   7
HETATM    7  N   UNL     1      -7.213   9.879  65.891  1.00  0.00    -0.103 N  
HETATM    8  C   UNL     1      -6.242  10.889  65.984  1.00  0.00    -0.115 C  
HETATM    9  O   UNL     1      -5.138  10.806  65.442  1.00  0.00    -0.108 OA 
HETATM   10  C   UNL     1      -6.618  12.164  66.708  1.00  0.00     0.114 C  
BRANCH   7  11
HETATM   11  C   UNL     1      -8.156   9.697  66.969  1.00  0.00    -0.113 A  
HETATM   12  C   UNL     1      -7.767   9.124  68.207  1.00  0.00    -0.091 A  
HETATM   13  I   UNL     1      -5.890   8.221  68.567  1.00  0.00    -0.042 I  
HETATM   14  C   UNL     1      -8.638   9.118  69.297  1.00  0.00    -0.137 A  
HETATM   15  C   UNL     1      -9.929   9.625  69.169  1.00  0.00    -0.185 A  
HETATM   16  C   UNL     1     -10.408  10.097  67.932  1.00  0.00    -0.194 A  
HETATM   17  I   UNL     1     -11.135   9.647  70.899  1.00  0.00    -0.404 I  
HETATM   18  N   UNL     1     -11.690  10.684  67.843  1.00  0.00    -0.724 NA 
HETATM   19  C   UNL     1      -9.484  10.179  66.859  1.00  0.00    -0.169 A  
HETATM   20  H1  UNL     1     -12.037  11.026  66.946  1.00  0.00     0.000 HD 
HETATM   21  I   UNL     1     -10.178  11.136  65.085  1.00  0.00    -0.359 I  
HETATM   22  H2  UNL     1     -11.743  11.445  68.520  1.00  0.00     0.000 HD 
ENDBRANCH   7  11
ENDBRANCH   3   7
TORSDOF 2
ENDMDL
MODEL      194
REMARK 921   NORMALIZED FREE ENERGY PREDICTED BY IDOCK:   -1.04 KCAL/MOL
REMARK 922        TOTAL FREE ENERGY PREDICTED BY IDOCK:   -1.26 KCAL/MOL
REMARK 923 INTER-LIGAND FREE ENERGY PREDICTED BY IDOCK:   -2.58 KCAL/MOL
REMARK 924 INTRA-LIGAND FREE ENERGY PREDICTED BY IDOCK:    1.33 KCAL/MOL
REMARK 927      BINDING AFFINITY PREDICTED BY RF-SCORE:    0.00 PKD
ROOT
HETATM    1  C   UNL     1      -8.104   4.821  69.041  1.00  0.00    -0.078 C  
HETATM    2  C   UNL     1      -9.122   4.435  70.103  1.00  0.00    -0.167 C  
HETATM    3  C   UNL     1     -10.415   5.280  70.093  1.00  0.00    -0.268 C  
HETATM    4  C   UNL     1      -9.521   2.990  69.899  1.00  0.00    -0.119 C  
HETATM    5  O   UNL     1     -10.100   2.580  68.904  1.00  0.00     0.466 OA 
HETATM    6  O   UNL     1      -9.173   2.176  70.917  1.00  0.00    -0.097 OA 
ENDROOT
BRANCH   3   7
HETATM    7  N   UNL     1     -10.251   6.720  70.409  1.00  0.00    -0.190 N  
HETATM    8  C   UNL     1     -11.401   7.451  70.750  1.00  0.00    -0.280 C  
HETATM    9  O   UNL     1     -12.518   6.937  70.833  1.00  0.00    -0.378 OA 
HETATM   10  C   UNL     1     -11.227   8.910  71.115  1.00  0.00    -0.352 C  
BRANCH   7  11
HETATM   11  C   UNL     1      -9.165   7.381  69.725  1.00  0.00    -0.140 A  
HETATM   12  C   UNL     1      -8.013   7.830  70.421  1.00  0.00    -0.095 A  
HETATM   13  I   UNL     1      -7.825   7.855  72.526  1.00  0.00    -0.194 I  
HETATM   14  C   UNL     1      -6.898   8.303  69.727  1.00  0.00    -0.044 A  
HETATM   15  C   UNL     1      -6.921   8.397  68.338  1.00  0.00    -0.069 A  
HETATM   16  C   UNL     1      -8.080   8.079  67.604  1.00  0.00    -0.124 A  
HETATM   17  I   UNL     1      -5.156   9.044  67.382  1.00  0.00    -0.033 I  
HETATM   18  N   UNL     1      -8.057   8.101  66.192  1.00  0.00    -0.104 NA 
HETATM   19  C   UNL     1      -9.171   7.516  68.314  1.00  0.00    -0.138 A  
HETATM   20  H1  UNL     1      -8.897   7.870  65.660  1.00  0.00     0.000 HD 
HETATM   21  I   UNL     1     -10.803   6.811  67.136  1.00  0.00    -0.178 I  
HETATM   22  H2  UNL     1      -7.299   7.497  65.873  1.00  0.00     0.000 HD 
ENDBRANCH   7  11
ENDBRANCH   3   7
TORSDOF 2
ENDMDL
MODEL      195
REMARK 921   NORMALIZED FREE ENERGY PREDICTED BY IDOCK:   -0.84 KCAL/MOL
REMARK 922        TOTAL FREE ENERGY PREDICTED BY IDOCK:   -1.04 KCAL/MOL
REMARK 923 INTER-LIGAND FREE ENERGY PREDICTED BY IDOCK:   -2.83 KCAL/MOL
REMARK 924 INTRA-LIGAND FREE ENERGY PREDICTED BY IDOCK:    1.79 KCAL/MOL
REMARK 927      BINDING AFFINITY PREDICTED BY RF-SCORE:    0.00 PKD
ROOT
HETATM    1  C   UNL     1      -9.071   9.687  69.807  1.00  0.00    -0.232 C  
HETATM    2  C   UNL     1      -7.554   9.583  69.811  1.00  0.00    -0.110 C  
HETATM    3  C   UNL     1      -6.963   8.748  68.654  1.00  0.00    -0.064 C  
HETATM    4  C   UNL     1      -6.966  10.974  69.715  1.00  0.00    -0.090 C  
HETATM    5  O   UNL     1      -7.118  11.709  68.751  1.00  0.00    -0.092 OA 
HETATM    6  O   UNL     1      -6.257  11.346  70.801  1.00  0.00    -0.343 OA 
ENDROOT
BRANCH   3   7
HETATM    7  N   UNL     1      -7.317   7.307  68.648  1.00  0.00    -0.097 N  
HETATM    8  C   UNL     1      -7.399   6.659  67.404  1.00  0.00    -0.095 C  
HETATM    9  O   UNL     1      -7.154   7.226  66.338  1.00  0.00    -0.073 OA 
HETATM   10  C   UNL     1      -7.717   5.179  67.401  1.00  0.00    -0.092 C  
BRANCH   7  11
HETATM   11  C   UNL     1      -8.166   6.876  69.733  1.00  0.00    -0.131 A  
HETATM   12  C   UNL     1      -9.568   6.737  69.568  1.00  0.00    -0.147 A  
HETATM   13  I   UNL     1     -10.638   7.377  67.861  1.00  0.00    -0.136 I  
HETATM   14  C   UNL     1     -10.350   6.151  70.564  1.00  0.00    -0.270 A  
HETATM   15  C   UNL     1      -9.772   5.746  71.765  1.00  0.00    -0.156 A  
HETATM   16  C   UNL     1      -8.407   5.969  72.030  1.00  0.00    -0.118 A  
HETATM   17  I   UNL     1     -11.026   4.795  73.169  1.00  0.00    -0.364 I  
HETATM   18  N   UNL     1      -7.824   5.476  73.218  1.00  0.00    -0.103 NA 
HETATM   19  C   UNL     1      -7.610   6.482  70.975  1.00  0.00    -0.089 A  
HETATM   20  H1  UNL     1      -6.834   5.638  73.410  1.00  0.00     0.000 HD 
HETATM   21  I   UNL     1      -5.510   6.564  71.331  1.00  0.00    -0.028 I  
HETATM   22  H2  UNL     1      -8.001   4.473  73.272  1.00  0.00     0.000 HD 
ENDBRANCH   7  11
ENDBRANCH   3   7
TORSDOF 2
ENDMDL
MODEL      196
REMARK 921   NORMALIZED FREE ENERGY PREDICTED BY IDOCK:   -0.68 KCAL/MOL
REMARK 922        TOTAL FREE ENERGY PREDICTED BY IDOCK:   -0.86 KCAL/MOL
REMARK 923 INTER-LIGAND FREE ENERGY PREDICTED BY IDOCK:   -2.24 KCAL/MOL
REMARK 924 INTRA-LIGAND FREE ENERGY PREDICTED BY IDOCK:    1.39 KCAL/MOL
REMARK 927      BINDING AFFINITY PREDICTED BY RF-SCORE:    0.00 PKD
ROOT
HETATM    1  C   UNL     1      -6.455  11.111  65.583  1.00  0.00     0.222 C  
HETATM    2  C   UNL     1      -6.786  10.238  66.784  1.00  0.00    -0.083 C  
HETATM    3  C   UNL     1      -7.731  10.894  67.814  1.00  0.00    -0.107 C  
HETATM    4  C   UNL     1      -7.452   8.968  66.298  1.00  0.00    -0.092 C  
HETATM    5  O   UNL     1      -8.530   8.944  65.725  1.00  0.00    -0.128 OA 
HETATM    6  O   UNL     1      -6.742   7.848  66.548  1.00  0.00    -0.056 OA 
ENDROOT
BRANCH   3   7
HETATM    7  N   UNL     1      -7.200  12.092  68.509  1.00  0.00    -0.096 N  
HETATM    8  C   UNL     1      -6.574  11.903  69.753  1.00  0.00    -0.022 C  
HETATM    9  O   UNL     1      -6.416  10.791  70.260  1.00  0.00    -0.146 OA 
HETATM   10  C   UNL     1      -5.994  13.121  70.441  1.00  0.00    -0.115 C  
BRANCH   7  11
HETATM   11  C   UNL     1      -7.913  13.320  68.251  1.00  0.00    -0.144 A  
HETATM   12  C   UNL     1      -7.235  14.504  67.861  1.00  0.00    -0.158 A  
HETATM   13  I   UNL     1      -5.133  14.731  67.864  1.00  0.00     0.132 I  
HETATM   14  C   UNL     1      -7.946  15.629  67.442  1.00  0.00    -0.204 A  
HETATM   15  C   UNL     1      -9.338  15.628  67.455  1.00  0.00    -0.206 A  
HETATM   16  C   UNL     1     -10.062  14.524  67.945  1.00  0.00    -0.227 A  
HETATM   17  I   UNL     1     -10.314  17.347  66.722  1.00  0.00    -0.170 I  
HETATM   18  N   UNL     1     -11.472  14.509  67.873  1.00  0.00    -0.309 NA 
HETATM   19  C   UNL     1      -9.329  13.357  68.282  1.00  0.00    -0.205 A  
HETATM   20  H1  UNL     1     -11.997  13.709  68.228  1.00  0.00     0.000 HD 
HETATM   21  I   UNL     1     -10.477  11.629  68.773  1.00  0.00    -0.128 I  
HETATM   22  H2  UNL     1     -11.746  14.668  66.903  1.00  0.00     0.000 HD 
ENDBRANCH   7  11
ENDBRANCH   3   7
TORSDOF 2
ENDMDL
MODEL      197
REMARK 921   NORMALIZED FREE ENERGY PREDICTED BY IDOCK:   -0.58 KCAL/MOL
REMARK 922        TOTAL FREE ENERGY PREDICTED BY IDOCK:   -0.75 KCAL/MOL
REMARK 923 INTER-LIGAND FREE ENERGY PREDICTED BY IDOCK:   -2.70 KCAL/MOL
REMARK 924 INTRA-LIGAND FREE ENERGY PREDICTED BY IDOCK:    1.96 KCAL/MOL
REMARK 927      BINDING AFFINITY PREDICTED BY RF-SCORE:    0.00 PKD
ROOT
HETATM    1  C   UNL     1      -7.164  10.145  69.109  1.00  0.00    -0.081 C  
HETATM    2  C   UNL     1      -8.335   9.744  68.227  1.00  0.00    -0.106 C  
HETATM    3  C   UNL     1      -9.580   9.250  68.995  1.00  0.00    -0.159 C  
HETATM    4  C   UNL     1      -8.756  10.937  67.396  1.00  0.00    -0.130 C  
HETATM    5  O   UNL     1      -9.204  11.970  67.872  1.00  0.00    -0.176 OA 
HETATM    6  O   UNL     1      -8.587  10.768  66.069  1.00  0.00    -0.166 OA 
ENDROOT
BRANCH   3   7
HETATM    7  N   UNL     1      -9.408   7.999  69.773  1.00  0.00    -0.159 N  
HETATM    8  C   UNL     1      -9.603   8.061  71.163  1.00  0.00    -0.160 C  
HETATM    9  O   UNL     1      -9.945   9.092  71.744  1.00  0.00    -0.325 OA 
HETATM   10  C   UNL     1      -9.470   6.774  71.951  1.00  0.00    -0.146 C  
BRANCH   7  11
HETATM   11  C   UNL     1      -8.454   7.061  69.229  1.00  0.00    -0.133 A  
HETATM   12  C   UNL     1      -7.198   6.836  69.849  1.00  0.00    -0.080 A  
HETATM   13  I   UNL     1      -6.431   7.990  71.445  1.00  0.00    -0.051 I  
HETATM   14  C   UNL     1      -6.364   5.803  69.419  1.00  0.00    -0.040 A  
HETATM   15  C   UNL     1      -6.728   5.011  68.332  1.00  0.00    -0.054 A  
HETATM   16  C   UNL     1      -7.906   5.266  67.605  1.00  0.00    -0.096 A  
HETATM   17  I   UNL     1      -5.438   3.424  67.817  1.00  0.00    -0.019 I  
HETATM   18  N   UNL     1      -8.299   4.401  66.560  1.00  0.00    -0.106 NA 
HETATM   19  C   UNL     1      -8.785   6.260  68.109  1.00  0.00    -0.115 A  
HETATM   20  H1  UNL     1      -9.153   4.586  66.033  1.00  0.00     0.000 HD 
HETATM   21  I   UNL     1     -10.671   6.437  67.131  1.00  0.00    -0.401 I  
HETATM   22  H2  UNL     1      -8.349   3.452  66.930  1.00  0.00     0.000 HD 
ENDBRANCH   7  11
ENDBRANCH   3   7
TORSDOF 2
ENDMDL
MODEL      198
REMARK 921   NORMALIZED FREE ENERGY PREDICTED BY IDOCK:   -0.55 KCAL/MOL
REMARK 922        TOTAL FREE ENERGY PREDICTED BY IDOCK:   -0.72 KCAL/MOL
REMARK 923 INTER-LIGAND FREE ENERGY PREDICTED BY IDOCK:   -3.72 KCAL/MOL
REMARK 924 INTRA-LIGAND FREE ENERGY PREDICTED BY IDOCK:    3.00 KCAL/MOL
REMARK 927      BINDING AFFINITY PREDICTED BY RF-SCORE:    0.00 PKD
ROOT
HETATM    1  C   UNL     1     -13.020  15.347  69.460  1.00  0.00     0.461 C  
HETATM    2  C   UNL     1     -11.606  15.483  70.003  1.00  0.00    -0.356 C  
HETATM    3  C   UNL     1     -10.747  16.558  69.301  1.00  0.00    -0.331 C  
HETATM    4  C   UNL     1     -11.677  15.843  71.472  1.00  0.00    -0.475 C  
HETATM    5  O   UNL     1     -12.157  16.885  71.892  1.00  0.00     0.227 OA 
HETATM    6  O   UNL     1     -11.165  14.902  72.292  1.00  0.00    -0.173 OA 
ENDROOT
BRANCH   3   7
HETATM    7  N   UNL     1     -10.447  16.315  67.870  1.00  0.00    -0.285 N  
HETATM    8  C   UNL     1     -10.857  15.091  67.313  1.00  0.00    -0.310 C  
HETATM    9  O   UNL     1     -11.481  14.242  67.953  1.00  0.00    -0.281 OA 
HETATM   10  C   UNL     1     -10.589  14.863  65.841  1.00  0.00    -0.334 C  
BRANCH   7  11
HETATM   11  C   UNL     1      -9.256  16.960  67.371  1.00  0.00    -0.222 A  
HETATM   12  C   UNL     1      -8.025  16.264  67.262  1.00  0.00    -0.167 A  
HETATM   13  I   UNL     1      -7.675  14.329  68.040  1.00  0.00    -0.213 I  
HETATM   14  C   UNL     1      -6.932  16.842  66.616  1.00  0.00    -0.281 A  
HETATM   15  C   UNL     1      -7.015  18.139  66.116  1.00  0.00    -0.279 A  
HETATM   16  C   UNL     1      -8.172  18.920  66.302  1.00  0.00    -0.268 A  
HETATM   17  I   UNL     1      -5.336  18.887  65.082  1.00  0.00    -0.272 I  
HETATM   18  N   UNL     1      -8.267  20.202  65.716  1.00  0.00    -0.502 NA 
HETATM   19  C   UNL     1      -9.303  18.289  66.880  1.00  0.00    -0.286 A  
HETATM   20  H1  UNL     1      -9.106  20.767  65.851  1.00  0.00     0.000 HD 
HETATM   21  I   UNL     1     -11.108  19.423  66.908  1.00  0.00     0.630 I  
HETATM   22  H2  UNL     1      -8.098  20.111  64.714  1.00  0.00     0.000 HD 
ENDBRANCH   7  11
ENDBRANCH   3   7
TORSDOF 2
ENDMDL
MODEL      199
REMARK 921   NORMALIZED FREE ENERGY PREDICTED BY IDOCK:   -0.55 KCAL/MOL
REMARK 922        TOTAL FREE ENERGY PREDICTED BY IDOCK:   -0.72 KCAL/MOL
REMARK 923 INTER-LIGAND FREE ENERGY PREDICTED BY IDOCK:   -2.81 KCAL/MOL
REMARK 924 INTRA-LIGAND FREE ENERGY PREDICTED BY IDOCK:    2.10 KCAL/MOL
REMARK 927      BINDING AFFINITY PREDICTED BY RF-SCORE:    0.00 PKD
ROOT
HETATM    1  C   UNL     1      -9.346   8.540  73.311  1.00  0.00     0.013 C  
HETATM    2  C   UNL     1      -8.751   7.196  72.922  1.00  0.00    -0.144 C  
HETATM    3  C   UNL     1      -8.612   6.970  71.400  1.00  0.00    -0.121 C  
HETATM    4  C   UNL     1      -7.368   7.077  73.528  1.00  0.00    -0.076 C  
HETATM    5  O   UNL     1      -6.434   7.807  73.234  1.00  0.00    -0.064 OA 
HETATM    6  O   UNL     1      -7.253   6.089  74.439  1.00  0.00    -0.087 OA 
ENDROOT
BRANCH   3   7
HETATM    7  N   UNL     1      -9.881   6.918  70.634  1.00  0.00    -0.183 N  
HETATM    8  C   UNL     1     -11.079   6.803  71.360  1.00  0.00    -0.254 C  
HETATM    9  O   UNL     1     -11.115   6.784  72.591  1.00  0.00    -0.250 OA 
HETATM   10  C   UNL     1     -12.377   6.794  70.579  1.00  0.00    -0.160 C  
BRANCH   7  11
HETATM   11  C   UNL     1      -9.785   6.326  69.321  1.00  0.00    -0.136 A  
HETATM   12  C   UNL     1      -9.707   7.124  68.151  1.00  0.00    -0.139 A  
HETATM   13  I   UNL     1      -9.989   9.219  68.114  1.00  0.00    -0.252 I  
HETATM   14  C   UNL     1      -9.435   6.547  66.910  1.00  0.00    -0.178 A  
HETATM   15  C   UNL     1      -9.292   5.167  66.791  1.00  0.00    -0.134 A  
HETATM   16  C   UNL     1      -9.477   4.316  67.898  1.00  0.00    -0.165 A  
HETATM   17  I   UNL     1      -8.798   4.406  64.888  1.00  0.00    -0.155 I  
HETATM   18  N   UNL     1      -9.247   2.928  67.774  1.00  0.00    -0.190 NA 
HETATM   19  C   UNL     1      -9.664   4.922  69.166  1.00  0.00    -0.182 A  
HETATM   20  H1  UNL     1      -9.381   2.312  68.577  1.00  0.00     0.000 HD 
HETATM   21  I   UNL     1      -9.683   3.611  70.847  1.00  0.00     0.045 I  
HETATM   22  H2  UNL     1      -8.301   2.790  67.418  1.00  0.00     0.000 HD 
ENDBRANCH   7  11
ENDBRANCH   3   7
TORSDOF 2
ENDMDL
MODEL      200
REMARK 921   NORMALIZED FREE ENERGY PREDICTED BY IDOCK:   -0.26 KCAL/MOL
REMARK 922        TOTAL FREE ENERGY PREDICTED BY IDOCK:   -0.39 KCAL/MOL
REMARK 923 INTER-LIGAND FREE ENERGY PREDICTED BY IDOCK:   -2.50 KCAL/MOL
REMARK 924 INTRA-LIGAND FREE ENERGY PREDICTED BY IDOCK:    2.11 KCAL/MOL
REMARK 927      BINDING AFFINITY PREDICTED BY RF-SCORE:    0.00 PKD
ROOT
HETATM    1  C   UNL     1     -10.070  16.370  69.700  1.00  0.00    -0.149 C  
HETATM    2  C   UNL     1     -10.233  15.055  68.954  1.00  0.00    -0.235 C  
HETATM    3  C   UNL     1      -9.014  14.110  69.043  1.00  0.00     0.116 C  
HETATM    4  C   UNL     1     -11.425  14.314  69.521  1.00  0.00    -0.287 C  
HETATM    5  O   UNL     1     -11.487  13.907  70.671  1.00  0.00    -0.094 OA 
HETATM    6  O   UNL     1     -12.434  14.146  68.640  1.00  0.00    -0.145 OA 
ENDROOT
BRANCH   3   7
HETATM    7  N   UNL     1      -7.764  14.604  68.416  1.00  0.00    -0.118 N  
HETATM    8  C   UNL     1      -6.787  13.656  68.069  1.00  0.00    -0.138 C  
HETATM    9  O   UNL     1      -6.946  12.444  68.228  1.00  0.00    -0.076 OA 
HETATM   10  C   UNL     1      -5.530  14.156  67.389  1.00  0.00     0.369 C  
BRANCH   7  11
HETATM   11  C   UNL     1      -7.358  15.931  68.813  1.00  0.00    -0.159 A  
HETATM   12  C   UNL     1      -6.457  16.142  69.888  1.00  0.00    -0.103 A  
HETATM   13  I   UNL     1      -5.803  14.628  71.211  1.00  0.00     0.253 I  
HETATM   14  C   UNL     1      -5.936  17.410  70.145  1.00  0.00    -0.113 A  
HETATM   15  C   UNL     1      -6.339  18.505  69.384  1.00  0.00    -0.258 A  
HETATM   16  C   UNL     1      -7.320  18.375  68.383  1.00  0.00    -0.276 A  
HETATM   17  I   UNL     1      -5.428  20.360  69.799  1.00  0.00    -0.397 I  
HETATM   18  N   UNL     1      -7.654  19.479  67.567  1.00  0.00    -0.249 NA 
HETATM   19  C   UNL     1      -7.773  17.067  68.074  1.00  0.00    -0.180 A  
HETATM   20  H1  UNL     1      -8.366  19.385  66.841  1.00  0.00     0.000 HD 
HETATM   21  I   UNL     1      -9.062  16.887  66.385  1.00  0.00    -0.258 I  
HETATM   22  H2  UNL     1      -6.799  19.830  67.135  1.00  0.00     0.000 HD 
ENDBRANCH   7  11
ENDBRANCH   3   7
TORSDOF 2
ENDMDL
MODEL      201
REMARK 921   NORMALIZED FREE ENERGY PREDICTED BY IDOCK:   -0.25 KCAL/MOL
REMARK 922        TOTAL FREE ENERGY PREDICTED BY IDOCK:   -0.38 KCAL/MOL
REMARK 923 INTER-LIGAND FREE ENERGY PREDICTED BY IDOCK:   -2.67 KCAL/MOL
REMARK 924 INTRA-LIGAND FREE ENERGY PREDICTED BY IDOCK:    2.29 KCAL/MOL
REMARK 927      BINDING AFFINITY PREDICTED BY RF-SCORE:    0.00 PKD
ROOT
HETATM    1  C   UNL     1      -7.908   4.984  71.866  1.00  0.00    -0.109 C  
HETATM    2  C   UNL     1      -7.370   5.776  70.684  1.00  0.00    -0.084 C  
HETATM    3  C   UNL     1      -6.237   6.764  71.033  1.00  0.00    -0.040 C  
HETATM    4  C   UNL     1      -6.830   4.810  69.651  1.00  0.00    -0.052 C  
HETATM    5  O   UNL     1      -5.880   4.067  69.849  1.00  0.00    -0.016 OA 
HETATM    6  O   UNL     1      -7.498   4.830  68.479  1.00  0.00    -0.064 OA 
ENDROOT
BRANCH   3   7
HETATM    7  N   UNL     1      -6.606   7.879  71.939  1.00  0.00    -0.047 N  
HETATM    8  C   UNL     1      -6.219   7.783  73.287  1.00  0.00    -0.065 C  
HETATM    9  O   UNL     1      -5.560   6.839  73.727  1.00  0.00    -0.049 OA 
HETATM   10  C   UNL     1      -6.557   8.942  74.201  1.00  0.00     0.004 C  
BRANCH   7  11
HETATM   11  C   UNL     1      -7.823   8.575  71.596  1.00  0.00    -0.124 A  
HETATM   12  C   UNL     1      -7.880   9.475  70.501  1.00  0.00    -0.157 A  
HETATM   13  I   UNL     1      -6.195  10.133  69.408  1.00  0.00    -0.063 I  
HETATM   14  C   UNL     1      -9.100  10.001  70.072  1.00  0.00    -0.133 A  
HETATM   15  C   UNL     1     -10.276   9.695  70.751  1.00  0.00    -0.260 A  
HETATM   16  C   UNL     1     -10.262   8.903  71.915  1.00  0.00    -0.333 A  
HETATM   17  I   UNL     1     -12.074  10.473  69.970  1.00  0.00    -0.236 I  
HETATM   18  N   UNL     1     -11.475   8.536  72.541  1.00  0.00    -0.352 NA 
HETATM   19  C   UNL     1      -9.031   8.304  72.286  1.00  0.00    -0.213 A  
HETATM   20  H1  UNL     1     -11.464   7.962  73.384  1.00  0.00     0.000 HD 
HETATM   21  I   UNL     1      -9.105   6.912  73.899  1.00  0.00    -0.276 I  
HETATM   22  H2  UNL     1     -12.068   8.078  71.848  1.00  0.00     0.000 HD 
ENDBRANCH   7  11
ENDBRANCH   3   7
TORSDOF 2
ENDMDL
MODEL      202
REMARK 921   NORMALIZED FREE ENERGY PREDICTED BY IDOCK:   -0.17 KCAL/MOL
REMARK 922        TOTAL FREE ENERGY PREDICTED BY IDOCK:   -0.29 KCAL/MOL
REMARK 923 INTER-LIGAND FREE ENERGY PREDICTED BY IDOCK:   -2.64 KCAL/MOL
REMARK 924 INTRA-LIGAND FREE ENERGY PREDICTED BY IDOCK:    2.35 KCAL/MOL
REMARK 927      BINDING AFFINITY PREDICTED BY RF-SCORE:    0.00 PKD
ROOT
HETATM    1  C   UNL     1     -11.052  12.891  66.891  1.00  0.00    -0.312 C  
HETATM    2  C   UNL     1     -10.771  14.096  66.007  1.00  0.00    -0.299 C  
HETATM    3  C   UNL     1      -9.294  14.545  65.982  1.00  0.00    -0.160 C  
HETATM    4  C   UNL     1     -11.171  13.766  64.585  1.00  0.00    -0.378 C  
HETATM    5  O   UNL     1     -10.639  12.893  63.916  1.00  0.00    -0.410 OA 
HETATM    6  O   UNL     1     -12.185  14.520  64.112  1.00  0.00    -0.524 OA 
ENDROOT
BRANCH   3   7
HETATM    7  N   UNL     1      -8.745  15.039  67.268  1.00  0.00    -0.190 N  
HETATM    8  C   UNL     1      -8.439  14.090  68.257  1.00  0.00    -0.171 C  
HETATM    9  O   UNL     1      -8.572  12.877  68.083  1.00  0.00    -0.177 OA 
HETATM   10  C   UNL     1      -7.837  14.591  69.553  1.00  0.00     0.107 C  
BRANCH   7  11
HETATM   11  C   UNL     1      -9.182  16.359  67.658  1.00  0.00    -0.199 A  
HETATM   12  C   UNL     1     -10.343  16.552  68.450  1.00  0.00    -0.294 A  
HETATM   13  I   UNL     1     -11.724  15.027  68.935  1.00  0.00    -0.292 I  
HETATM   14  C   UNL     1     -10.653  17.810  68.968  1.00  0.00    -0.015 A  
HETATM   15  C   UNL     1      -9.856  18.911  68.667  1.00  0.00    -0.407 A  
HETATM   16  C   UNL     1      -8.760  18.801  67.790  1.00  0.00    -0.287 A  
HETATM   17  I   UNL     1     -10.363  20.749  69.569  1.00  0.00     1.918 I  
HETATM   18  N   UNL     1      -7.916  19.910  67.563  1.00  0.00    -0.287 NA 
HETATM   19  C   UNL     1      -8.406  17.502  67.344  1.00  0.00    -0.211 A  
HETATM   20  H1  UNL     1      -7.121  19.830  66.927  1.00  0.00     0.000 HD 
HETATM   21  I   UNL     1      -6.595  17.346  66.230  1.00  0.00    -0.054 I  
HETATM   22  H2  UNL     1      -7.573  20.243  68.464  1.00  0.00     0.000 HD 
ENDBRANCH   7  11
ENDBRANCH   3   7
TORSDOF 2
ENDMDL
MODEL      203
REMARK 921   NORMALIZED FREE ENERGY PREDICTED BY IDOCK:   -0.14 KCAL/MOL
REMARK 922        TOTAL FREE ENERGY PREDICTED BY IDOCK:   -0.25 KCAL/MOL
REMARK 923 INTER-LIGAND FREE ENERGY PREDICTED BY IDOCK:   -2.31 KCAL/MOL
REMARK 924 INTRA-LIGAND FREE ENERGY PREDICTED BY IDOCK:    2.05 KCAL/MOL
REMARK 927      BINDING AFFINITY PREDICTED BY RF-SCORE:    0.00 PKD
ROOT
HETATM    1  C   UNL     1     -10.660  11.437  68.498  1.00  0.00    -0.225 C  
HETATM    2  C   UNL     1      -9.190  11.824  68.535  1.00  0.00    -0.152 C  
HETATM    3  C   UNL     1      -8.225  10.736  68.015  1.00  0.00    -0.115 C  
HETATM    4  C   UNL     1      -8.986  13.058  67.683  1.00  0.00    -0.192 C  
HETATM    5  O   UNL     1      -9.175  13.089  66.477  1.00  0.00    -0.240 OA 
HETATM    6  O   UNL     1      -8.580  14.141  68.378  1.00  0.00    -0.168 OA 
ENDROOT
BRANCH   3   7
HETATM    7  N   UNL     1      -8.178   9.481  68.803  1.00  0.00    -0.110 N  
HETATM    8  C   UNL     1      -7.179   9.362  69.785  1.00  0.00    -0.076 C  
HETATM    9  O   UNL     1      -6.379  10.264  70.036  1.00  0.00    -0.072 OA 
HETATM   10  C   UNL     1      -7.159   8.098  70.619  1.00  0.00    -0.045 C  
BRANCH   7  11
HETATM   11  C   UNL     1      -8.641   8.301  68.113  1.00  0.00    -0.132 A  
HETATM   12  C   UNL     1      -9.513   7.371  68.734  1.00  0.00    -0.143 A  
HETATM   13  I   UNL     1     -10.036   7.409  70.782  1.00  0.00    -0.191 I  
HETATM   14  C   UNL     1     -10.093   6.335  68.001  1.00  0.00    -0.174 A  
HETATM   15  C   UNL     1      -9.778   6.162  66.655  1.00  0.00    -0.160 A  
HETATM   16  C   UNL     1      -8.827   6.983  66.018  1.00  0.00    -0.135 A  
HETATM   17  I   UNL     1     -10.774   4.620  65.618  1.00  0.00     0.584 I  
HETATM   18  N   UNL     1      -8.583   6.845  64.633  1.00  0.00    -0.346 NA 
HETATM   19  C   UNL     1      -8.315   8.084  66.750  1.00  0.00    -0.116 A  
HETATM   20  H1  UNL     1      -7.894   7.440  64.171  1.00  0.00     0.000 HD 
HETATM   21  I   UNL     1      -7.080   9.445  65.671  1.00  0.00    -0.100 I  
HETATM   22  H2  UNL     1      -9.471   6.939  64.140  1.00  0.00     0.000 HD 
ENDBRANCH   7  11
ENDBRANCH   3   7
TORSDOF 2
ENDMDL
MODEL      204
REMARK 921   NORMALIZED FREE ENERGY PREDICTED BY IDOCK:   -0.08 KCAL/MOL
REMARK 922        TOTAL FREE ENERGY PREDICTED BY IDOCK:   -0.19 KCAL/MOL
REMARK 923 INTER-LIGAND FREE ENERGY PREDICTED BY IDOCK:   -1.13 KCAL/MOL
REMARK 924 INTRA-LIGAND FREE ENERGY PREDICTED BY IDOCK:    0.94 KCAL/MOL
REMARK 927      BINDING AFFINITY PREDICTED BY RF-SCORE:    0.00 PKD
ROOT
HETATM    1  C   UNL     1     -11.345  15.273  65.313  1.00  0.00    -0.282 C  
HETATM    2  C   UNL     1     -10.940  13.807  65.298  1.00  0.00    -0.322 C  
HETATM    3  C   UNL     1     -10.573  13.226  66.680  1.00  0.00    -0.281 C  
HETATM    4  C   UNL     1     -12.089  12.987  64.749  1.00  0.00    -0.415 C  
HETATM    5  O   UNL     1     -13.177  12.893  65.296  1.00  0.00    -0.609 OA 
HETATM    6  O   UNL     1     -11.810  12.366  63.584  1.00  0.00    -0.438 OA 
ENDROOT
BRANCH   3   7
HETATM    7  N   UNL     1      -9.378  13.812  67.333  1.00  0.00    -0.217 N  
HETATM    8  C   UNL     1      -8.381  12.932  67.785  1.00  0.00    -0.178 C  
HETATM    9  O   UNL     1      -8.445  11.712  67.626  1.00  0.00    -0.132 OA 
HETATM   10  C   UNL     1      -7.141  13.534  68.412  1.00  0.00    -0.107 C  
BRANCH   7  11
HETATM   11  C   UNL     1      -9.606  15.051  68.038  1.00  0.00    -0.208 A  
HETATM   12  C   UNL     1      -8.862  16.222  67.742  1.00  0.00    -0.188 A  
HETATM   13  I   UNL     1      -7.176  16.274  66.468  1.00  0.00     0.690 I  
HETATM   14  C   UNL     1      -9.212  17.452  68.301  1.00  0.00    -0.271 A  
HETATM   15  C   UNL     1     -10.266  17.539  69.208  1.00  0.00    -0.180 A  
HETATM   16  C   UNL     1     -10.962  16.389  69.629  1.00  0.00    -0.329 A  
HETATM   17  I   UNL     1     -10.767  19.456  69.928  1.00  0.00     3.065 I  
HETATM   18  N   UNL     1     -12.080  16.509  70.485  1.00  0.00    -0.177 NA 
HETATM   19  C   UNL     1     -10.654  15.163  68.986  1.00  0.00    -0.245 A  
HETATM   20  H1  UNL     1     -12.584  15.676  70.790  1.00  0.00     0.000 HD 
HETATM   21  I   UNL     1     -11.902  13.503  69.467  1.00  0.00    -0.303 I  
HETATM   22  H2  UNL     1     -12.747  17.148  70.054  1.00  0.00     0.000 HD 
ENDBRANCH   7  11
ENDBRANCH   3   7
TORSDOF 2
ENDMDL
MODEL      205
REMARK 921   NORMALIZED FREE ENERGY PREDICTED BY IDOCK:   -0.01 KCAL/MOL
REMARK 922        TOTAL FREE ENERGY PREDICTED BY IDOCK:   -0.11 KCAL/MOL
REMARK 923 INTER-LIGAND FREE ENERGY PREDICTED BY IDOCK:   -2.59 KCAL/MOL
REMARK 924 INTRA-LIGAND FREE ENERGY PREDICTED BY IDOCK:    2.48 KCAL/MOL
REMARK 927      BINDING AFFINITY PREDICTED BY RF-SCORE:    0.00 PKD
ROOT
HETATM    1  C   UNL     1      -7.376   4.418  71.803  1.00  0.00    -0.068 C  
HETATM    2  C   UNL     1      -8.873   4.432  72.072  1.00  0.00    -0.136 C  
HETATM    3  C   UNL     1      -9.726   3.727  70.995  1.00  0.00    -0.178 C  
HETATM    4  C   UNL     1      -9.141   3.740  73.391  1.00  0.00    -0.101 C  
HETATM    5  O   UNL     1      -8.908   2.559  73.597  1.00  0.00    -0.073 OA 
HETATM    6  O   UNL     1      -9.660   4.549  74.338  1.00  0.00    -0.117 OA 
ENDROOT
BRANCH   3   7
HETATM    7  N   UNL     1      -9.704   4.341  69.645  1.00  0.00    -0.213 N  
HETATM    8  C   UNL     1      -9.649   3.481  68.536  1.00  0.00    -0.081 C  
HETATM    9  O   UNL     1      -9.658   2.254  68.641  1.00  0.00    -0.173 OA 
HETATM   10  C   UNL     1      -9.671   4.108  67.157  1.00  0.00    -0.224 C  
BRANCH   7  11
HETATM   11  C   UNL     1      -9.081   5.641  69.570  1.00  0.00    -0.125 A  
HETATM   12  C   UNL     1      -9.739   6.808  70.037  1.00  0.00    -0.163 A  
HETATM   13  I   UNL     1     -11.764   6.876  70.639  1.00  0.00    -0.298 I  
HETATM   14  C   UNL     1      -9.060   8.024  70.124  1.00  0.00    -0.151 A  
HETATM   15  C   UNL     1      -7.739   8.125  69.696  1.00  0.00    -0.101 A  
HETATM   16  C   UNL     1      -7.074   7.029  69.114  1.00  0.00    -0.084 A  
HETATM   17  I   UNL     1      -6.779   9.986  69.950  1.00  0.00    -0.145 I  
HETATM   18  N   UNL     1      -5.710   7.128  68.763  1.00  0.00    -0.018 NA 
HETATM   19  C   UNL     1      -7.746   5.780  69.115  1.00  0.00    -0.090 A  
HETATM   20  H1  UNL     1      -5.229   6.333  68.341  1.00  0.00     0.000 HD 
HETATM   21  I   UNL     1      -6.613   4.096  68.461  1.00  0.00    -0.048 I  
HETATM   22  H2  UNL     1      -5.186   7.418  69.590  1.00  0.00     0.000 HD 
ENDBRANCH   7  11
ENDBRANCH   3   7
TORSDOF 2
ENDMDL
MODEL      206
REMARK 921   NORMALIZED FREE ENERGY PREDICTED BY IDOCK:    0.23 KCAL/MOL
REMARK 922        TOTAL FREE ENERGY PREDICTED BY IDOCK:    0.16 KCAL/MOL
REMARK 923 INTER-LIGAND FREE ENERGY PREDICTED BY IDOCK:   -2.83 KCAL/MOL
REMARK 924 INTRA-LIGAND FREE ENERGY PREDICTED BY IDOCK:    2.99 KCAL/MOL
REMARK 927      BINDING AFFINITY PREDICTED BY RF-SCORE:    0.00 PKD
ROOT
HETATM    1  C   UNL     1      -9.334  11.915  65.752  1.00  0.00    -0.165 C  
HETATM    2  C   UNL     1      -9.951  11.680  67.123  1.00  0.00    -0.219 C  
HETATM    3  C   UNL     1      -9.037  12.049  68.311  1.00  0.00    -0.190 C  
HETATM    4  C   UNL     1     -11.211  12.510  67.243  1.00  0.00    -0.295 C  
HETATM    5  O   UNL     1     -11.224  13.732  67.220  1.00  0.00    -0.293 OA 
HETATM    6  O   UNL     1     -12.338  11.779  67.370  1.00  0.00    -0.252 OA 
ENDROOT
BRANCH   3   7
HETATM    7  N   UNL     1      -7.797  11.246  68.449  1.00  0.00    -0.128 N  
HETATM    8  C   UNL     1      -6.568  11.921  68.368  1.00  0.00    -0.056 C  
HETATM    9  O   UNL     1      -6.484  13.143  68.228  1.00  0.00    -0.077 OA 
HETATM   10  C   UNL     1      -5.304  11.108  68.553  1.00  0.00    -0.043 C  
BRANCH   7  11
HETATM   11  C   UNL     1      -7.892   9.882  67.987  1.00  0.00    -0.086 A  
HETATM   12  C   UNL     1      -8.749   8.943  68.616  1.00  0.00    -0.134 A  
HETATM   13  I   UNL     1      -9.776   9.293  70.430  1.00  0.00    -0.324 I  
HETATM   14  C   UNL     1      -8.966   7.684  68.053  1.00  0.00    -0.126 A  
HETATM   15  C   UNL     1      -8.296   7.308  66.892  1.00  0.00    -0.118 A  
HETATM   16  C   UNL     1      -7.345   8.154  66.291  1.00  0.00    -0.078 A  
HETATM   17  I   UNL     1      -8.759   5.419  66.077  1.00  0.00    -0.149 I  
HETATM   18  N   UNL     1      -6.739   7.789  65.069  1.00  0.00    -0.050 NA 
HETATM   19  C   UNL     1      -7.202   9.462  66.823  1.00  0.00    -0.083 A  
HETATM   20  H1  UNL     1      -6.049   8.403  64.634  1.00  0.00     0.000 HD 
HETATM   21  I   UNL     1      -5.944  10.794  65.732  1.00  0.00     0.036 I  
HETATM   22  H2  UNL     1      -7.475   7.601  64.388  1.00  0.00     0.000 HD 
ENDBRANCH   7  11
ENDBRANCH   3   7
TORSDOF 2
ENDMDL
MODEL      207
REMARK 921   NORMALIZED FREE ENERGY PREDICTED BY IDOCK:    0.29 KCAL/MOL
REMARK 922        TOTAL FREE ENERGY PREDICTED BY IDOCK:    0.22 KCAL/MOL
REMARK 923 INTER-LIGAND FREE ENERGY PREDICTED BY IDOCK:   -1.52 KCAL/MOL
REMARK 924 INTRA-LIGAND FREE ENERGY PREDICTED BY IDOCK:    1.74 KCAL/MOL
REMARK 927      BINDING AFFINITY PREDICTED BY RF-SCORE:    0.00 PKD
ROOT
HETATM    1  C   UNL     1     -10.442  18.670  67.452  1.00  0.00    -0.467 C  
HETATM    2  C   UNL     1      -9.552  18.991  68.643  1.00  0.00    -0.458 C  
HETATM    3  C   UNL     1      -8.137  19.486  68.273  1.00  0.00    -0.334 C  
HETATM    4  C   UNL     1     -10.212  20.073  69.471  1.00  0.00     0.090 C  
HETATM    5  O   UNL     1     -10.423  21.205  69.064  1.00  0.00     0.638 OA 
HETATM    6  O   UNL     1     -10.560  19.676  70.713  1.00  0.00     1.192 OA 
ENDROOT
BRANCH   3   7
HETATM    7  N   UNL     1      -7.273  18.510  67.565  1.00  0.00    -0.210 N  
HETATM    8  C   UNL     1      -7.196  18.599  66.165  1.00  0.00    -0.262 C  
HETATM    9  O   UNL     1      -7.780  19.470  65.518  1.00  0.00    -0.419 OA 
HETATM   10  C   UNL     1      -6.279  17.631  65.448  1.00  0.00     0.211 C  
BRANCH   7  11
HETATM   11  C   UNL     1      -7.147  17.222  68.205  1.00  0.00    -0.190 A  
HETATM   12  C   UNL     1      -7.790  16.069  67.685  1.00  0.00    -0.142 A  
HETATM   13  I   UNL     1      -9.206  16.097  66.116  1.00  0.00    -0.240 I  
HETATM   14  C   UNL     1      -7.516  14.803  68.205  1.00  0.00    -0.115 A  
HETATM   15  C   UNL     1      -6.649  14.658  69.285  1.00  0.00    -0.128 A  
HETATM   16  C   UNL     1      -6.075  15.778  69.916  1.00  0.00    -0.166 A  
HETATM   17  I   UNL     1      -6.238  12.696  69.939  1.00  0.00     0.132 I  
HETATM   18  N   UNL     1      -5.134  15.606  70.955  1.00  0.00    -0.166 NA 
HETATM   19  C   UNL     1      -6.292  17.048  69.321  1.00  0.00    -0.229 A  
HETATM   20  H1  UNL     1      -4.719  16.418  71.412  1.00  0.00     0.000 HD 
HETATM   21  I   UNL     1      -5.201  18.680  70.154  1.00  0.00    -0.256 I  
HETATM   22  H2  UNL     1      -4.380  15.011  70.610  1.00  0.00     0.000 HD 
ENDBRANCH   7  11
ENDBRANCH   3   7
TORSDOF 2
ENDMDL
MODEL      208
REMARK 921   NORMALIZED FREE ENERGY PREDICTED BY IDOCK:    0.50 KCAL/MOL
REMARK 922        TOTAL FREE ENERGY PREDICTED BY IDOCK:    0.46 KCAL/MOL
REMARK 923 INTER-LIGAND FREE ENERGY PREDICTED BY IDOCK:   -1.73 KCAL/MOL
REMARK 924 INTRA-LIGAND FREE ENERGY PREDICTED BY IDOCK:    2.18 KCAL/MOL
REMARK 927      BINDING AFFINITY PREDICTED BY RF-SCORE:    0.00 PKD
ROOT
HETATM    1  C   UNL     1     -10.995  16.608  69.683  1.00  0.00    -0.222 C  
HETATM    2  C   UNL     1     -11.600  15.258  70.036  1.00  0.00    -0.331 C  
HETATM    3  C   UNL     1     -10.656  14.055  69.826  1.00  0.00     0.304 C  
HETATM    4  C   UNL     1     -12.007  15.269  71.494  1.00  0.00    -0.366 C  
HETATM    5  O   UNL     1     -11.217  15.385  72.418  1.00  0.00    -0.388 OA 
HETATM    6  O   UNL     1     -13.336  15.146  71.693  1.00  0.00    -0.363 OA 
ENDROOT
BRANCH   3   7
HETATM    7  N   UNL     1     -10.245  13.791  68.425  1.00  0.00    -0.244 N  
HETATM    8  C   UNL     1     -10.941  14.455  67.402  1.00  0.00    -0.299 C  
HETATM    9  O   UNL     1     -11.841  15.267  67.625  1.00  0.00    -0.265 OA 
HETATM   10  C   UNL     1     -10.492  14.219  65.976  1.00  0.00    -0.306 C  
BRANCH   7  11
HETATM   11  C   UNL     1      -9.704  12.475  68.180  1.00  0.00    -0.222 A  
HETATM   12  C   UNL     1      -8.323  12.276  67.923  1.00  0.00    -0.163 A  
HETATM   13  I   UNL     1      -6.934  13.835  67.594  1.00  0.00     0.017 I  
HETATM   14  C   UNL     1      -7.785  10.990  67.866  1.00  0.00    -0.104 A  
HETATM   15  C   UNL     1      -8.608   9.875  68.002  1.00  0.00    -0.121 A  
HETATM   16  C   UNL     1     -10.003  10.011  68.140  1.00  0.00    -0.153 A  
HETATM   17  I   UNL     1      -7.683   7.981  67.985  1.00  0.00    -0.122 I  
HETATM   18  N   UNL     1     -10.810   8.874  68.360  1.00  0.00    -0.451 NA 
HETATM   19  C   UNL     1     -10.522  11.323  68.286  1.00  0.00    -0.196 A  
HETATM   20  H1  UNL     1     -11.821   8.973  68.460  1.00  0.00     0.000 HD 
HETATM   21  I   UNL     1     -12.599  11.472  68.748  1.00  0.00     2.269 I  
HETATM   22  H2  UNL     1     -10.454   8.380  69.179  1.00  0.00     0.000 HD 
ENDBRANCH   7  11
ENDBRANCH   3   7
TORSDOF 2
ENDMDL
MODEL      209
REMARK 921   NORMALIZED FREE ENERGY PREDICTED BY IDOCK:    0.74 KCAL/MOL
REMARK 922        TOTAL FREE ENERGY PREDICTED BY IDOCK:    0.73 KCAL/MOL
REMARK 923 INTER-LIGAND FREE ENERGY PREDICTED BY IDOCK:   -1.13 KCAL/MOL
REMARK 924 INTRA-LIGAND FREE ENERGY PREDICTED BY IDOCK:    1.86 KCAL/MOL
REMARK 927      BINDING AFFINITY PREDICTED BY RF-SCORE:    0.00 PKD
ROOT
HETATM    1  C   UNL     1     -10.983   8.815  66.512  1.00  0.00     0.728 C  
HETATM    2  C   UNL     1     -10.003   9.884  66.055  1.00  0.00    -0.338 C  
HETATM    3  C   UNL     1      -8.630   9.843  66.761  1.00  0.00    -0.128 C  
HETATM    4  C   UNL     1      -9.756   9.721  64.570  1.00  0.00    -0.039 C  
HETATM    5  O   UNL     1      -9.231   8.737  64.074  1.00  0.00     0.316 OA 
HETATM    6  O   UNL     1     -10.179  10.765  63.827  1.00  0.00    -0.339 OA 
ENDROOT
BRANCH   3   7
HETATM    7  N   UNL     1      -8.643  10.116  68.219  1.00  0.00    -0.114 N  
HETATM    8  C   UNL     1      -8.268   9.074  69.083  1.00  0.00    -0.121 C  
HETATM    9  O   UNL     1      -7.898   7.971  68.678  1.00  0.00    -0.113 OA 
HETATM   10  C   UNL     1      -8.239   9.367  70.568  1.00  0.00    -0.221 C  
BRANCH   7  11
HETATM   11  C   UNL     1      -9.618  11.087  68.655  1.00  0.00    -0.195 A  
HETATM   12  C   UNL     1     -10.812  10.696  69.313  1.00  0.00    -0.239 A  
HETATM   13  I   UNL     1     -11.469   8.696  69.506  1.00  0.00     0.929 I  
HETATM   14  C   UNL     1     -11.656  11.648  69.886  1.00  0.00    -0.366 A  
HETATM   15  C   UNL     1     -11.368  13.006  69.771  1.00  0.00    -0.044 A  
HETATM   16  C   UNL     1     -10.260  13.456  69.028  1.00  0.00     0.067 A  
HETATM   17  I   UNL     1     -12.661  14.356  70.747  1.00  0.00    -0.422 I  
HETATM   18  N   UNL     1      -9.937  14.830  68.992  1.00  0.00    -0.254 NA 
HETATM   19  C   UNL     1      -9.364  12.476  68.528  1.00  0.00    -0.082 A  
HETATM   20  H1  UNL     1      -9.134  15.156  68.453  1.00  0.00     0.000 HD 
HETATM   21  I   UNL     1      -7.571  13.203  67.633  1.00  0.00    -0.152 I  
HETATM   22  H2  UNL     1      -9.836  15.161  69.952  1.00  0.00     0.000 HD 
ENDBRANCH   7  11
ENDBRANCH   3   7
TORSDOF 2
ENDMDL
MODEL      210
REMARK 921   NORMALIZED FREE ENERGY PREDICTED BY IDOCK:    1.13 KCAL/MOL
REMARK 922        TOTAL FREE ENERGY PREDICTED BY IDOCK:    1.16 KCAL/MOL
REMARK 923 INTER-LIGAND FREE ENERGY PREDICTED BY IDOCK:    1.07 KCAL/MOL
REMARK 924 INTRA-LIGAND FREE ENERGY PREDICTED BY IDOCK:    0.10 KCAL/MOL
REMARK 927      BINDING AFFINITY PREDICTED BY RF-SCORE:    0.00 PKD
ROOT
HETATM    1  C   UNL     1     -10.515  11.508  65.368  1.00  0.00    -0.333 C  
HETATM    2  C   UNL     1      -9.140  11.685  65.995  1.00  0.00    -0.188 C  
HETATM    3  C   UNL     1      -9.129  12.515  67.297  1.00  0.00    -0.189 C  
HETATM    4  C   UNL     1      -8.570  10.321  66.320  1.00  0.00    -0.137 C  
HETATM    5  O   UNL     1      -9.067   9.553  67.130  1.00  0.00    -0.133 OA 
HETATM    6  O   UNL     1      -7.455  10.014  65.625  1.00  0.00    -0.123 OA 
ENDROOT
BRANCH   3   7
HETATM    7  N   UNL     1      -9.532  13.936  67.163  1.00  0.00    -0.237 N  
HETATM    8  C   UNL     1      -8.556  14.857  66.747  1.00  0.00    -0.222 C  
HETATM    9  O   UNL     1      -7.406  14.525  66.456  1.00  0.00     0.634 OA 
HETATM   10  C   UNL     1      -8.979  16.300  66.568  1.00  0.00    -0.313 C  
BRANCH   7  11
HETATM   11  C   UNL     1     -10.581  14.367  68.057  1.00  0.00    -0.241 A  
HETATM   12  C   UNL     1     -11.933  14.442  67.634  1.00  0.00    -0.343 A  
HETATM   13  I   UNL     1     -12.571  14.215  65.632  1.00  0.00    -0.110 I  
HETATM   14  C   UNL     1     -12.956  14.685  68.552  1.00  0.00     1.626 A  
HETATM   15  C   UNL     1     -12.659  14.916  69.892  1.00  0.00    -0.167 A  
HETATM   16  C   UNL     1     -11.327  14.971  70.346  1.00  0.00    -0.270 A  
HETATM   17  I   UNL     1     -14.283  15.188  71.210  1.00  0.00    -0.094 I  
HETATM   18  N   UNL     1     -11.050  15.124  71.723  1.00  0.00    -0.535 NA 
HETATM   19  C   UNL     1     -10.306  14.634  69.421  1.00  0.00    -0.122 A  
HETATM   20  H1  UNL     1     -10.085  15.164  72.051  1.00  0.00     0.000 HD 
HETATM   21  I   UNL     1      -8.331  14.480  70.210  1.00  0.00     2.565 I  
HETATM   22  H2  UNL     1     -11.532  14.382  72.231  1.00  0.00     0.000 HD 
ENDBRANCH   7  11
ENDBRANCH   3   7
TORSDOF 2
ENDMDL
MODEL      211
REMARK 921   NORMALIZED FREE ENERGY PREDICTED BY IDOCK:    2.61 KCAL/MOL
REMARK 922        TOTAL FREE ENERGY PREDICTED BY IDOCK:    2.82 KCAL/MOL
REMARK 923 INTER-LIGAND FREE ENERGY PREDICTED BY IDOCK:    0.85 KCAL/MOL
REMARK 924 INTRA-LIGAND FREE ENERGY PREDICTED BY IDOCK:    1.97 KCAL/MOL
REMARK 927      BINDING AFFINITY PREDICTED BY RF-SCORE:    0.00 PKD
ROOT
HETATM    1  C   UNL     1      -8.341  12.177  70.057  1.00  0.00     2.951 C  
HETATM    2  C   UNL     1      -7.362  12.041  68.901  1.00  0.00    -0.067 C  
HETATM    3  C   UNL     1      -8.021  11.839  67.519  1.00  0.00    -0.148 C  
HETATM    4  C   UNL     1      -6.517  13.295  68.824  1.00  0.00    -0.099 C  
HETATM    5  O   UNL     1      -6.969  14.403  68.579  1.00  0.00    -0.088 OA 
HETATM    6  O   UNL     1      -5.205  13.086  69.059  1.00  0.00    -0.068 OA 
ENDROOT
BRANCH   3   7
HETATM    7  N   UNL     1      -8.793  10.584  67.347  1.00  0.00    -0.132 N  
HETATM    8  C   UNL     1     -10.195  10.669  67.377  1.00  0.00    -0.204 C  
HETATM    9  O   UNL     1     -10.797  11.738  67.500  1.00  0.00    -0.217 OA 
HETATM   10  C   UNL     1     -10.983   9.395  67.156  1.00  0.00     0.015 C  
BRANCH   7  11
HETATM   11  C   UNL     1      -8.142   9.389  67.828  1.00  0.00    -0.107 A  
HETATM   12  C   UNL     1      -8.638   8.673  68.948  1.00  0.00    -0.130 A  
HETATM   13  I   UNL     1     -10.181   9.363  70.217  1.00  0.00    -0.364 I  
HETATM   14  C   UNL     1      -8.108   7.429  69.292  1.00  0.00    -0.123 A  
HETATM   15  C   UNL     1      -7.043   6.893  68.572  1.00  0.00    -0.082 A  
HETATM   16  C   UNL     1      -6.435   7.613  67.526  1.00  0.00    -0.058 A  
HETATM   17  I   UNL     1      -6.375   4.970  69.119  1.00  0.00    -0.034 I  
HETATM   18  N   UNL     1      -5.411   7.019  66.755  1.00  0.00    -0.021 NA 
HETATM   19  C   UNL     1      -7.039   8.834  67.132  1.00  0.00    -0.075 A  
HETATM   20  H1  UNL     1      -4.970   7.541  65.997  1.00  0.00     0.000 HD 
HETATM   21  I   UNL     1      -6.245   9.762  65.385  1.00  0.00    -0.101 I  
HETATM   22  H2  UNL     1      -5.762   6.139  66.377  1.00  0.00     0.000 HD 
ENDBRANCH   7  11
ENDBRANCH   3   7
TORSDOF 2
ENDMDL
MODEL      212
REMARK 921   NORMALIZED FREE ENERGY PREDICTED BY IDOCK:    3.46 KCAL/MOL
REMARK 922        TOTAL FREE ENERGY PREDICTED BY IDOCK:    3.76 KCAL/MOL
REMARK 923 INTER-LIGAND FREE ENERGY PREDICTED BY IDOCK:    1.38 KCAL/MOL
REMARK 924 INTRA-LIGAND FREE ENERGY PREDICTED BY IDOCK:    2.38 KCAL/MOL
REMARK 927      BINDING AFFINITY PREDICTED BY RF-SCORE:    0.00 PKD
ROOT
HETATM    1  C   UNL     1      -7.179   9.410  69.288  1.00  0.00    -0.066 C  
HETATM    2  C   UNL     1      -8.649   9.741  69.500  1.00  0.00    -0.186 C  
HETATM    3  C   UNL     1      -9.179   9.439  70.918  1.00  0.00    -0.173 C  
HETATM    4  C   UNL     1      -8.861  11.217  69.239  1.00  0.00     0.269 C  
HETATM    5  O   UNL     1      -8.354  12.104  69.908  1.00  0.00     1.705 OA 
HETATM    6  O   UNL     1      -9.663  11.477  68.185  1.00  0.00    -0.179 OA 
ENDROOT
BRANCH   3   7
HETATM    7  N   UNL     1      -9.180   8.011  71.319  1.00  0.00    -0.145 N  
HETATM    8  C   UNL     1      -8.290   7.615  72.332  1.00  0.00    -0.117 C  
HETATM    9  O   UNL     1      -7.549   8.406  72.916  1.00  0.00    -0.227 OA 
HETATM   10  C   UNL     1      -8.323   6.166  72.771  1.00  0.00    -0.117 C  
BRANCH   7  11
HETATM   11  C   UNL     1      -9.531   7.078  70.275  1.00  0.00    -0.165 A  
HETATM   12  C   UNL     1     -10.874   6.912  69.849  1.00  0.00    -0.257 A  
HETATM   13  I   UNL     1     -12.548   7.761  70.820  1.00  0.00     0.421 I  
HETATM   14  C   UNL     1     -11.176   6.144  68.723  1.00  0.00    -0.307 A  
HETATM   15  C   UNL     1     -10.166   5.479  68.032  1.00  0.00    -0.181 A  
HETATM   16  C   UNL     1      -8.832   5.512  68.481  1.00  0.00    -0.104 A  
HETATM   17  I   UNL     1     -10.719   4.416  66.297  1.00  0.00     1.481 I  
HETATM   18  N   UNL     1      -7.811   4.900  67.721  1.00  0.00    -0.093 NA 
HETATM   19  C   UNL     1      -8.528   6.367  69.571  1.00  0.00    -0.133 A  
HETATM   20  H1  UNL     1      -6.844   4.924  68.046  1.00  0.00     0.000 HD 
HETATM   21  I   UNL     1      -6.462   6.585  70.054  1.00  0.00    -0.043 I  
HETATM   22  H2  UNL     1      -7.841   5.282  66.775  1.00  0.00     0.000 HD 
ENDBRANCH   7  11
ENDBRANCH   3   7
TORSDOF 2
ENDMDL
MODEL      213
REMARK 921   NORMALIZED FREE ENERGY PREDICTED BY IDOCK:    3.67 KCAL/MOL
REMARK 922        TOTAL FREE ENERGY PREDICTED BY IDOCK:    4.00 KCAL/MOL
REMARK 923 INTER-LIGAND FREE ENERGY PREDICTED BY IDOCK:    1.58 KCAL/MOL
REMARK 924 INTRA-LIGAND FREE ENERGY PREDICTED BY IDOCK:    2.42 KCAL/MOL
REMARK 927      BINDING AFFINITY PREDICTED BY RF-SCORE:    0.00 PKD
ROOT
HETATM    1  C   UNL     1     -13.259  14.220  71.993  1.00  0.00    -0.470 C  
HETATM    2  C   UNL     1     -12.037  15.094  72.230  1.00  0.00    -0.478 C  
HETATM    3  C   UNL     1     -11.817  16.194  71.168  1.00  0.00    -0.366 C  
HETATM    4  C   UNL     1     -12.175  15.779  73.573  1.00  0.00    -0.523 C  
HETATM    5  O   UNL     1     -13.056  16.584  73.836  1.00  0.00    -0.633 OA 
HETATM    6  O   UNL     1     -11.237  15.416  74.472  1.00  0.00     1.468 OA 
ENDROOT
BRANCH   3   7
HETATM    7  N   UNL     1     -11.528  15.719  69.793  1.00  0.00    -0.323 N  
HETATM    8  C   UNL     1     -12.569  15.098  69.083  1.00  0.00     0.203 C  
HETATM    9  O   UNL     1     -13.706  14.971  69.539  1.00  0.00     1.598 OA 
HETATM   10  C   UNL     1     -12.285  14.653  67.663  1.00  0.00    -0.082 C  
BRANCH   7  11
HETATM   11  C   UNL     1     -10.163  15.314  69.555  1.00  0.00    -0.260 A  
HETATM   12  C   UNL     1      -9.800  13.945  69.467  1.00  0.00     0.633 A  
HETATM   13  I   UNL     1     -11.091  12.336  69.927  1.00  0.00     0.867 I  
HETATM   14  C   UNL     1      -8.518  13.571  69.061  1.00  0.00     0.332 A  
HETATM   15  C   UNL     1      -7.554  14.539  68.791  1.00  0.00    -0.131 A  
HETATM   16  C   UNL     1      -7.824  15.909  68.978  1.00  0.00    -0.216 A  
HETATM   17  I   UNL     1      -5.677  13.870  68.103  1.00  0.00    -0.104 I  
HETATM   18  N   UNL     1      -6.861  16.878  68.620  1.00  0.00    -0.173 NA 
HETATM   19  C   UNL     1      -9.154  16.277  69.303  1.00  0.00    -0.185 A  
HETATM   20  H1  UNL     1      -7.057  17.871  68.755  1.00  0.00     0.000 HD 
HETATM   21  I   UNL     1      -9.579  18.366  69.324  1.00  0.00     0.424 I  
HETATM   22  H2  UNL     1      -6.605  16.732  67.643  1.00  0.00     0.000 HD 
ENDBRANCH   7  11
ENDBRANCH   3   7
TORSDOF 2
ENDMDL
MODEL      214
REMARK 921   NORMALIZED FREE ENERGY PREDICTED BY IDOCK:    5.24 KCAL/MOL
REMARK 922        TOTAL FREE ENERGY PREDICTED BY IDOCK:    5.76 KCAL/MOL
REMARK 923 INTER-LIGAND FREE ENERGY PREDICTED BY IDOCK:    2.62 KCAL/MOL
REMARK 924 INTRA-LIGAND FREE ENERGY PREDICTED BY IDOCK:    3.13 KCAL/MOL
REMARK 927      BINDING AFFINITY PREDICTED BY RF-SCORE:    0.00 PKD
ROOT
HETATM    1  C   UNL     1      -8.289  12.695  69.426  1.00  0.00     1.096 C  
HETATM    2  C   UNL     1      -7.604  11.638  68.573  1.00  0.00    -0.127 C  
HETATM    3  C   UNL     1      -8.469  11.079  67.423  1.00  0.00    -0.132 C  
HETATM    4  C   UNL     1      -6.358  12.238  67.956  1.00  0.00    -0.073 C  
HETATM    5  O   UNL     1      -6.375  13.164  67.159  1.00  0.00    -0.257 OA 
HETATM    6  O   UNL     1      -5.210  11.663  68.370  1.00  0.00    -0.040 OA 
ENDROOT
BRANCH   3   7
HETATM    7  N   UNL     1      -9.682  10.329  67.830  1.00  0.00    -0.145 N  
HETATM    8  C   UNL     1     -10.894  10.652  67.198  1.00  0.00    -0.270 C  
HETATM    9  O   UNL     1     -10.977  11.495  66.303  1.00  0.00    -0.285 OA 
HETATM   10  C   UNL     1     -12.123   9.855  67.583  1.00  0.00     3.153 C  
BRANCH   7  11
HETATM   11  C   UNL     1      -9.693   9.871  69.199  1.00  0.00    -0.198 A  
HETATM   12  C   UNL     1     -10.671  10.320  70.124  1.00  0.00    -0.278 A  
HETATM   13  I   UNL     1     -12.046  11.880  69.744  1.00  0.00    -0.145 I  
HETATM   14  C   UNL     1     -10.779   9.738  71.388  1.00  0.00    -0.091 A  
HETATM   15  C   UNL     1      -9.889   8.744  71.784  1.00  0.00    -0.321 A  
HETATM   16  C   UNL     1      -8.825   8.343  70.952  1.00  0.00    -0.159 A  
HETATM   17  I   UNL     1     -10.193   7.871  73.679  1.00  0.00     1.237 I  
HETATM   18  N   UNL     1      -7.984   7.276  71.337  1.00  0.00    -0.096 NA 
HETATM   19  C   UNL     1      -8.782   8.879  69.639  1.00  0.00    -0.140 A  
HETATM   20  H1  UNL     1      -7.213   6.986  70.734  1.00  0.00     0.000 HD 
HETATM   21  I   UNL     1      -7.313   8.057  68.331  1.00  0.00    -0.103 I  
HETATM   22  H2  UNL     1      -8.567   6.461  71.528  1.00  0.00     0.000 HD 
ENDBRANCH   7  11
ENDBRANCH   3   7
TORSDOF 2
ENDMDL
MODEL      215
REMARK 921   NORMALIZED FREE ENERGY PREDICTED BY IDOCK:    6.37 KCAL/MOL
REMARK 922        TOTAL FREE ENERGY PREDICTED BY IDOCK:    7.02 KCAL/MOL
REMARK 923 INTER-LIGAND FREE ENERGY PREDICTED BY IDOCK:    1.65 KCAL/MOL
REMARK 924 INTRA-LIGAND FREE ENERGY PREDICTED BY IDOCK:    5.37 KCAL/MOL
REMARK 927      BINDING AFFINITY PREDICTED BY RF-SCORE:    0.00 PKD
ROOT
HETATM    1  C   UNL     1      -8.298  12.707  69.440  1.00  0.00     1.096 C  
HETATM    2  C   UNL     1      -7.679  11.538  68.690  1.00  0.00    -0.139 C  
HETATM    3  C   UNL     1      -8.591  10.907  67.616  1.00  0.00    -0.124 C  
HETATM    4  C   UNL     1      -6.419  12.011  67.997  1.00  0.00    -0.061 C  
HETATM    5  O   UNL     1      -6.407  12.851  67.110  1.00  0.00    -0.249 OA 
HETATM    6  O   UNL     1      -5.291  11.425  68.451  1.00  0.00    -0.043 OA 
ENDROOT
BRANCH   3   7
HETATM    7  N   UNL     1      -9.830  10.262  68.114  1.00  0.00    -0.146 N  
HETATM    8  C   UNL     1     -10.604  10.968  69.051  1.00  0.00    -0.225 C  
HETATM    9  O   UNL     1     -10.316  12.102  69.437  1.00  0.00     0.138 OA 
HETATM   10  C   UNL     1     -11.891  10.327  69.526  1.00  0.00    -0.148 C  
BRANCH   7  11
HETATM   11  C   UNL     1      -9.798   8.820  68.160  1.00  0.00    -0.168 A  
HETATM   12  C   UNL     1      -9.926   8.112  69.383  1.00  0.00    -0.188 A  
HETATM   13  I   UNL     1      -9.905   9.018  71.293  1.00  0.00    -0.274 I  
HETATM   14  C   UNL     1     -10.073   6.725  69.394  1.00  0.00    -0.183 A  
HETATM   15  C   UNL     1     -10.039   6.004  68.203  1.00  0.00    -0.160 A  
HETATM   16  C   UNL     1      -9.795   6.641  66.971  1.00  0.00    -0.160 A  
HETATM   17  I   UNL     1     -10.356   3.922  68.322  1.00  0.00     2.264 I  
HETATM   18  N   UNL     1      -9.846   5.905  65.767  1.00  0.00    -0.369 NA 
HETATM   19  C   UNL     1      -9.737   8.058  66.966  1.00  0.00    -0.211 A  
HETATM   20  H1  UNL     1      -9.669   6.367  64.874  1.00  0.00     0.000 HD 
HETATM   21  I   UNL     1      -9.624   8.993  65.054  1.00  0.00     1.001 I  
HETATM   22  H2  UNL     1     -10.752   5.438  65.713  1.00  0.00     0.000 HD 
ENDBRANCH   7  11
ENDBRANCH   3   7
TORSDOF 2
ENDMDL
MODEL      216
REMARK 921   NORMALIZED FREE ENERGY PREDICTED BY IDOCK:    9.07 KCAL/MOL
REMARK 922        TOTAL FREE ENERGY PREDICTED BY IDOCK:   10.03 KCAL/MOL
REMARK 923 INTER-LIGAND FREE ENERGY PREDICTED BY IDOCK:    6.80 KCAL/MOL
REMARK 924 INTRA-LIGAND FREE ENERGY PREDICTED BY IDOCK:    3.23 KCAL/MOL
REMARK 927      BINDING AFFINITY PREDICTED BY RF-SCORE:    0.00 PKD
ROOT
HETATM    1  C   UNL     1      -8.791   7.925  70.404  1.00  0.00    -0.142 C  
HETATM    2  C   UNL     1      -8.517   6.756  71.339  1.00  0.00    -0.120 C  
HETATM    3  C   UNL     1      -7.969   5.491  70.643  1.00  0.00    -0.103 C  
HETATM    4  C   UNL     1      -7.498   7.185  72.374  1.00  0.00    -0.088 C  
HETATM    5  O   UNL     1      -6.350   7.504  72.104  1.00  0.00    -0.042 OA 
HETATM    6  O   UNL     1      -7.971   7.193  73.637  1.00  0.00    -0.105 OA 
ENDROOT
BRANCH   3   7
HETATM    7  N   UNL     1      -8.884   4.835  69.678  1.00  0.00    -0.085 N  
HETATM    8  C   UNL     1      -9.659   3.758  70.139  1.00  0.00    -0.188 C  
HETATM    9  O   UNL     1      -9.636   3.371  71.309  1.00  0.00    -0.144 OA 
HETATM   10  C   UNL     1     -10.625   3.117  69.165  1.00  0.00     2.862 C  
BRANCH   7  11
HETATM   11  C   UNL     1      -8.449   4.861  68.301  1.00  0.00    -0.098 A  
HETATM   12  C   UNL     1      -9.370   5.024  67.235  1.00  0.00    -0.126 A  
HETATM   13  I   UNL     1     -11.472   4.980  67.455  1.00  0.00     5.606 I  
HETATM   14  C   UNL     1      -8.921   5.226  65.929  1.00  0.00    -0.148 A  
HETATM   15  C   UNL     1      -7.559   5.212  65.642  1.00  0.00    -0.086 A  
HETATM   16  C   UNL     1      -6.606   4.936  66.641  1.00  0.00    -0.046 A  
HETATM   17  I   UNL     1      -6.984   5.613  63.653  1.00  0.00    -0.057 I  
HETATM   18  N   UNL     1      -5.226   5.008  66.348  1.00  0.00    -0.008 NA 
HETATM   19  C   UNL     1      -7.070   4.822  67.976  1.00  0.00    -0.062 A  
HETATM   20  H1  UNL     1      -4.536   4.808  67.072  1.00  0.00     0.000 HD 
HETATM   21  I   UNL     1      -5.574   4.660  69.487  1.00  0.00    -0.018 I  
HETATM   22  H2  UNL     1      -5.028   5.932  65.962  1.00  0.00     0.000 HD 
ENDBRANCH   7  11
ENDBRANCH   3   7
TORSDOF 2
ENDMDL
MODEL      217
REMARK 921   NORMALIZED FREE ENERGY PREDICTED BY IDOCK:   10.26 KCAL/MOL
REMARK 922        TOTAL FREE ENERGY PREDICTED BY IDOCK:   11.36 KCAL/MOL
REMARK 923 INTER-LIGAND FREE ENERGY PREDICTED BY IDOCK:   11.07 KCAL/MOL
REMARK 924 INTRA-LIGAND FREE ENERGY PREDICTED BY IDOCK:    0.29 KCAL/MOL
REMARK 927      BINDING AFFINITY PREDICTED BY RF-SCORE:    0.00 PKD
ROOT
HETATM    1  C   UNL     1     -10.171  13.431  70.363  1.00  0.00     2.881 C  
HETATM    2  C   UNL     1      -9.605  14.692  69.728  1.00  0.00     0.350 C  
HETATM    3  C   UNL     1      -9.634  14.704  68.184  1.00  0.00    -0.213 C  
HETATM    4  C   UNL     1     -10.405  15.885  70.208  1.00  0.00    -0.077 C  
HETATM    5  O   UNL     1     -11.591  16.048  69.964  1.00  0.00    -0.332 OA 
HETATM    6  O   UNL     1      -9.691  16.762  70.944  1.00  0.00     2.429 OA 
ENDROOT
BRANCH   3   7
HETATM    7  N   UNL     1      -8.795  13.682  67.512  1.00  0.00    -0.193 N  
HETATM    8  C   UNL     1      -7.400  13.842  67.566  1.00  0.00    -0.166 C  
HETATM    9  O   UNL     1      -6.857  14.765  68.176  1.00  0.00    -0.101 OA 
HETATM   10  C   UNL     1      -6.543  12.776  66.918  1.00  0.00     0.475 C  
BRANCH   7  11
HETATM   11  C   UNL     1      -9.395  13.053  66.360  1.00  0.00    -0.182 A  
HETATM   12  C   UNL     1      -9.698  11.667  66.344  1.00  0.00    -0.214 A  
HETATM   13  I   UNL     1      -9.092  10.296  67.835  1.00  0.00    -0.145 I  
HETATM   14  C   UNL     1     -10.437  11.109  65.300  1.00  0.00    -0.326 A  
HETATM   15  C   UNL     1     -10.840  11.895  64.224  1.00  0.00    -0.344 A  
HETATM   16  C   UNL     1     -10.466  13.249  64.129  1.00  0.00    -0.260 A  
HETATM   17  I   UNL     1     -12.025  10.974  62.743  1.00  0.00     3.772 I  
HETATM   18  N   UNL     1     -10.954  14.050  63.073  1.00  0.00     1.732 NA 
HETATM   19  C   UNL     1      -9.793  13.823  65.238  1.00  0.00    -0.124 A  
HETATM   20  H1  UNL     1     -10.682  15.031  63.004  1.00  0.00     0.000 HD 
HETATM   21  I   UNL     1      -9.472  15.929  65.164  1.00  0.00     2.112 I  
HETATM   22  H2  UNL     1     -11.973  13.998  63.075  1.00  0.00     0.000 HD 
ENDBRANCH   7  11
ENDBRANCH   3   7
TORSDOF 2
ENDMDL
MODEL      218
REMARK 921   NORMALIZED FREE ENERGY PREDICTED BY IDOCK:   10.40 KCAL/MOL
REMARK 922        TOTAL FREE ENERGY PREDICTED BY IDOCK:   11.52 KCAL/MOL
REMARK 923 INTER-LIGAND FREE ENERGY PREDICTED BY IDOCK:    2.02 KCAL/MOL
REMARK 924 INTRA-LIGAND FREE ENERGY PREDICTED BY IDOCK:    9.50 KCAL/MOL
REMARK 927      BINDING AFFINITY PREDICTED BY RF-SCORE:    0.00 PKD
ROOT
HETATM    1  C   UNL     1     -10.518  12.248  67.570  1.00  0.00    -0.230 C  
HETATM    2  C   UNL     1      -9.006  12.415  67.538  1.00  0.00    -0.183 C  
HETATM    3  C   UNL     1      -8.365  12.730  68.907  1.00  0.00     0.281 C  
HETATM    4  C   UNL     1      -8.382  11.134  67.026  1.00  0.00    -0.144 C  
HETATM    5  O   UNL     1      -8.457  10.063  67.609  1.00  0.00    -0.115 OA 
HETATM    6  O   UNL     1      -7.733  11.273  65.852  1.00  0.00    -0.020 OA 
ENDROOT
BRANCH   3   7
HETATM    7  N   UNL     1      -8.750  14.024  69.521  1.00  0.00     0.628 N  
HETATM    8  C   UNL     1      -9.970  14.081  70.216  1.00  0.00     1.844 C  
HETATM    9  O   UNL     1     -10.700  13.100  70.366  1.00  0.00     1.215 OA 
HETATM   10  C   UNL     1     -10.342  15.390  70.880  1.00  0.00     0.311 C  
BRANCH   7  11
HETATM   11  C   UNL     1      -8.266  15.200  68.837  1.00  0.00    -0.181 A  
HETATM   12  C   UNL     1      -8.951  16.439  68.915  1.00  0.00    -0.256 A  
HETATM   13  I   UNL     1     -10.863  16.694  69.778  1.00  0.00     0.278 I  
HETATM   14  C   UNL     1      -8.380  17.604  68.400  1.00  0.00    -0.290 A  
HETATM   15  C   UNL     1      -7.150  17.558  67.748  1.00  0.00    -0.180 A  
HETATM   16  C   UNL     1      -6.482  16.336  67.537  1.00  0.00    -0.166 A  
HETATM   17  I   UNL     1      -6.337  19.386  67.084  1.00  0.00    -0.204 I  
HETATM   18  N   UNL     1      -5.199  16.320  66.948  1.00  0.00    -0.338 NA 
HETATM   19  C   UNL     1      -7.030  15.176  68.143  1.00  0.00    -0.125 A  
HETATM   20  H1  UNL     1      -4.715  15.434  66.795  1.00  0.00     0.000 HD 
HETATM   21  I   UNL     1      -5.857  13.400  68.016  1.00  0.00    -0.106 I  
HETATM   22  H2  UNL     1      -4.588  16.930  67.492  1.00  0.00     0.000 HD 
ENDBRANCH   7  11
ENDBRANCH   3   7
TORSDOF 2
ENDMDL
MODEL      219
REMARK 921   NORMALIZED FREE ENERGY PREDICTED BY IDOCK:   13.63 KCAL/MOL
REMARK 922        TOTAL FREE ENERGY PREDICTED BY IDOCK:   15.12 KCAL/MOL
REMARK 923 INTER-LIGAND FREE ENERGY PREDICTED BY IDOCK:   12.65 KCAL/MOL
REMARK 924 INTRA-LIGAND FREE ENERGY PREDICTED BY IDOCK:    2.47 KCAL/MOL
REMARK 927      BINDING AFFINITY PREDICTED BY RF-SCORE:    0.00 PKD
ROOT
HETATM    1  C   UNL     1     -12.774  15.724  68.019  1.00  0.00     1.847 C  
HETATM    2  C   UNL     1     -11.794  15.638  66.859  1.00  0.00     0.473 C  
HETATM    3  C   UNL     1     -10.618  14.663  67.080  1.00  0.00    -0.282 C  
HETATM    4  C   UNL     1     -12.538  15.182  65.621  1.00  0.00     0.599 C  
HETATM    5  O   UNL     1     -13.074  14.090  65.517  1.00  0.00    -0.713 OA 
HETATM    6  O   UNL     1     -12.567  16.098  64.631  1.00  0.00     0.450 OA 
ENDROOT
BRANCH   3   7
HETATM    7  N   UNL     1      -9.683  15.013  68.177  1.00  0.00    -0.212 N  
HETATM    8  C   UNL     1      -8.474  14.301  68.259  1.00  0.00    -0.167 C  
HETATM    9  O   UNL     1      -8.151  13.438  67.441  1.00  0.00    -0.167 OA 
HETATM   10  C   UNL     1      -7.501  14.690  69.352  1.00  0.00    -0.112 C  
BRANCH   7  11
HETATM   11  C   UNL     1     -10.305  15.500  69.385  1.00  0.00    -0.258 A  
HETATM   12  C   UNL     1     -10.564  14.642  70.485  1.00  0.00     0.361 A  
HETATM   13  I   UNL     1     -10.348  12.540  70.435  1.00  0.00     5.049 I  
HETATM   14  C   UNL     1     -10.999  15.158  71.706  1.00  0.00     0.017 A  
HETATM   15  C   UNL     1     -11.241  16.522  71.849  1.00  0.00     0.423 A  
HETATM   16  C   UNL     1     -11.116  17.403  70.757  1.00  0.00     1.466 A  
HETATM   17  I   UNL     1     -11.812  17.209  73.759  1.00  0.00     1.465 I  
HETATM   18  N   UNL     1     -11.285  18.793  70.942  1.00  0.00     3.041 NA 
HETATM   19  C   UNL     1     -10.588  16.879  69.549  1.00  0.00    -0.239 A  
HETATM   20  H1  UNL     1     -11.194  19.431  70.151  1.00  0.00     0.000 HD 
HETATM   21  I   UNL     1     -10.173  18.292  68.008  1.00  0.00    -0.389 I  
HETATM   22  H2  UNL     1     -10.648  19.099  71.677  1.00  0.00     0.000 HD 
ENDBRANCH   7  11
ENDBRANCH   3   7
TORSDOF 2
ENDMDL
MODEL      220
REMARK 921   NORMALIZED FREE ENERGY PREDICTED BY IDOCK:   29.34 KCAL/MOL
REMARK 922        TOTAL FREE ENERGY PREDICTED BY IDOCK:   32.67 KCAL/MOL
REMARK 923 INTER-LIGAND FREE ENERGY PREDICTED BY IDOCK:    0.07 KCAL/MOL
REMARK 924 INTRA-LIGAND FREE ENERGY PREDICTED BY IDOCK:   32.60 KCAL/MOL
REMARK 927      BINDING AFFINITY PREDICTED BY RF-SCORE:    0.00 PKD
ROOT
HETATM    1  C   UNL     1     -10.071   9.396  69.145  1.00  0.00    -0.200 C  
HETATM    2  C   UNL     1     -11.418   8.906  69.652  1.00  0.00     0.256 C  
HETATM    3  C   UNL     1     -11.339   7.880  70.803  1.00  0.00    -0.274 C  
HETATM    4  C   UNL     1     -12.214  10.092  70.153  1.00  0.00    -0.116 C  
HETATM    5  O   UNL     1     -11.877  10.783  71.103  1.00  0.00    -0.306 OA 
HETATM    6  O   UNL     1     -13.340  10.334  69.449  1.00  0.00     0.641 OA 
ENDROOT
BRANCH   3   7
HETATM    7  N   UNL     1     -10.705   6.581  70.471  1.00  0.00    -0.240 N  
HETATM    8  C   UNL     1      -9.894   5.979  71.448  1.00  0.00    -0.173 C  
HETATM    9  O   UNL     1      -9.725   6.466  72.567  1.00  0.00    -0.163 OA 
HETATM   10  C   UNL     1      -9.284   4.632  71.124  1.00  0.00    -0.193 C  
BRANCH   7  11
HETATM   11  C   UNL     1     -10.402   6.383  69.074  1.00  0.00    -0.199 A  
HETATM   12  C   UNL     1     -10.562   7.424  68.124  1.00  0.00    -0.162 A  
HETATM   13  I   UNL     1     -11.495   9.277  68.531  1.00  0.00     1.461 I  
HETATM   14  C   UNL     1     -10.098   7.276  66.816  1.00  0.00    -0.291 A  
HETATM   15  C   UNL     1      -9.522   6.077  66.405  1.00  0.00    -0.150 A  
HETATM   16  C   UNL     1      -9.447   4.969  67.271  1.00  0.00    -0.136 A  
HETATM   17  I   UNL     1      -8.778   5.986  64.434  1.00  0.00     0.647 I  
HETATM   18  N   UNL     1      -8.785   3.790  66.862  1.00  0.00    -0.108 NA 
HETATM   19  C   UNL     1      -9.839   5.164  68.620  1.00  0.00    -0.160 A  
HETATM   20  H1  UNL     1      -8.730   2.987  67.490  1.00  0.00     0.000 HD 
HETATM   21  I   UNL     1      -9.470   3.543  69.955  1.00  0.00    -0.068 I  
HETATM   22  H2  UNL     1      -7.838   4.037  66.574  1.00  0.00     0.000 HD 
ENDBRANCH   7  11
ENDBRANCH   3   7
TORSDOF 2
ENDMDL
MODEL      221
REMARK 921   NORMALIZED FREE ENERGY PREDICTED BY IDOCK:   33.36 KCAL/MOL
REMARK 922        TOTAL FREE ENERGY PREDICTED BY IDOCK:   37.16 KCAL/MOL
REMARK 923 INTER-LIGAND FREE ENERGY PREDICTED BY IDOCK:   32.49 KCAL/MOL
REMARK 924 INTRA-LIGAND FREE ENERGY PREDICTED BY IDOCK:    4.67 KCAL/MOL
REMARK 927      BINDING AFFINITY PREDICTED BY RF-SCORE:    0.00 PKD
ROOT
HETATM    1  C   UNL     1     -11.159  14.235  68.077  1.00  0.00    -0.286 C  
HETATM    2  C   UNL     1      -9.681  14.537  68.269  1.00  0.00    -0.218 C  
HETATM    3  C   UNL     1      -9.367  15.505  69.430  1.00  0.00    -0.279 C  
HETATM    4  C   UNL     1      -8.947  13.242  68.544  1.00  0.00    -0.058 C  
HETATM    5  O   UNL     1      -9.143  12.548  69.530  1.00  0.00     1.083 OA 
HETATM    6  O   UNL     1      -8.050  12.908  67.593  1.00  0.00    -0.142 OA 
ENDROOT
BRANCH   3   7
HETATM    7  N   UNL     1      -9.892  16.884  69.284  1.00  0.00    -0.202 N  
HETATM    8  C   UNL     1      -9.400  17.663  68.223  1.00  0.00    -0.290 C  
HETATM    9  O   UNL     1      -8.590  17.233  67.400  1.00  0.00    -0.202 OA 
HETATM   10  C   UNL     1      -9.968  19.055  68.049  1.00  0.00    -0.436 C  
BRANCH   7  11
HETATM   11  C   UNL     1     -10.287  17.527  70.515  1.00  0.00     1.553 A  
HETATM   12  C   UNL     1      -9.755  18.785  70.900  1.00  0.00     3.205 A  
HETATM   13  I   UNL     1      -8.155  19.755  69.916  1.00  0.00     1.588 I  
HETATM   14  C   UNL     1     -10.275  19.475  71.995  1.00  0.00     3.377 A  
HETATM   15  C   UNL     1     -11.289  18.912  72.766  1.00  0.00     4.669 A  
HETATM   16  C   UNL     1     -11.772  17.616  72.502  1.00  0.00     2.130 A  
HETATM   17  I   UNL     1     -12.062  20.075  74.346  1.00  0.00    16.044 I  
HETATM   18  N   UNL     1     -12.857  17.096  73.242  1.00  0.00     0.901 NA 
HETATM   19  C   UNL     1     -11.298  16.965  71.334  1.00  0.00     0.611 A  
HETATM   20  H1  UNL     1     -13.207  16.157  73.050  1.00  0.00     0.000 HD 
HETATM   21  I   UNL     1     -12.240  15.120  70.831  1.00  0.00    -0.558 I  
HETATM   22  H2  UNL     1     -13.637  17.750  73.171  1.00  0.00     0.000 HD 
ENDBRANCH   7  11
ENDBRANCH   3   7
TORSDOF 2
ENDMDL
