MODEL        1
REMARK 921   NORMALIZED FREE ENERGY PREDICTED BY IDOCK:   -7.48 KCAL/MOL
REMARK 922        TOTAL FREE ENERGY PREDICTED BY IDOCK:  -11.45 KCAL/MOL
REMARK 923 INTER-LIGAND FREE ENERGY PREDICTED BY IDOCK:  -10.53 KCAL/MOL
REMARK 924 INTRA-LIGAND FREE ENERGY PREDICTED BY IDOCK:   -0.92 KCAL/MOL
REMARK 927      BINDING AFFINITY PREDICTED BY RF-SCORE:    0.00 PKD
ROOT
HETATM    1  O   UNL     1      -8.554   3.778  66.242  1.00  0.00    -0.109 OA 
HETATM    2  C   UNL     1      -9.649   4.411  66.716  1.00  0.00    -0.199 C  
HETATM    3  C   UNL     1      -9.681   4.570  68.195  1.00  0.00    -0.188 A  
HETATM    4  O   UNL     1     -10.507   4.858  65.975  1.00  0.00    -0.282 OA 
HETATM    5  C   UNL     1      -9.979   5.829  68.783  1.00  0.00    -0.159 A  
HETATM    6  I   UNL     1     -10.212   7.605  67.575  1.00  0.00    -0.343 I  
HETATM    7  C   UNL     1     -10.049   5.995  70.196  1.00  0.00    -0.194 A  
HETATM    8  I   UNL     1      -9.188   1.482  68.393  1.00  0.00    -0.217 I  
HETATM    9  C   UNL     1      -9.833   4.872  71.014  1.00  0.00    -0.195 A  
HETATM   10  C   UNL     1      -9.480   3.471  69.048  1.00  0.00    -0.143 A  
HETATM   11  C   UNL     1      -9.536   3.628  70.439  1.00  0.00    -0.255 A  
HETATM   12  I   UNL     1     -10.166   4.831  73.099  1.00  0.00    -0.285 I  
ENDROOT
BRANCH   7  13
HETATM   13  N   UNL     1     -10.416   7.272  70.717  1.00  0.00    -0.211 N  
HETATM   14  O   UNL     1     -12.674   6.821  71.005  1.00  0.00    -0.321 OA 
HETATM   15  C   UNL     1     -11.713   7.579  71.101  1.00  0.00    -0.291 C  
HETATM   16  H   UNL     1      -9.696   7.987  70.812  1.00  0.00     0.000 HD 
BRANCH  15  17
HETATM   17  C   UNL     1     -11.843   8.914  71.822  1.00  0.00    -0.429 C  
BRANCH  17  18
HETATM   18  C   UNL     1     -11.280  10.036  70.951  1.00  0.00    -0.415 C  
BRANCH  18  19
HETATM   19  C   UNL     1     -12.318  10.778  70.104  1.00  0.00    -0.401 C  
BRANCH  19  20
HETATM   20  C   UNL     1     -11.875  11.111  68.675  1.00  0.00    -0.357 C  
BRANCH  20  21
HETATM   21  C   UNL     1     -11.113  12.432  68.645  1.00  0.00    -0.257 C  
HETATM   22  N   UNL     1     -11.934  13.542  68.504  1.00  0.00    -0.363 N  
HETATM   23  O   UNL     1      -9.888  12.477  68.662  1.00  0.00    -0.180 OA 
HETATM   24  H   UNL     1     -12.943  13.409  68.436  1.00  0.00     0.000 HD 
BRANCH  22  25
HETATM   25  C   UNL     1     -11.400  14.864  68.453  1.00  0.00    -0.303 A  
HETATM   26  C   UNL     1     -11.271  15.664  69.600  1.00  0.00    -0.310 A  
HETATM   27  I   UNL     1     -12.125  15.189  71.480  1.00  0.00    -0.565 I  
HETATM   28  C   UNL     1     -10.705  16.940  69.517  1.00  0.00    -0.205 A  
HETATM   29  C   UNL     1     -10.320  17.474  68.280  1.00  0.00    -0.379 A  
HETATM   30  I   UNL     1      -9.603  19.460  68.379  1.00  0.00    -0.516 I  
HETATM   31  C   UNL     1     -10.484  16.730  67.098  1.00  0.00    -0.299 A  
HETATM   32  C   UNL     1     -10.178  17.321  65.762  1.00  0.00    -0.198 C  
HETATM   33  C   UNL     1     -11.023  15.419  67.199  1.00  0.00    -0.317 A  
HETATM   34  O   UNL     1     -10.935  17.246  64.811  1.00  0.00    -0.950 OA 
HETATM   35  I   UNL     1     -11.184  14.126  65.474  1.00  0.00    -0.370 I  
HETATM   36  O   UNL     1      -8.970  17.917  65.667  1.00  0.00    -0.331 OA 
ENDBRANCH  22  25
ENDBRANCH  20  21
ENDBRANCH  19  20
ENDBRANCH  18  19
ENDBRANCH  17  18
ENDBRANCH  15  17
ENDBRANCH   7  13
TORSDOF 7
ENDMDL
MODEL        2
REMARK 921   NORMALIZED FREE ENERGY PREDICTED BY IDOCK:   -7.00 KCAL/MOL
REMARK 922        TOTAL FREE ENERGY PREDICTED BY IDOCK:  -10.78 KCAL/MOL
REMARK 923 INTER-LIGAND FREE ENERGY PREDICTED BY IDOCK:   -9.74 KCAL/MOL
REMARK 924 INTRA-LIGAND FREE ENERGY PREDICTED BY IDOCK:   -1.05 KCAL/MOL
REMARK 927      BINDING AFFINITY PREDICTED BY RF-SCORE:    0.00 PKD
ROOT
HETATM    1  O   UNL     1      -9.885   1.511  71.406  1.00  0.00    -0.133 OA 
HETATM    2  C   UNL     1      -9.316   2.716  71.633  1.00  0.00    -0.124 C  
HETATM    3  C   UNL     1      -9.645   3.755  70.620  1.00  0.00    -0.259 A  
HETATM    4  O   UNL     1      -8.636   2.933  72.619  1.00  0.00    -0.074 OA 
HETATM    5  C   UNL     1     -10.077   5.048  71.021  1.00  0.00    -0.227 A  
HETATM    6  I   UNL     1     -10.459   5.509  73.098  1.00  0.00    -0.337 I  
HETATM    7  C   UNL     1     -10.363   6.069  70.070  1.00  0.00    -0.229 A  
HETATM    8  I   UNL     1      -8.691   1.722  68.434  1.00  0.00    -0.169 I  
HETATM    9  C   UNL     1     -10.191   5.779  68.705  1.00  0.00    -0.197 A  
HETATM   10  C   UNL     1      -9.477   3.510  69.246  1.00  0.00    -0.163 A  
HETATM   11  C   UNL     1      -9.767   4.504  68.303  1.00  0.00    -0.186 A  
HETATM   12  I   UNL     1     -10.282   7.214  67.159  1.00  0.00    -0.375 I  
ENDROOT
BRANCH   7  13
HETATM   13  N   UNL     1     -10.731   7.363  70.545  1.00  0.00    -0.229 N  
HETATM   14  O   UNL     1      -8.607   8.297  70.493  1.00  0.00    -0.124 OA 
HETATM   15  C   UNL     1      -9.813   8.391  70.703  1.00  0.00    -0.181 C  
HETATM   16  H   UNL     1     -11.708   7.540  70.777  1.00  0.00     0.000 HD 
BRANCH  15  17
HETATM   17  C   UNL     1     -10.446   9.740  71.017  1.00  0.00    -0.230 C  
BRANCH  17  18
HETATM   18  C   UNL     1     -11.945   9.696  70.726  1.00  0.00    -0.356 C  
BRANCH  18  19
HETATM   19  C   UNL     1     -12.451  10.787  69.778  1.00  0.00    -0.231 C  
BRANCH  19  20
HETATM   20  C   UNL     1     -11.624  10.975  68.501  1.00  0.00    -0.380 C  
BRANCH  20  21
HETATM   21  C   UNL     1     -10.930  12.333  68.507  1.00  0.00    -0.240 C  
HETATM   22  N   UNL     1     -11.801  13.402  68.351  1.00  0.00    -0.356 N  
HETATM   23  O   UNL     1      -9.710  12.439  68.563  1.00  0.00    -0.206 OA 
HETATM   24  H   UNL     1     -12.799  13.219  68.250  1.00  0.00     0.000 HD 
BRANCH  22  25
HETATM   25  C   UNL     1     -11.333  14.749  68.329  1.00  0.00    -0.301 A  
HETATM   26  C   UNL     1     -11.240  15.528  69.494  1.00  0.00    -0.299 A  
HETATM   27  I   UNL     1     -12.062  14.968  71.364  1.00  0.00    -0.527 I  
HETATM   28  C   UNL     1     -10.738  16.832  69.439  1.00  0.00    -0.300 A  
HETATM   29  C   UNL     1     -10.384  17.413  68.213  1.00  0.00    -0.374 A  
HETATM   30  I   UNL     1      -9.766  19.429  68.357  1.00  0.00    -0.548 I  
HETATM   31  C   UNL     1     -10.515  16.688  67.015  1.00  0.00    -0.283 A  
HETATM   32  C   UNL     1     -10.244  17.325  65.693  1.00  0.00    -0.124 C  
HETATM   33  C   UNL     1     -10.989  15.351  67.087  1.00  0.00    -0.317 A  
HETATM   34  O   UNL     1     -11.000  17.235  64.742  1.00  0.00    -0.950 OA 
HETATM   35  I   UNL     1     -11.092  14.091  65.334  1.00  0.00    -0.391 I  
HETATM   36  O   UNL     1      -9.067  17.982  65.608  1.00  0.00    -0.320 OA 
ENDBRANCH  22  25
ENDBRANCH  20  21
ENDBRANCH  19  20
ENDBRANCH  18  19
ENDBRANCH  17  18
ENDBRANCH  15  17
ENDBRANCH   7  13
TORSDOF 7
ENDMDL
MODEL        3
REMARK 921   NORMALIZED FREE ENERGY PREDICTED BY IDOCK:   -7.00 KCAL/MOL
REMARK 922        TOTAL FREE ENERGY PREDICTED BY IDOCK:  -10.78 KCAL/MOL
REMARK 923 INTER-LIGAND FREE ENERGY PREDICTED BY IDOCK:   -9.81 KCAL/MOL
REMARK 924 INTRA-LIGAND FREE ENERGY PREDICTED BY IDOCK:   -0.97 KCAL/MOL
REMARK 927      BINDING AFFINITY PREDICTED BY RF-SCORE:    0.00 PKD
ROOT
HETATM    1  O   UNL     1     -11.116  17.107  64.554  1.00  0.00    -1.105 OA 
HETATM    2  C   UNL     1     -10.615  15.982  65.109  1.00  0.00    -0.370 C  
HETATM    3  C   UNL     1     -10.993  15.773  66.533  1.00  0.00    -0.165 A  
HETATM    4  O   UNL     1      -9.953  15.186  64.468  1.00  0.00     0.013 OA 
HETATM    5  C   UNL     1     -11.497  14.520  66.973  1.00  0.00    -0.370 A  
HETATM    6  I   UNL     1     -11.915  12.925  65.576  1.00  0.00    -0.507 I  
HETATM    7  C   UNL     1     -11.831  14.287  68.338  1.00  0.00    -0.338 A  
HETATM    8  I   UNL     1      -9.920  18.664  67.093  1.00  0.00    -0.468 I  
HETATM    9  C   UNL     1     -11.637  15.329  69.262  1.00  0.00    -0.332 A  
HETATM   10  C   UNL     1     -10.805  16.785  67.491  1.00  0.00    -0.216 A  
HETATM   11  C   UNL     1     -11.143  16.569  68.833  1.00  0.00    -0.300 A  
HETATM   12  I   UNL     1     -11.796  15.112  71.356  1.00  0.00    -0.516 I  
ENDROOT
BRANCH   7  13
HETATM   13  N   UNL     1     -12.271  12.985  68.722  1.00  0.00    -0.133 N  
HETATM   14  O   UNL     1     -10.167  12.033  68.954  1.00  0.00    -0.169 OA 
HETATM   15  C   UNL     1     -11.391  11.956  69.021  1.00  0.00    -0.279 C  
HETATM   16  H   UNL     1     -13.273  12.804  68.780  1.00  0.00     0.000 HD 
BRANCH  15  17
HETATM   17  C   UNL     1     -12.062  10.721  69.607  1.00  0.00    -0.361 C  
BRANCH  17  18
HETATM   18  C   UNL     1     -12.362  10.942  71.088  1.00  0.00    -0.479 C  
BRANCH  18  19
HETATM   19  C   UNL     1     -12.739   9.677  71.867  1.00  0.00    -0.499 C  
BRANCH  19  20
HETATM   20  C   UNL     1     -11.554   8.839  72.358  1.00  0.00    -0.321 C  
BRANCH  20  21
HETATM   21  C   UNL     1     -11.454   7.537  71.569  1.00  0.00    -0.265 C  
HETATM   22  N   UNL     1     -10.154   7.076  71.423  1.00  0.00    -0.189 N  
HETATM   23  O   UNL     1     -12.435   7.012  71.054  1.00  0.00    -0.376 OA 
HETATM   24  H   UNL     1      -9.388   7.609  71.833  1.00  0.00     0.000 HD 
BRANCH  22  25
HETATM   25  C   UNL     1      -9.864   5.874  70.712  1.00  0.00    -0.183 A  
HETATM   26  C   UNL     1      -9.910   4.612  71.325  1.00  0.00    -0.190 A  
HETATM   27  I   UNL     1     -10.085   4.315  73.415  1.00  0.00    -0.261 I  
HETATM   28  C   UNL     1      -9.659   3.452  70.585  1.00  0.00    -0.238 A  
HETATM   29  C   UNL     1      -9.288   3.528  69.236  1.00  0.00    -0.172 A  
HETATM   30  I   UNL     1      -8.842   1.660  68.353  1.00  0.00    -0.198 I  
HETATM   31  C   UNL     1      -9.174   4.775  68.596  1.00  0.00    -0.168 A  
HETATM   32  C   UNL     1      -8.679   4.882  67.192  1.00  0.00    -0.103 C  
HETATM   33  C   UNL     1      -9.470   5.945  69.346  1.00  0.00    -0.130 A  
HETATM   34  O   UNL     1      -7.818   5.672  66.847  1.00  0.00    -0.100 OA 
HETATM   35  I   UNL     1      -9.474   7.904  68.433  1.00  0.00    -0.168 I  
HETATM   36  O   UNL     1      -9.288   4.062  66.309  1.00  0.00    -0.151 OA 
ENDBRANCH  22  25
ENDBRANCH  20  21
ENDBRANCH  19  20
ENDBRANCH  18  19
ENDBRANCH  17  18
ENDBRANCH  15  17
ENDBRANCH   7  13
TORSDOF 7
ENDMDL
MODEL        4
REMARK 921   NORMALIZED FREE ENERGY PREDICTED BY IDOCK:   -6.89 KCAL/MOL
REMARK 922        TOTAL FREE ENERGY PREDICTED BY IDOCK:  -10.64 KCAL/MOL
REMARK 923 INTER-LIGAND FREE ENERGY PREDICTED BY IDOCK:   -9.63 KCAL/MOL
REMARK 924 INTRA-LIGAND FREE ENERGY PREDICTED BY IDOCK:   -1.01 KCAL/MOL
REMARK 927      BINDING AFFINITY PREDICTED BY RF-SCORE:    0.00 PKD
ROOT
HETATM    1  O   UNL     1     -11.134   4.819  74.449  1.00  0.00    -0.243 OA 
HETATM    2  C   UNL     1     -10.263   5.598  73.770  1.00  0.00    -0.231 C  
HETATM    3  C   UNL     1     -10.091   5.233  72.339  1.00  0.00    -0.227 A  
HETATM    4  O   UNL     1      -9.711   6.552  74.290  1.00  0.00    -0.227 OA 
HETATM    5  C   UNL     1     -10.158   6.226  71.323  1.00  0.00    -0.189 A  
HETATM    6  I   UNL     1     -10.697   8.267  71.784  1.00  0.00    -0.414 I  
HETATM    7  C   UNL     1      -9.962   5.904  69.950  1.00  0.00    -0.182 A  
HETATM    8  I   UNL     1      -9.487   2.314  73.304  1.00  0.00    -0.148 I  
HETATM    9  C   UNL     1      -9.678   4.569  69.609  1.00  0.00    -0.218 A  
HETATM   10  C   UNL     1      -9.796   3.913  71.955  1.00  0.00    -0.174 A  
HETATM   11  C   UNL     1      -9.613   3.585  70.606  1.00  0.00    -0.247 A  
HETATM   12  I   UNL     1      -9.078   3.930  67.688  1.00  0.00    -0.236 I  
ENDROOT
BRANCH   7  13
HETATM   13  N   UNL     1      -9.979   6.960  68.991  1.00  0.00    -0.155 N  
HETATM   14  O   UNL     1      -7.721   7.483  69.105  1.00  0.00    -0.108 OA 
HETATM   15  C   UNL     1      -8.839   7.661  68.628  1.00  0.00    -0.127 C  
HETATM   16  H   UNL     1     -10.866   7.209  68.553  1.00  0.00     0.000 HD 
BRANCH  15  17
HETATM   17  C   UNL     1      -9.041   8.597  67.443  1.00  0.00    -0.148 C  
BRANCH  17  18
HETATM   18  C   UNL     1     -10.532   8.790  67.177  1.00  0.00    -0.354 C  
BRANCH  18  19
HETATM   19  C   UNL     1     -10.982  10.249  67.057  1.00  0.00    -0.189 C  
BRANCH  19  20
HETATM   20  C   UNL     1     -11.352  10.927  68.380  1.00  0.00    -0.370 C  
BRANCH  20  21
HETATM   21  C   UNL     1     -10.742  12.323  68.456  1.00  0.00    -0.237 C  
HETATM   22  N   UNL     1     -11.658  13.341  68.231  1.00  0.00    -0.311 N  
HETATM   23  O   UNL     1      -9.540  12.500  68.620  1.00  0.00    -0.144 OA 
HETATM   24  H   UNL     1     -12.631  13.102  68.041  1.00  0.00     0.000 HD 
BRANCH  22  25
HETATM   25  C   UNL     1     -11.270  14.714  68.260  1.00  0.00    -0.285 A  
HETATM   26  C   UNL     1     -11.274  15.468  69.444  1.00  0.00    -0.300 A  
HETATM   27  I   UNL     1     -12.142  14.816  71.263  1.00  0.00    -0.436 I  
HETATM   28  C   UNL     1     -10.849  16.800  69.439  1.00  0.00    -0.250 A  
HETATM   29  C   UNL     1     -10.477  17.430  68.244  1.00  0.00    -0.385 A  
HETATM   30  I   UNL     1      -9.986  19.475  68.459  1.00  0.00    -0.439 I  
HETATM   31  C   UNL     1     -10.513  16.729  67.026  1.00  0.00    -0.285 A  
HETATM   32  C   UNL     1     -10.222  17.412  65.731  1.00  0.00    -0.191 C  
HETATM   33  C   UNL     1     -10.908  15.365  67.048  1.00  0.00    -0.320 A  
HETATM   34  O   UNL     1     -10.929  17.301  64.746  1.00  0.00    -0.950 OA 
HETATM   35  I   UNL     1     -10.860  14.144  65.264  1.00  0.00    -0.442 I  
HETATM   36  O   UNL     1      -9.084  18.138  65.713  1.00  0.00    -0.466 OA 
ENDBRANCH  22  25
ENDBRANCH  20  21
ENDBRANCH  19  20
ENDBRANCH  18  19
ENDBRANCH  17  18
ENDBRANCH  15  17
ENDBRANCH   7  13
TORSDOF 7
ENDMDL
MODEL        5
REMARK 921   NORMALIZED FREE ENERGY PREDICTED BY IDOCK:   -6.51 KCAL/MOL
REMARK 922        TOTAL FREE ENERGY PREDICTED BY IDOCK:  -10.09 KCAL/MOL
REMARK 923 INTER-LIGAND FREE ENERGY PREDICTED BY IDOCK:   -9.48 KCAL/MOL
REMARK 924 INTRA-LIGAND FREE ENERGY PREDICTED BY IDOCK:   -0.61 KCAL/MOL
REMARK 927      BINDING AFFINITY PREDICTED BY RF-SCORE:    0.00 PKD
ROOT
HETATM    1  O   UNL     1     -11.244  16.859  64.411  1.00  0.00    -1.159 OA 
HETATM    2  C   UNL     1     -10.734  15.781  65.046  1.00  0.00    -0.421 C  
HETATM    3  C   UNL     1     -11.075  15.694  66.491  1.00  0.00    -0.135 A  
HETATM    4  O   UNL     1     -10.092  14.930  64.456  1.00  0.00    -0.078 OA 
HETATM    5  C   UNL     1     -11.573  14.484  67.047  1.00  0.00    -0.386 A  
HETATM    6  I   UNL     1     -12.034  12.782  65.799  1.00  0.00    -0.382 I  
HETATM    7  C   UNL     1     -11.873  14.368  68.434  1.00  0.00    -0.319 A  
HETATM    8  I   UNL     1      -9.975  18.613  66.780  1.00  0.00    -0.481 I  
HETATM    9  C   UNL     1     -11.650  15.482  69.264  1.00  0.00    -0.357 A  
HETATM   10  C   UNL     1     -10.858  16.780  67.356  1.00  0.00    -0.176 A  
HETATM   11  C   UNL     1     -11.161  16.679  68.720  1.00  0.00    -0.217 A  
HETATM   12  I   UNL     1     -11.756  15.441  71.372  1.00  0.00    -0.585 I  
ENDROOT
BRANCH   7  13
HETATM   13  N   UNL     1     -12.308  13.105  68.937  1.00  0.00    -0.030 N  
HETATM   14  O   UNL     1     -10.231  12.071  68.940  1.00  0.00    -0.169 OA 
HETATM   15  C   UNL     1     -11.437  12.052  69.169  1.00  0.00    -0.300 C  
HETATM   16  H   UNL     1     -13.300  12.973  69.135  1.00  0.00     0.000 HD 
BRANCH  15  17
HETATM   17  C   UNL     1     -12.073  10.875  69.899  1.00  0.00    -0.428 C  
BRANCH  17  18
HETATM   18  C   UNL     1     -10.988   9.931  70.413  1.00  0.00    -0.379 C  
BRANCH  18  19
HETATM   19  C   UNL     1     -11.381   9.105  71.642  1.00  0.00    -0.446 C  
BRANCH  19  20
HETATM   20  C   UNL     1     -10.600   7.799  71.824  1.00  0.00    -0.260 C  
BRANCH  20  21
HETATM   21  C   UNL     1     -10.711   6.930  70.576  1.00  0.00    -0.235 C  
HETATM   22  N   UNL     1      -9.490   6.672  69.970  1.00  0.00    -0.157 N  
HETATM   23  O   UNL     1     -11.794   6.573  70.126  1.00  0.00    -0.416 OA 
HETATM   24  H   UNL     1      -8.640   7.059  70.379  1.00  0.00     0.000 HD 
BRANCH  22  25
HETATM   25  C   UNL     1      -9.396   5.877  68.789  1.00  0.00    -0.122 A  
HETATM   26  C   UNL     1      -9.539   6.426  67.504  1.00  0.00    -0.120 A  
HETATM   27  I   UNL     1     -10.226   8.394  67.125  1.00  0.00    -0.341 I  
HETATM   28  C   UNL     1      -9.400   5.623  66.368  1.00  0.00    -0.165 A  
HETATM   29  C   UNL     1      -9.185   4.243  66.488  1.00  0.00    -0.149 A  
HETATM   30  I   UNL     1      -9.128   3.212  64.643  1.00  0.00    -0.150 I  
HETATM   31  C   UNL     1      -9.092   3.642  67.755  1.00  0.00    -0.193 A  
HETATM   32  C   UNL     1      -8.969   2.162  67.903  1.00  0.00    -0.156 C  
HETATM   33  C   UNL     1      -9.195   4.473  68.903  1.00  0.00    -0.134 A  
HETATM   34  O   UNL     1      -9.653   1.509  68.672  1.00  0.00    -0.172 OA 
HETATM   35  I   UNL     1      -8.920   3.688  70.898  1.00  0.00    -0.200 I  
HETATM   36  O   UNL     1      -8.007   1.592  67.145  1.00  0.00    -0.063 OA 
ENDBRANCH  22  25
ENDBRANCH  20  21
ENDBRANCH  19  20
ENDBRANCH  18  19
ENDBRANCH  17  18
ENDBRANCH  15  17
ENDBRANCH   7  13
TORSDOF 7
ENDMDL
MODEL        6
REMARK 921   NORMALIZED FREE ENERGY PREDICTED BY IDOCK:   -6.50 KCAL/MOL
REMARK 922        TOTAL FREE ENERGY PREDICTED BY IDOCK:  -10.08 KCAL/MOL
REMARK 923 INTER-LIGAND FREE ENERGY PREDICTED BY IDOCK:   -8.99 KCAL/MOL
REMARK 924 INTRA-LIGAND FREE ENERGY PREDICTED BY IDOCK:   -1.09 KCAL/MOL
REMARK 927      BINDING AFFINITY PREDICTED BY RF-SCORE:    0.00 PKD
ROOT
HETATM    1  O   UNL     1     -10.806  18.512  66.354  1.00  0.00    -0.257 OA 
HETATM    2  C   UNL     1     -10.593  17.425  65.581  1.00  0.00    -0.153 C  
HETATM    3  C   UNL     1      -9.698  16.402  66.185  1.00  0.00    -0.355 A  
HETATM    4  O   UNL     1     -11.139  17.284  64.501  1.00  0.00    -1.082 OA 
HETATM    5  C   UNL     1     -10.070  15.030  66.198  1.00  0.00    -0.294 A  
HETATM    6  I   UNL     1     -12.018  14.389  65.518  1.00  0.00    -0.269 I  
HETATM    7  C   UNL     1      -9.213  14.029  66.740  1.00  0.00    -0.265 A  
HETATM    8  I   UNL     1      -7.614  18.698  66.637  1.00  0.00    -0.301 I  
HETATM    9  C   UNL     1      -7.965  14.423  67.255  1.00  0.00    -0.180 A  
HETATM   10  C   UNL     1      -8.439  16.751  66.702  1.00  0.00    -0.256 A  
HETATM   11  C   UNL     1      -7.595  15.775  67.248  1.00  0.00    -0.244 A  
HETATM   12  I   UNL     1      -6.439  13.086  67.840  1.00  0.00    -0.167 I  
ENDROOT
BRANCH   7  13
HETATM   13  N   UNL     1      -9.621  12.664  66.662  1.00  0.00    -0.243 N  
HETATM   14  O   UNL     1     -10.486  12.505  68.810  1.00  0.00    -0.213 OA 
HETATM   15  C   UNL     1     -10.249  12.009  67.711  1.00  0.00    -0.202 C  
HETATM   16  H   UNL     1      -9.444  12.149  65.799  1.00  0.00     0.000 HD 
BRANCH  15  17
HETATM   17  C   UNL     1     -10.784  10.631  67.346  1.00  0.00    -0.326 C  
BRANCH  17  18
HETATM   18  C   UNL     1     -10.029  10.079  66.139  1.00  0.00    -0.322 C  
BRANCH  18  19
HETATM   19  C   UNL     1      -8.952   9.040  66.472  1.00  0.00    -0.177 C  
BRANCH  19  20
HETATM   20  C   UNL     1      -9.339   7.586  66.183  1.00  0.00    -0.128 C  
BRANCH  20  21
HETATM   21  C   UNL     1      -9.896   6.921  67.437  1.00  0.00    -0.144 C  
HETATM   22  N   UNL     1      -8.931   6.646  68.395  1.00  0.00    -0.124 N  
HETATM   23  O   UNL     1     -11.075   6.596  67.531  1.00  0.00    -0.321 OA 
HETATM   24  H   UNL     1      -7.960   6.896  68.208  1.00  0.00     0.000 HD 
BRANCH  22  25
HETATM   25  C   UNL     1      -9.264   6.022  69.633  1.00  0.00    -0.138 A  
HETATM   26  C   UNL     1      -9.247   4.628  69.798  1.00  0.00    -0.123 A  
HETATM   27  I   UNL     1      -9.055   3.248  68.202  1.00  0.00    -0.233 I  
HETATM   28  C   UNL     1      -9.541   4.055  71.039  1.00  0.00    -0.249 A  
HETATM   29  C   UNL     1      -9.926   4.854  72.124  1.00  0.00    -0.179 A  
HETATM   30  I   UNL     1     -10.438   3.764  73.863  1.00  0.00    -0.313 I  
HETATM   31  C   UNL     1     -10.012   6.251  71.988  1.00  0.00    -0.187 A  
HETATM   32  C   UNL     1     -10.521   7.106  73.100  1.00  0.00    -0.321 C  
HETATM   33  C   UNL     1      -9.672   6.826  70.734  1.00  0.00    -0.179 A  
HETATM   34  O   UNL     1     -11.363   7.972  72.943  1.00  0.00    -0.408 OA 
HETATM   35  I   UNL     1      -9.623   8.967  70.448  1.00  0.00    -0.322 I  
HETATM   36  O   UNL     1      -9.947   6.880  74.302  1.00  0.00    -0.319 OA 
ENDBRANCH  22  25
ENDBRANCH  20  21
ENDBRANCH  19  20
ENDBRANCH  18  19
ENDBRANCH  17  18
ENDBRANCH  15  17
ENDBRANCH   7  13
TORSDOF 7
ENDMDL
MODEL        7
REMARK 921   NORMALIZED FREE ENERGY PREDICTED BY IDOCK:   -6.49 KCAL/MOL
REMARK 922        TOTAL FREE ENERGY PREDICTED BY IDOCK:  -10.07 KCAL/MOL
REMARK 923 INTER-LIGAND FREE ENERGY PREDICTED BY IDOCK:   -9.17 KCAL/MOL
REMARK 924 INTRA-LIGAND FREE ENERGY PREDICTED BY IDOCK:   -0.90 KCAL/MOL
REMARK 927      BINDING AFFINITY PREDICTED BY RF-SCORE:    0.00 PKD
ROOT
HETATM    1  O   UNL     1     -11.266   4.706  73.974  1.00  0.00    -0.265 OA 
HETATM    2  C   UNL     1     -10.673   5.765  73.381  1.00  0.00    -0.273 C  
HETATM    3  C   UNL     1     -10.545   5.655  71.903  1.00  0.00    -0.287 A  
HETATM    4  O   UNL     1     -10.325   6.747  74.012  1.00  0.00    -0.352 OA 
HETATM    5  C   UNL     1     -10.942   6.727  71.058  1.00  0.00    -0.255 A  
HETATM    6  I   UNL     1     -11.916   8.483  71.857  1.00  0.00    -0.480 I  
HETATM    7  C   UNL     1     -10.795   6.657  69.644  1.00  0.00    -0.286 A  
HETATM    8  I   UNL     1      -9.168   2.880  72.372  1.00  0.00    -0.185 I  
HETATM    9  C   UNL     1     -10.228   5.497  69.085  1.00  0.00    -0.239 A  
HETATM   10  C   UNL     1      -9.974   4.518  71.305  1.00  0.00    -0.188 A  
HETATM   11  C   UNL     1      -9.838   4.435  69.913  1.00  0.00    -0.290 A  
HETATM   12  I   UNL     1      -9.664   5.300  67.060  1.00  0.00    -0.253 I  
ENDROOT
BRANCH   7  13
HETATM   13  N   UNL     1     -11.154   7.795  68.861  1.00  0.00    -0.410 N  
HETATM   14  O   UNL     1      -9.061   8.799  68.847  1.00  0.00    -0.140 OA 
HETATM   15  C   UNL     1     -10.241   8.778  68.507  1.00  0.00    -0.195 C  
HETATM   16  H   UNL     1     -12.120   7.890  68.549  1.00  0.00     0.000 HD 
BRANCH  15  17
HETATM   17  C   UNL     1     -10.780   9.787  67.501  1.00  0.00    -0.327 C  
BRANCH  17  18
HETATM   18  C   UNL     1     -11.186  11.073  68.217  1.00  0.00    -0.340 C  
BRANCH  18  19
HETATM   19  C   UNL     1     -10.347  12.304  67.859  1.00  0.00    -0.216 C  
BRANCH  19  20
HETATM   20  C   UNL     1      -8.926  12.311  68.432  1.00  0.00    -0.141 C  
BRANCH  20  21
HETATM   21  C   UNL     1      -8.250  13.653  68.171  1.00  0.00    -0.158 C  
HETATM   22  N   UNL     1      -8.441  14.577  69.189  1.00  0.00    -0.355 N  
HETATM   23  O   UNL     1      -7.667  13.894  67.120  1.00  0.00    -0.127 OA 
HETATM   24  H   UNL     1      -8.992  14.312  70.004  1.00  0.00     0.000 HD 
BRANCH  22  25
HETATM   25  C   UNL     1      -7.885  15.889  69.120  1.00  0.00    -0.227 A  
HETATM   26  C   UNL     1      -6.546  16.153  69.450  1.00  0.00    -0.197 A  
HETATM   27  I   UNL     1      -5.261  14.758  70.394  1.00  0.00    -0.136 I  
HETATM   28  C   UNL     1      -6.025  17.445  69.332  1.00  0.00    -0.237 A  
HETATM   29  C   UNL     1      -6.845  18.515  68.948  1.00  0.00    -0.278 A  
HETATM   30  I   UNL     1      -5.875  20.394  68.953  1.00  0.00    -0.377 I  
HETATM   31  C   UNL     1      -8.206  18.307  68.662  1.00  0.00    -0.301 A  
HETATM   32  C   UNL     1      -9.116  19.448  68.355  1.00  0.00    -0.358 C  
HETATM   33  C   UNL     1      -8.714  16.983  68.747  1.00  0.00    -0.244 A  
HETATM   34  O   UNL     1     -10.206  19.592  68.879  1.00  0.00    -0.423 OA 
HETATM   35  I   UNL     1     -10.750  16.515  68.190  1.00  0.00    -0.292 I  
HETATM   36  O   UNL     1      -8.661  20.302  67.413  1.00  0.00    -0.337 OA 
ENDBRANCH  22  25
ENDBRANCH  20  21
ENDBRANCH  19  20
ENDBRANCH  18  19
ENDBRANCH  17  18
ENDBRANCH  15  17
ENDBRANCH   7  13
TORSDOF 7
ENDMDL
MODEL        8
REMARK 921   NORMALIZED FREE ENERGY PREDICTED BY IDOCK:   -6.47 KCAL/MOL
REMARK 922        TOTAL FREE ENERGY PREDICTED BY IDOCK:  -10.04 KCAL/MOL
REMARK 923 INTER-LIGAND FREE ENERGY PREDICTED BY IDOCK:   -8.89 KCAL/MOL
REMARK 924 INTRA-LIGAND FREE ENERGY PREDICTED BY IDOCK:   -1.15 KCAL/MOL
REMARK 927      BINDING AFFINITY PREDICTED BY RF-SCORE:    0.00 PKD
ROOT
HETATM    1  O   UNL     1      -8.449   3.751  66.783  1.00  0.00    -0.102 OA 
HETATM    2  C   UNL     1      -9.604   4.344  67.157  1.00  0.00    -0.195 C  
HETATM    3  C   UNL     1      -9.754   4.537  68.624  1.00  0.00    -0.203 A  
HETATM    4  O   UNL     1     -10.422   4.732  66.343  1.00  0.00    -0.282 OA 
HETATM    5  C   UNL     1     -10.150   5.794  69.154  1.00  0.00    -0.197 A  
HETATM    6  I   UNL     1     -10.371   7.528  67.883  1.00  0.00    -0.236 I  
HETATM    7  C   UNL     1     -10.334   5.991  70.552  1.00  0.00    -0.221 A  
HETATM    8  I   UNL     1      -9.140   1.480  68.944  1.00  0.00    -0.201 I  
HETATM    9  C   UNL     1     -10.130   4.899  71.415  1.00  0.00    -0.198 A  
HETATM   10  C   UNL     1      -9.569   3.469  69.520  1.00  0.00    -0.109 A  
HETATM   11  C   UNL     1      -9.736   3.657  70.899  1.00  0.00    -0.229 A  
HETATM   12  I   UNL     1     -10.617   4.894  73.470  1.00  0.00    -0.407 I  
ENDROOT
BRANCH   7  13
HETATM   13  N   UNL     1     -10.796   7.262  71.010  1.00  0.00    -0.236 N  
HETATM   14  O   UNL     1     -13.062   6.759  71.001  1.00  0.00    -0.215 OA 
HETATM   15  C   UNL     1     -12.139   7.540  71.217  1.00  0.00    -0.323 C  
HETATM   16  H   UNL     1     -10.111   7.995  71.192  1.00  0.00     0.000 HD 
BRANCH  15  17
HETATM   17  C   UNL     1     -12.393   8.876  71.902  1.00  0.00    -0.445 C  
BRANCH  17  18
HETATM   18  C   UNL     1     -11.371   9.909  71.431  1.00  0.00    -0.344 C  
BRANCH  18  19
HETATM   19  C   UNL     1     -11.958  11.088  70.648  1.00  0.00    -0.464 C  
BRANCH  19  20
HETATM   20  C   UNL     1     -12.113  10.856  69.142  1.00  0.00    -0.292 C  
BRANCH  20  21
HETATM   21  C   UNL     1     -11.499  12.011  68.356  1.00  0.00    -0.301 C  
HETATM   22  N   UNL     1     -10.472  12.656  69.031  1.00  0.00    -0.437 N  
HETATM   23  O   UNL     1     -11.942  12.366  67.270  1.00  0.00    -0.516 OA 
HETATM   24  H   UNL     1     -10.206  12.332  69.960  1.00  0.00     0.000 HD 
BRANCH  22  25
HETATM   25  C   UNL     1      -9.779  13.762  68.454  1.00  0.00    -0.219 A  
HETATM   26  C   UNL     1      -8.629  13.597  67.667  1.00  0.00    -0.185 A  
HETATM   27  I   UNL     1      -7.569  11.771  67.484  1.00  0.00    -0.166 I  
HETATM   28  C   UNL     1      -8.001  14.702  67.085  1.00  0.00    -0.184 A  
HETATM   29  C   UNL     1      -8.464  16.002  67.331  1.00  0.00    -0.168 A  
HETATM   30  I   UNL     1      -7.289  17.521  66.446  1.00  0.00    -0.328 I  
HETATM   31  C   UNL     1      -9.579  16.218  68.159  1.00  0.00    -0.219 A  
HETATM   32  C   UNL     1     -10.021  17.597  68.517  1.00  0.00    -0.368 C  
HETATM   33  C   UNL     1     -10.234  15.085  68.713  1.00  0.00    -0.235 A  
HETATM   34  O   UNL     1     -10.276  17.941  69.657  1.00  0.00    -0.026 OA 
HETATM   35  I   UNL     1     -12.043  15.282  69.879  1.00  0.00    -0.303 I  
HETATM   36  O   UNL     1     -10.162  18.440  67.471  1.00  0.00    -0.337 OA 
ENDBRANCH  22  25
ENDBRANCH  20  21
ENDBRANCH  19  20
ENDBRANCH  18  19
ENDBRANCH  17  18
ENDBRANCH  15  17
ENDBRANCH   7  13
TORSDOF 7
ENDMDL
MODEL        9
REMARK 921   NORMALIZED FREE ENERGY PREDICTED BY IDOCK:   -6.46 KCAL/MOL
REMARK 922        TOTAL FREE ENERGY PREDICTED BY IDOCK:  -10.02 KCAL/MOL
REMARK 923 INTER-LIGAND FREE ENERGY PREDICTED BY IDOCK:   -8.99 KCAL/MOL
REMARK 924 INTRA-LIGAND FREE ENERGY PREDICTED BY IDOCK:   -1.03 KCAL/MOL
REMARK 927      BINDING AFFINITY PREDICTED BY RF-SCORE:    0.00 PKD
ROOT
HETATM    1  O   UNL     1      -7.127  18.688  67.245  1.00  0.00    -0.204 OA 
HETATM    2  C   UNL     1      -7.695  17.641  67.883  1.00  0.00    -0.216 C  
HETATM    3  C   UNL     1      -8.637  16.846  67.050  1.00  0.00    -0.229 A  
HETATM    4  O   UNL     1      -7.409  17.353  69.031  1.00  0.00    -0.250 OA 
HETATM    5  C   UNL     1      -8.545  15.428  67.004  1.00  0.00    -0.234 A  
HETATM    6  I   UNL     1      -6.931  14.376  67.982  1.00  0.00    -0.208 I  
HETATM    7  C   UNL     1      -9.458  14.645  66.241  1.00  0.00    -0.293 A  
HETATM    8  I   UNL     1     -10.103  19.537  66.393  1.00  0.00    -0.648 I  
HETATM    9  C   UNL     1     -10.479  15.306  65.535  1.00  0.00    -0.374 A  
HETATM   10  C   UNL     1      -9.678  17.466  66.337  1.00  0.00    -0.290 A  
HETATM   11  C   UNL     1     -10.573  16.704  65.574  1.00  0.00    -0.273 A  
HETATM   12  I   UNL     1     -12.093  14.333  64.581  1.00  0.00    -0.380 I  
ENDROOT
BRANCH   7  13
HETATM   13  N   UNL     1      -9.347  13.223  66.291  1.00  0.00    -0.441 N  
HETATM   14  O   UNL     1     -10.903  12.879  67.978  1.00  0.00    -0.227 OA 
HETATM   15  C   UNL     1     -10.102  12.444  67.155  1.00  0.00    -0.213 C  
HETATM   16  H   UNL     1      -8.687  12.762  65.666  1.00  0.00     0.000 HD 
BRANCH  15  17
HETATM   17  C   UNL     1      -9.983  10.948  66.899  1.00  0.00    -0.232 C  
BRANCH  17  18
HETATM   18  C   UNL     1      -8.512  10.543  66.838  1.00  0.00    -0.125 C  
BRANCH  18  19
HETATM   19  C   UNL     1      -8.262   9.050  66.596  1.00  0.00    -0.118 C  
BRANCH  19  20
HETATM   20  C   UNL     1      -9.485   8.254  66.131  1.00  0.00    -0.241 C  
BRANCH  20  21
HETATM   21  C   UNL     1     -10.046   7.416  67.275  1.00  0.00    -0.228 C  
HETATM   22  N   UNL     1      -9.144   7.219  68.311  1.00  0.00    -0.135 N  
HETATM   23  O   UNL     1     -11.161   6.909  67.224  1.00  0.00    -0.339 OA 
HETATM   24  H   UNL     1      -8.213   7.627  68.245  1.00  0.00     0.000 HD 
BRANCH  22  25
HETATM   25  C   UNL     1      -9.491   6.457  69.467  1.00  0.00    -0.145 A  
HETATM   26  C   UNL     1      -9.370   5.059  69.507  1.00  0.00    -0.128 A  
HETATM   27  I   UNL     1      -8.984   3.854  67.807  1.00  0.00    -0.218 I  
HETATM   28  C   UNL     1      -9.681   4.351  70.671  1.00  0.00    -0.283 A  
HETATM   29  C   UNL     1     -10.186   5.012  71.799  1.00  0.00    -0.207 A  
HETATM   30  I   UNL     1     -10.698   3.728  73.399  1.00  0.00    -0.299 I  
HETATM   31  C   UNL     1     -10.377   6.405  71.785  1.00  0.00    -0.231 A  
HETATM   32  C   UNL     1     -11.011   7.112  72.936  1.00  0.00    -0.320 C  
HETATM   33  C   UNL     1     -10.020   7.120  70.610  1.00  0.00    -0.190 A  
HETATM   34  O   UNL     1     -11.910   7.922  72.807  1.00  0.00    -0.340 OA 
HETATM   35  I   UNL     1     -10.129   9.277  70.520  1.00  0.00    -0.360 I  
HETATM   36  O   UNL     1     -10.484   6.817  74.145  1.00  0.00    -0.365 OA 
ENDBRANCH  22  25
ENDBRANCH  20  21
ENDBRANCH  19  20
ENDBRANCH  18  19
ENDBRANCH  17  18
ENDBRANCH  15  17
ENDBRANCH   7  13
TORSDOF 7
ENDMDL
MODEL       10
REMARK 921   NORMALIZED FREE ENERGY PREDICTED BY IDOCK:   -6.41 KCAL/MOL
REMARK 922        TOTAL FREE ENERGY PREDICTED BY IDOCK:   -9.96 KCAL/MOL
REMARK 923 INTER-LIGAND FREE ENERGY PREDICTED BY IDOCK:   -8.83 KCAL/MOL
REMARK 924 INTRA-LIGAND FREE ENERGY PREDICTED BY IDOCK:   -1.12 KCAL/MOL
REMARK 927      BINDING AFFINITY PREDICTED BY RF-SCORE:    0.00 PKD
ROOT
HETATM    1  O   UNL     1      -8.904  18.508  68.831  1.00  0.00    -0.270 OA 
HETATM    2  C   UNL     1      -9.868  17.661  68.407  1.00  0.00    -0.334 C  
HETATM    3  C   UNL     1      -9.416  16.257  68.210  1.00  0.00    -0.214 A  
HETATM    4  O   UNL     1     -11.021  18.021  68.254  1.00  0.00    -0.177 OA 
HETATM    5  C   UNL     1     -10.157  15.173  68.753  1.00  0.00    -0.226 A  
HETATM    6  I   UNL     1     -11.860  15.512  70.040  1.00  0.00    -0.396 I  
HETATM    7  C   UNL     1      -9.763  13.821  68.548  1.00  0.00    -0.193 A  
HETATM    8  I   UNL     1      -7.129  17.399  66.397  1.00  0.00    -0.280 I  
HETATM    9  C   UNL     1      -8.617  13.568  67.772  1.00  0.00    -0.183 A  
HETATM   10  C   UNL     1      -8.282  15.960  67.433  1.00  0.00    -0.168 A  
HETATM   11  C   UNL     1      -7.879  14.633  67.236  1.00  0.00    -0.213 A  
HETATM   12  I   UNL     1      -8.021  11.653  67.111  1.00  0.00    -0.149 I  
ENDROOT
BRANCH   7  13
HETATM   13  N   UNL     1     -10.589  12.780  69.067  1.00  0.00    -0.431 N  
HETATM   14  O   UNL     1     -11.926  12.517  67.188  1.00  0.00    -0.484 OA 
HETATM   15  C   UNL     1     -11.605  12.192  68.329  1.00  0.00    -0.325 C  
HETATM   16  H   UNL     1     -10.425  12.454  70.020  1.00  0.00     0.000 HD 
BRANCH  15  17
HETATM   17  C   UNL     1     -12.221  10.968  68.993  1.00  0.00    -0.167 C  
BRANCH  17  18
HETATM   18  C   UNL     1     -12.260  11.157  70.507  1.00  0.00    -0.475 C  
BRANCH  18  19
HETATM   19  C   UNL     1     -13.009  10.063  71.276  1.00  0.00    -0.495 C  
BRANCH  19  20
HETATM   20  C   UNL     1     -12.139   9.207  72.201  1.00  0.00    -0.389 C  
BRANCH  20  21
HETATM   21  C   UNL     1     -11.961   7.806  71.625  1.00  0.00    -0.297 C  
HETATM   22  N   UNL     1     -10.637   7.471  71.379  1.00  0.00    -0.211 N  
HETATM   23  O   UNL     1     -12.918   7.094  71.339  1.00  0.00    -0.381 OA 
HETATM   24  H   UNL     1      -9.905   8.148  71.591  1.00  0.00     0.000 HD 
BRANCH  22  25
HETATM   25  C   UNL     1     -10.276   6.202  70.837  1.00  0.00    -0.201 A  
HETATM   26  C   UNL     1     -10.211   5.042  71.626  1.00  0.00    -0.208 A  
HETATM   27  I   UNL     1     -10.307   5.041  73.743  1.00  0.00    -0.363 I  
HETATM   28  C   UNL     1      -9.893   3.808  71.052  1.00  0.00    -0.204 A  
HETATM   29  C   UNL     1      -9.565   3.714  69.692  1.00  0.00    -0.141 A  
HETATM   30  I   UNL     1      -9.001   1.773  69.070  1.00  0.00    -0.195 I  
HETATM   31  C   UNL     1      -9.562   4.859  68.877  1.00  0.00    -0.224 A  
HETATM   32  C   UNL     1      -9.114   4.795  67.455  1.00  0.00    -0.117 C  
HETATM   33  C   UNL     1      -9.926   6.101  69.462  1.00  0.00    -0.166 A  
HETATM   34  O   UNL     1      -8.324   5.585  66.969  1.00  0.00    -0.108 OA 
HETATM   35  I   UNL     1     -10.101   7.901  68.279  1.00  0.00    -0.237 I  
HETATM   36  O   UNL     1      -9.682   3.814  66.722  1.00  0.00    -0.208 OA 
ENDBRANCH  22  25
ENDBRANCH  20  21
ENDBRANCH  19  20
ENDBRANCH  18  19
ENDBRANCH  17  18
ENDBRANCH  15  17
ENDBRANCH   7  13
TORSDOF 7
ENDMDL
MODEL       11
REMARK 921   NORMALIZED FREE ENERGY PREDICTED BY IDOCK:   -6.31 KCAL/MOL
REMARK 922        TOTAL FREE ENERGY PREDICTED BY IDOCK:   -9.81 KCAL/MOL
REMARK 923 INTER-LIGAND FREE ENERGY PREDICTED BY IDOCK:   -8.99 KCAL/MOL
REMARK 924 INTRA-LIGAND FREE ENERGY PREDICTED BY IDOCK:   -0.82 KCAL/MOL
REMARK 927      BINDING AFFINITY PREDICTED BY RF-SCORE:    0.00 PKD
ROOT
HETATM    1  O   UNL     1     -11.025  18.813  67.195  1.00  0.00    -0.380 OA 
HETATM    2  C   UNL     1     -10.549  18.039  66.195  1.00  0.00    -0.261 C  
HETATM    3  C   UNL     1      -9.713  16.893  66.643  1.00  0.00    -0.283 A  
HETATM    4  O   UNL     1     -10.835  18.244  65.029  1.00  0.00    -0.679 OA 
HETATM    5  C   UNL     1      -9.948  15.584  66.142  1.00  0.00    -0.309 A  
HETATM    6  I   UNL     1     -11.635  15.159  64.861  1.00  0.00    -0.112 I  
HETATM    7  C   UNL     1      -9.137  14.479  66.530  1.00  0.00    -0.219 A  
HETATM    8  I   UNL     1      -8.000  18.961  68.259  1.00  0.00    -0.372 I  
HETATM    9  C   UNL     1      -8.072  14.710  67.419  1.00  0.00    -0.196 A  
HETATM   10  C   UNL     1      -8.632  17.082  67.522  1.00  0.00    -0.205 A  
HETATM   11  C   UNL     1      -7.837  15.999  67.919  1.00  0.00    -0.148 A  
HETATM   12  I   UNL     1      -6.588  13.287  67.899  1.00  0.00    -0.175 I  
ENDROOT
BRANCH   7  13
HETATM   13  N   UNL     1      -9.388  13.205  65.940  1.00  0.00    -0.467 N  
HETATM   14  O   UNL     1     -10.410  12.235  67.784  1.00  0.00    -0.201 OA 
HETATM   15  C   UNL     1     -10.029  12.179  66.618  1.00  0.00    -0.206 C  
HETATM   16  H   UNL     1      -9.085  13.042  64.979  1.00  0.00     0.000 HD 
BRANCH  15  17
HETATM   17  C   UNL     1     -10.381  10.985  65.740  1.00  0.00    -0.316 C  
BRANCH  17  18
HETATM   18  C   UNL     1      -9.185  10.041  65.635  1.00  0.00    -0.234 C  
BRANCH  18  19
HETATM   19  C   UNL     1      -9.422   8.634  66.193  1.00  0.00    -0.308 C  
BRANCH  19  20
HETATM   20  C   UNL     1     -10.625   8.500  67.131  1.00  0.00    -0.314 C  
BRANCH  20  21
HETATM   21  C   UNL     1     -10.213   7.832  68.439  1.00  0.00    -0.200 C  
HETATM   22  N   UNL     1     -11.062   6.805  68.829  1.00  0.00    -0.491 N  
HETATM   23  O   UNL     1      -9.266   8.235  69.105  1.00  0.00    -0.150 OA 
HETATM   24  H   UNL     1     -11.865   6.575  68.244  1.00  0.00     0.000 HD 
BRANCH  22  25
HETATM   25  C   UNL     1     -10.837   6.066  70.028  1.00  0.00    -0.359 A  
HETATM   26  C   UNL     1     -11.392   6.449  71.259  1.00  0.00    -0.306 A  
HETATM   27  I   UNL     1     -12.349   8.308  71.601  1.00  0.00    -0.394 I  
HETATM   28  C   UNL     1     -11.183   5.676  72.405  1.00  0.00    -0.336 A  
HETATM   29  C   UNL     1     -10.359   4.543  72.365  1.00  0.00    -0.191 A  
HETATM   30  I   UNL     1     -10.090   3.601  74.238  1.00  0.00    -0.262 I  
HETATM   31  C   UNL     1      -9.736   4.155  71.165  1.00  0.00    -0.258 A  
HETATM   32  C   UNL     1      -8.773   3.015  71.127  1.00  0.00    -0.071 C  
HETATM   33  C   UNL     1      -9.988   4.925  69.998  1.00  0.00    -0.253 A  
HETATM   34  O   UNL     1      -7.685   3.081  70.584  1.00  0.00    -0.043 OA 
HETATM   35  I   UNL     1      -9.208   4.342  68.068  1.00  0.00    -0.213 I  
HETATM   36  O   UNL     1      -9.214   1.878  71.707  1.00  0.00    -0.078 OA 
ENDBRANCH  22  25
ENDBRANCH  20  21
ENDBRANCH  19  20
ENDBRANCH  18  19
ENDBRANCH  17  18
ENDBRANCH  15  17
ENDBRANCH   7  13
TORSDOF 7
ENDMDL
MODEL       12
REMARK 921   NORMALIZED FREE ENERGY PREDICTED BY IDOCK:   -6.30 KCAL/MOL
REMARK 922        TOTAL FREE ENERGY PREDICTED BY IDOCK:   -9.80 KCAL/MOL
REMARK 923 INTER-LIGAND FREE ENERGY PREDICTED BY IDOCK:   -8.88 KCAL/MOL
REMARK 924 INTRA-LIGAND FREE ENERGY PREDICTED BY IDOCK:   -0.92 KCAL/MOL
REMARK 927      BINDING AFFINITY PREDICTED BY RF-SCORE:    0.00 PKD
ROOT
HETATM    1  O   UNL     1      -8.973  18.699  68.579  1.00  0.00    -0.323 OA 
HETATM    2  C   UNL     1      -9.814  17.751  68.109  1.00  0.00    -0.326 C  
HETATM    3  C   UNL     1      -9.230  16.385  68.037  1.00  0.00    -0.204 A  
HETATM    4  O   UNL     1     -10.972  18.002  67.823  1.00  0.00    -0.317 OA 
HETATM    5  C   UNL     1      -9.932  15.267  68.562  1.00  0.00    -0.222 A  
HETATM    6  I   UNL     1     -11.781  15.515  69.653  1.00  0.00    -0.371 I  
HETATM    7  C   UNL     1      -9.408  13.946  68.472  1.00  0.00    -0.164 A  
HETATM    8  I   UNL     1      -6.870  17.638  66.400  1.00  0.00    -0.329 I  
HETATM    9  C   UNL     1      -8.171  13.759  67.829  1.00  0.00    -0.174 A  
HETATM   10  C   UNL     1      -8.002  16.153  67.394  1.00  0.00    -0.160 A  
HETATM   11  C   UNL     1      -7.472  14.859  67.311  1.00  0.00    -0.193 A  
HETATM   12  I   UNL     1      -7.353  11.875  67.338  1.00  0.00    -0.144 I  
ENDROOT
BRANCH   7  13
HETATM   13  N   UNL     1     -10.195  12.862  68.964  1.00  0.00    -0.434 N  
HETATM   14  O   UNL     1     -11.305  12.397  66.979  1.00  0.00    -0.287 OA 
HETATM   15  C   UNL     1     -11.078  12.155  68.162  1.00  0.00    -0.248 C  
HETATM   16  H   UNL     1     -10.104  12.596  69.944  1.00  0.00     0.000 HD 
BRANCH  15  17
HETATM   17  C   UNL     1     -11.656  10.913  68.827  1.00  0.00    -0.378 C  
BRANCH  17  18
HETATM   18  C   UNL     1     -12.146  11.252  70.233  1.00  0.00    -0.459 C  
BRANCH  18  19
HETATM   19  C   UNL     1     -12.757  10.078  71.005  1.00  0.00    -0.455 C  
BRANCH  19  20
HETATM   20  C   UNL     1     -11.759   9.242  71.813  1.00  0.00    -0.456 C  
BRANCH  20  21
HETATM   21  C   UNL     1     -11.665   7.828  71.249  1.00  0.00    -0.288 C  
HETATM   22  N   UNL     1     -10.363   7.359  71.142  1.00  0.00    -0.202 N  
HETATM   23  O   UNL     1     -12.653   7.216  70.859  1.00  0.00    -0.329 OA 
HETATM   24  H   UNL     1      -9.593   7.959  71.434  1.00  0.00     0.000 HD 
BRANCH  22  25
HETATM   25  C   UNL     1     -10.078   6.057  70.632  1.00  0.00    -0.194 A  
HETATM   26  C   UNL     1      -9.865   5.818  69.265  1.00  0.00    -0.170 A  
HETATM   27  I   UNL     1     -10.245   7.239  67.740  1.00  0.00    -0.310 I  
HETATM   28  C   UNL     1      -9.548   4.536  68.808  1.00  0.00    -0.227 A  
HETATM   29  C   UNL     1      -9.506   3.449  69.694  1.00  0.00    -0.153 A  
HETATM   30  I   UNL     1      -9.126   1.589  68.764  1.00  0.00    -0.215 I  
HETATM   31  C   UNL     1      -9.769   3.633  71.062  1.00  0.00    -0.243 A  
HETATM   32  C   UNL     1      -9.832   2.474  72.000  1.00  0.00    -0.156 C  
HETATM   33  C   UNL     1     -10.051   4.947  71.522  1.00  0.00    -0.197 A  
HETATM   34  O   UNL     1     -10.736   2.312  72.800  1.00  0.00    -0.152 OA 
HETATM   35  I   UNL     1     -10.325   5.377  73.622  1.00  0.00    -0.340 I  
HETATM   36  O   UNL     1      -8.783   1.626  71.930  1.00  0.00    -0.057 OA 
ENDBRANCH  22  25
ENDBRANCH  20  21
ENDBRANCH  19  20
ENDBRANCH  18  19
ENDBRANCH  17  18
ENDBRANCH  15  17
ENDBRANCH   7  13
TORSDOF 7
ENDMDL
MODEL       13
REMARK 921   NORMALIZED FREE ENERGY PREDICTED BY IDOCK:   -6.27 KCAL/MOL
REMARK 922        TOTAL FREE ENERGY PREDICTED BY IDOCK:   -9.76 KCAL/MOL
REMARK 923 INTER-LIGAND FREE ENERGY PREDICTED BY IDOCK:   -8.65 KCAL/MOL
REMARK 924 INTRA-LIGAND FREE ENERGY PREDICTED BY IDOCK:   -1.11 KCAL/MOL
REMARK 927      BINDING AFFINITY PREDICTED BY RF-SCORE:    0.00 PKD
ROOT
HETATM    1  O   UNL     1     -10.904  19.164  66.744  1.00  0.00    -0.419 OA 
HETATM    2  C   UNL     1     -10.443  18.220  65.894  1.00  0.00    -0.307 C  
HETATM    3  C   UNL     1      -9.333  17.390  66.433  1.00  0.00    -0.272 A  
HETATM    4  O   UNL     1     -10.943  18.040  64.797  1.00  0.00    -0.706 OA 
HETATM    5  C   UNL     1      -9.372  15.973  66.335  1.00  0.00    -0.298 A  
HETATM    6  I   UNL     1     -11.117  14.949  65.576  1.00  0.00    -0.354 I  
HETATM    7  C   UNL     1      -8.304  15.161  66.812  1.00  0.00    -0.189 A  
HETATM    8  I   UNL     1      -7.844  20.068  67.093  1.00  0.00    -0.375 I  
HETATM    9  C   UNL     1      -7.182  15.795  67.377  1.00  0.00    -0.202 A  
HETATM   10  C   UNL     1      -8.189  17.983  66.996  1.00  0.00    -0.227 A  
HETATM   11  C   UNL     1      -7.139  17.192  67.479  1.00  0.00    -0.175 A  
HETATM   12  I   UNL     1      -5.384  14.810  67.883  1.00  0.00     0.097 I  
ENDROOT
BRANCH   7  13
HETATM   13  N   UNL     1      -8.381  13.749  66.624  1.00  0.00    -0.397 N  
HETATM   14  O   UNL     1      -8.924  13.201  68.813  1.00  0.00    -0.011 OA 
HETATM   15  C   UNL     1      -8.706  12.874  67.649  1.00  0.00    -0.185 C  
HETATM   16  H   UNL     1      -8.188  13.367  65.698  1.00  0.00     0.000 HD 
BRANCH  15  17
HETATM   17  C   UNL     1      -8.937  11.441  67.187  1.00  0.00    -0.162 C  
BRANCH  17  18
HETATM   18  C   UNL     1     -10.375  11.272  66.703  1.00  0.00    -0.279 C  
BRANCH  18  19
HETATM   19  C   UNL     1     -11.244  10.353  67.567  1.00  0.00    -0.254 C  
BRANCH  19  20
HETATM   20  C   UNL     1     -11.648  10.931  68.928  1.00  0.00    -0.378 C  
BRANCH  20  21
HETATM   21  C   UNL     1     -11.346   9.936  70.043  1.00  0.00    -0.249 C  
HETATM   22  N   UNL     1     -11.411   8.611  69.638  1.00  0.00    -0.434 N  
HETATM   23  O   UNL     1     -11.147  10.296  71.199  1.00  0.00    -0.223 OA 
HETATM   24  H   UNL     1     -11.643   8.398  68.668  1.00  0.00     0.000 HD 
BRANCH  22  25
HETATM   25  C   UNL     1     -11.160   7.539  70.545  1.00  0.00    -0.259 A  
HETATM   26  C   UNL     1     -12.160   7.016  71.380  1.00  0.00    -0.355 A  
HETATM   27  I   UNL     1     -14.057   7.915  71.666  1.00  0.00    -0.439 I  
HETATM   28  C   UNL     1     -11.887   5.938  72.228  1.00  0.00    -0.266 A  
HETATM   29  C   UNL     1     -10.594   5.403  72.313  1.00  0.00    -0.225 A  
HETATM   30  I   UNL     1     -10.388   3.862  73.746  1.00  0.00    -0.329 I  
HETATM   31  C   UNL     1      -9.549   5.934  71.537  1.00  0.00    -0.175 A  
HETATM   32  C   UNL     1      -8.146   5.448  71.692  1.00  0.00    -0.117 C  
HETATM   33  C   UNL     1      -9.847   7.003  70.650  1.00  0.00    -0.182 A  
HETATM   34  O   UNL     1      -7.191   6.195  71.809  1.00  0.00    -0.083 OA 
HETATM   35  I   UNL     1      -8.359   7.801  69.300  1.00  0.00    -0.139 I  
HETATM   36  O   UNL     1      -8.001   4.106  71.651  1.00  0.00    -0.077 OA 
ENDBRANCH  22  25
ENDBRANCH  20  21
ENDBRANCH  19  20
ENDBRANCH  18  19
ENDBRANCH  17  18
ENDBRANCH  15  17
ENDBRANCH   7  13
TORSDOF 7
ENDMDL
MODEL       14
REMARK 921   NORMALIZED FREE ENERGY PREDICTED BY IDOCK:   -6.21 KCAL/MOL
REMARK 922        TOTAL FREE ENERGY PREDICTED BY IDOCK:   -9.67 KCAL/MOL
REMARK 923 INTER-LIGAND FREE ENERGY PREDICTED BY IDOCK:   -8.88 KCAL/MOL
REMARK 924 INTRA-LIGAND FREE ENERGY PREDICTED BY IDOCK:   -0.78 KCAL/MOL
REMARK 927      BINDING AFFINITY PREDICTED BY RF-SCORE:    0.00 PKD
ROOT
HETATM    1  O   UNL     1     -11.092   5.005  74.390  1.00  0.00    -0.175 OA 
HETATM    2  C   UNL     1     -10.484   5.897  73.577  1.00  0.00    -0.258 C  
HETATM    3  C   UNL     1     -10.296   5.431  72.177  1.00  0.00    -0.265 A  
HETATM    4  O   UNL     1     -10.169   7.009  73.961  1.00  0.00    -0.349 OA 
HETATM    5  C   UNL     1     -10.667   6.257  71.082  1.00  0.00    -0.249 A  
HETATM    6  I   UNL     1     -11.686   8.137  71.389  1.00  0.00    -0.374 I  
HETATM    7  C   UNL     1     -10.463   5.846  69.734  1.00  0.00    -0.272 A  
HETATM    8  I   UNL     1      -8.918   2.879  73.363  1.00  0.00    -0.104 I  
HETATM    9  C   UNL     1      -9.865   4.594  69.498  1.00  0.00    -0.216 A  
HETATM   10  C   UNL     1      -9.693   4.192  71.898  1.00  0.00    -0.168 A  
HETATM   11  C   UNL     1      -9.500   3.774  70.575  1.00  0.00    -0.254 A  
HETATM   12  I   UNL     1      -9.219   3.918  67.605  1.00  0.00    -0.221 I  
ENDROOT
BRANCH   7  13
HETATM   13  N   UNL     1     -10.799   6.752  68.683  1.00  0.00    -0.353 N  
HETATM   14  O   UNL     1      -8.703   7.724  68.469  1.00  0.00    -0.128 OA 
HETATM   15  C   UNL     1      -9.874   7.616  68.117  1.00  0.00    -0.164 C  
HETATM   16  H   UNL     1     -11.757   6.764  68.335  1.00  0.00     0.000 HD 
BRANCH  15  17
HETATM   17  C   UNL     1     -10.386   8.341  66.879  1.00  0.00    -0.391 C  
BRANCH  17  18
HETATM   18  C   UNL     1     -10.682   9.801  67.212  1.00  0.00    -0.296 C  
BRANCH  18  19
HETATM   19  C   UNL     1      -9.969  10.825  66.323  1.00  0.00    -0.272 C  
BRANCH  19  20
HETATM   20  C   UNL     1      -8.837  11.601  67.003  1.00  0.00    -0.177 C  
BRANCH  20  21
HETATM   21  C   UNL     1      -9.260  13.042  67.270  1.00  0.00    -0.213 C  
HETATM   22  N   UNL     1      -8.588  13.971  66.488  1.00  0.00    -0.425 N  
HETATM   23  O   UNL     1     -10.061  13.332  68.152  1.00  0.00    -0.228 OA 
HETATM   24  H   UNL     1      -7.891  13.647  65.819  1.00  0.00     0.000 HD 
BRANCH  22  25
HETATM   25  C   UNL     1      -8.850  15.369  66.600  1.00  0.00    -0.295 A  
HETATM   26  C   UNL     1     -10.007  15.959  66.066  1.00  0.00    -0.334 A  
HETATM   27  I   UNL     1     -11.350  14.967  64.762  1.00  0.00    -0.265 I  
HETATM   28  C   UNL     1     -10.249  17.326  66.231  1.00  0.00    -0.347 A  
HETATM   29  C   UNL     1      -9.310  18.148  66.869  1.00  0.00    -0.278 A  
HETATM   30  I   UNL     1      -9.831  20.197  66.896  1.00  0.00    -0.501 I  
HETATM   31  C   UNL     1      -8.111  17.610  67.368  1.00  0.00    -0.217 A  
HETATM   32  C   UNL     1      -7.055  18.485  67.956  1.00  0.00    -0.236 C  
HETATM   33  C   UNL     1      -7.894  16.212  67.231  1.00  0.00    -0.177 A  
HETATM   34  O   UNL     1      -5.878  18.405  67.653  1.00  0.00    -0.156 OA 
HETATM   35  I   UNL     1      -6.161  15.247  68.089  1.00  0.00    -0.174 I  
HETATM   36  O   UNL     1      -7.493  19.358  68.889  1.00  0.00    -0.348 OA 
ENDBRANCH  22  25
ENDBRANCH  20  21
ENDBRANCH  19  20
ENDBRANCH  18  19
ENDBRANCH  17  18
ENDBRANCH  15  17
ENDBRANCH   7  13
TORSDOF 7
ENDMDL
MODEL       15
REMARK 921   NORMALIZED FREE ENERGY PREDICTED BY IDOCK:   -6.20 KCAL/MOL
REMARK 922        TOTAL FREE ENERGY PREDICTED BY IDOCK:   -9.66 KCAL/MOL
REMARK 923 INTER-LIGAND FREE ENERGY PREDICTED BY IDOCK:   -8.73 KCAL/MOL
REMARK 924 INTRA-LIGAND FREE ENERGY PREDICTED BY IDOCK:   -0.92 KCAL/MOL
REMARK 927      BINDING AFFINITY PREDICTED BY RF-SCORE:    0.00 PKD
ROOT
HETATM    1  O   UNL     1     -12.847   6.766  71.774  1.00  0.00    -0.358 OA 
HETATM    2  C   UNL     1     -12.049   7.853  71.862  1.00  0.00    -0.312 C  
HETATM    3  C   UNL     1     -10.982   7.924  70.828  1.00  0.00    -0.259 A  
HETATM    4  O   UNL     1     -12.235   8.722  72.695  1.00  0.00    -0.333 OA 
HETATM    5  C   UNL     1     -10.768   9.118  70.087  1.00  0.00    -0.233 A  
HETATM    6  I   UNL     1     -12.091  10.815  70.288  1.00  0.00    -0.448 I  
HETATM    7  C   UNL     1      -9.730   9.219  69.118  1.00  0.00    -0.164 A  
HETATM    8  I   UNL     1     -10.147   5.031  71.696  1.00  0.00    -0.225 I  
HETATM    9  C   UNL     1      -8.894   8.107  68.913  1.00  0.00    -0.141 A  
HETATM   10  C   UNL     1     -10.118   6.839  70.599  1.00  0.00    -0.187 A  
HETATM   11  C   UNL     1      -9.102   6.925  69.639  1.00  0.00    -0.143 A  
HETATM   12  I   UNL     1      -7.136   8.134  67.744  1.00  0.00    -0.090 I  
ENDROOT
BRANCH   7  13
HETATM   13  N   UNL     1      -9.530  10.468  68.457  1.00  0.00    -0.157 N  
HETATM   14  O   UNL     1     -10.499   9.874  66.434  1.00  0.00    -0.205 OA 
HETATM   15  C   UNL     1      -9.953  10.703  67.158  1.00  0.00    -0.195 C  
HETATM   16  H   UNL     1      -9.058  11.219  68.961  1.00  0.00     0.000 HD 
BRANCH  15  17
HETATM   17  C   UNL     1      -9.830  12.157  66.722  1.00  0.00    -0.218 C  
BRANCH  17  18
HETATM   18  C   UNL     1     -10.997  12.531  65.810  1.00  0.00    -0.327 C  
BRANCH  18  19
HETATM   19  C   UNL     1     -10.904  13.924  65.181  1.00  0.00    -0.364 C  
BRANCH  19  20
HETATM   20  C   UNL     1     -11.240  15.086  66.121  1.00  0.00    -0.307 C  
BRANCH  20  21
HETATM   21  C   UNL     1     -10.001  15.934  66.390  1.00  0.00    -0.287 C  
HETATM   22  N   UNL     1     -10.060  16.641  67.583  1.00  0.00    -0.265 N  
HETATM   23  O   UNL     1      -9.090  16.029  65.575  1.00  0.00    -0.320 OA 
HETATM   24  H   UNL     1     -10.886  16.550  68.174  1.00  0.00     0.000 HD 
BRANCH  22  25
HETATM   25  C   UNL     1      -8.993  17.490  68.001  1.00  0.00    -0.258 A  
HETATM   26  C   UNL     1      -8.935  18.848  67.649  1.00  0.00    -0.287 A  
HETATM   27  I   UNL     1     -10.200  19.755  66.212  1.00  0.00    -0.547 I  
HETATM   28  C   UNL     1      -7.894  19.659  68.111  1.00  0.00    -0.346 A  
HETATM   29  C   UNL     1      -6.851  19.119  68.876  1.00  0.00    -0.322 A  
HETATM   30  I   UNL     1      -5.328  20.503  69.361  1.00  0.00    -0.409 I  
HETATM   31  C   UNL     1      -6.839  17.752  69.204  1.00  0.00    -0.227 A  
HETATM   32  C   UNL     1      -5.686  17.140  69.927  1.00  0.00    -0.227 C  
HETATM   33  C   UNL     1      -7.922  16.946  68.763  1.00  0.00    -0.254 A  
HETATM   34  O   UNL     1      -5.149  16.106  69.571  1.00  0.00    -0.110 OA 
HETATM   35  I   UNL     1      -8.089  14.867  69.330  1.00  0.00     0.055 I  
HETATM   36  O   UNL     1      -5.298  17.797  71.041  1.00  0.00    -0.263 OA 
ENDBRANCH  22  25
ENDBRANCH  20  21
ENDBRANCH  19  20
ENDBRANCH  18  19
ENDBRANCH  17  18
ENDBRANCH  15  17
ENDBRANCH   7  13
TORSDOF 7
ENDMDL
MODEL       16
REMARK 921   NORMALIZED FREE ENERGY PREDICTED BY IDOCK:   -6.18 KCAL/MOL
REMARK 922        TOTAL FREE ENERGY PREDICTED BY IDOCK:   -9.62 KCAL/MOL
REMARK 923 INTER-LIGAND FREE ENERGY PREDICTED BY IDOCK:   -8.64 KCAL/MOL
REMARK 924 INTRA-LIGAND FREE ENERGY PREDICTED BY IDOCK:   -0.98 KCAL/MOL
REMARK 927      BINDING AFFINITY PREDICTED BY RF-SCORE:    0.00 PKD
ROOT
HETATM    1  O   UNL     1      -8.257  17.098  65.838  1.00  0.00    -0.526 OA 
HETATM    2  C   UNL     1      -7.995  16.221  66.833  1.00  0.00    -0.243 C  
HETATM    3  C   UNL     1      -9.157  15.917  67.712  1.00  0.00    -0.196 A  
HETATM    4  O   UNL     1      -6.906  15.691  66.954  1.00  0.00    -0.245 OA 
HETATM    5  C   UNL     1      -9.496  14.573  68.027  1.00  0.00    -0.209 A  
HETATM    6  I   UNL     1      -8.469  12.911  67.103  1.00  0.00    -0.044 I  
HETATM    7  C   UNL     1     -10.581  14.261  68.894  1.00  0.00    -0.245 A  
HETATM    8  I   UNL     1      -9.484  19.008  68.107  1.00  0.00    -0.473 I  
HETATM    9  C   UNL     1     -11.315  15.320  69.457  1.00  0.00    -0.288 A  
HETATM   10  C   UNL     1      -9.910  16.946  68.303  1.00  0.00    -0.266 A  
HETATM   11  C   UNL     1     -10.987  16.648  69.147  1.00  0.00    -0.276 A  
HETATM   12  I   UNL     1     -12.766  15.093  70.974  1.00  0.00    -0.565 I  
ENDROOT
BRANCH   7  13
HETATM   13  N   UNL     1     -10.826  12.893  69.218  1.00  0.00    -0.440 N  
HETATM   14  O   UNL     1     -12.239  12.428  67.437  1.00  0.00    -0.459 OA 
HETATM   15  C   UNL     1     -11.631  12.072  68.444  1.00  0.00    -0.311 C  
HETATM   16  H   UNL     1     -10.390  12.503  70.054  1.00  0.00     0.000 HD 
BRANCH  15  17
HETATM   17  C   UNL     1     -11.589  10.605  68.849  1.00  0.00    -0.320 C  
BRANCH  17  18
HETATM   18  C   UNL     1     -11.772  10.474  70.359  1.00  0.00    -0.434 C  
BRANCH  18  19
HETATM   19  C   UNL     1     -11.222   9.179  70.967  1.00  0.00    -0.380 C  
BRANCH  19  20
HETATM   20  C   UNL     1      -9.697   9.118  71.095  1.00  0.00    -0.360 C  
BRANCH  20  21
HETATM   21  C   UNL     1      -9.146   7.897  70.364  1.00  0.00    -0.154 C  
HETATM   22  N   UNL     1     -10.113   7.184  69.669  1.00  0.00    -0.188 N  
HETATM   23  O   UNL     1      -7.973   7.554  70.464  1.00  0.00    -0.095 OA 
HETATM   24  H   UNL     1     -11.080   7.507  69.689  1.00  0.00     0.000 HD 
BRANCH  22  25
HETATM   25  C   UNL     1      -9.785   6.010  68.928  1.00  0.00    -0.132 A  
HETATM   26  C   UNL     1      -9.773   4.734  69.513  1.00  0.00    -0.201 A  
HETATM   27  I   UNL     1      -9.907   4.384  71.598  1.00  0.00    -0.203 I  
HETATM   28  C   UNL     1      -9.486   3.602  68.744  1.00  0.00    -0.214 A  
HETATM   29  C   UNL     1      -9.137   3.723  67.392  1.00  0.00    -0.163 A  
HETATM   30  I   UNL     1      -8.629   1.894  66.462  1.00  0.00    -0.117 I  
HETATM   31  C   UNL     1      -9.081   4.987  66.779  1.00  0.00    -0.118 A  
HETATM   32  C   UNL     1      -8.610   5.145  65.372  1.00  0.00    -0.146 C  
HETATM   33  C   UNL     1      -9.413   6.127  67.560  1.00  0.00    -0.112 A  
HETATM   34  O   UNL     1      -7.786   5.976  65.034  1.00  0.00    -0.085 OA 
HETATM   35  I   UNL     1      -9.507   8.104  66.691  1.00  0.00    -0.288 I  
HETATM   36  O   UNL     1      -9.198   4.320  64.479  1.00  0.00    -0.147 OA 
ENDBRANCH  22  25
ENDBRANCH  20  21
ENDBRANCH  19  20
ENDBRANCH  18  19
ENDBRANCH  17  18
ENDBRANCH  15  17
ENDBRANCH   7  13
TORSDOF 7
ENDMDL
MODEL       17
REMARK 921   NORMALIZED FREE ENERGY PREDICTED BY IDOCK:   -6.17 KCAL/MOL
REMARK 922        TOTAL FREE ENERGY PREDICTED BY IDOCK:   -9.61 KCAL/MOL
REMARK 923 INTER-LIGAND FREE ENERGY PREDICTED BY IDOCK:   -8.38 KCAL/MOL
REMARK 924 INTRA-LIGAND FREE ENERGY PREDICTED BY IDOCK:   -1.23 KCAL/MOL
REMARK 927      BINDING AFFINITY PREDICTED BY RF-SCORE:    0.00 PKD
ROOT
HETATM    1  O   UNL     1     -13.469   8.056  71.760  1.00  0.00    -0.337 OA 
HETATM    2  C   UNL     1     -12.484   8.971  71.632  1.00  0.00    -0.351 C  
HETATM    3  C   UNL     1     -11.357   8.550  70.757  1.00  0.00    -0.296 A  
HETATM    4  O   UNL     1     -12.553  10.070  72.153  1.00  0.00    -0.337 OA 
HETATM    5  C   UNL     1     -10.867   9.411  69.738  1.00  0.00    -0.232 A  
HETATM    6  I   UNL     1     -11.847  11.283  69.285  1.00  0.00    -0.354 I  
HETATM    7  C   UNL     1      -9.767   9.042  68.914  1.00  0.00    -0.163 A  
HETATM    8  I   UNL     1     -11.157   5.958  72.508  1.00  0.00    -0.330 I  
HETATM    9  C   UNL     1      -9.150   7.798  69.137  1.00  0.00    -0.145 A  
HETATM   10  C   UNL     1     -10.706   7.319  70.953  1.00  0.00    -0.234 A  
HETATM   11  C   UNL     1      -9.630   6.943  70.138  1.00  0.00    -0.162 A  
HETATM   12  I   UNL     1      -7.346   7.180  68.230  1.00  0.00    -0.106 I  
ENDROOT
BRANCH   7  13
HETATM   13  N   UNL     1      -9.286   9.982  67.953  1.00  0.00    -0.137 N  
HETATM   14  O   UNL     1     -10.259   9.002  66.088  1.00  0.00    -0.267 OA 
HETATM   15  C   UNL     1      -9.590   9.894  66.603  1.00  0.00    -0.184 C  
HETATM   16  H   UNL     1      -8.695  10.749  68.273  1.00  0.00     0.000 HD 
BRANCH  15  17
HETATM   17  C   UNL     1      -9.153  11.107  65.792  1.00  0.00    -0.222 C  
BRANCH  17  18
HETATM   18  C   UNL     1     -10.352  11.707  65.061  1.00  0.00    -0.329 C  
BRANCH  18  19
HETATM   19  C   UNL     1     -10.392  13.239  65.037  1.00  0.00    -0.355 C  
BRANCH  19  20
HETATM   20  C   UNL     1     -11.296  13.882  66.094  1.00  0.00    -0.323 C  
BRANCH  20  21
HETATM   21  C   UNL     1     -10.462  14.642  67.121  1.00  0.00    -0.268 C  
HETATM   22  N   UNL     1      -9.241  15.081  66.628  1.00  0.00    -0.258 N  
HETATM   23  O   UNL     1     -10.823  14.768  68.286  1.00  0.00    -0.239 OA 
HETATM   24  H   UNL     1      -8.994  14.880  65.660  1.00  0.00     0.000 HD 
BRANCH  22  25
HETATM   25  C   UNL     1      -8.325  15.808  67.445  1.00  0.00    -0.168 A  
HETATM   26  C   UNL     1      -7.283  15.179  68.144  1.00  0.00    -0.115 A  
HETATM   27  I   UNL     1      -7.103  13.080  68.366  1.00  0.00    -0.130 I  
HETATM   28  C   UNL     1      -6.380  15.930  68.903  1.00  0.00    -0.122 A  
HETATM   29  C   UNL     1      -6.537  17.316  69.038  1.00  0.00    -0.230 A  
HETATM   30  I   UNL     1      -5.128  18.225  70.327  1.00  0.00    -0.273 I  
HETATM   31  C   UNL     1      -7.600  17.980  68.401  1.00  0.00    -0.288 A  
HETATM   32  C   UNL     1      -7.843  19.437  68.618  1.00  0.00    -0.364 C  
HETATM   33  C   UNL     1      -8.488  17.213  67.601  1.00  0.00    -0.200 A  
HETATM   34  O   UNL     1      -8.939  19.897  68.882  1.00  0.00    -0.184 OA 
HETATM   35  I   UNL     1     -10.068  18.143  66.456  1.00  0.00    -0.376 I  
HETATM   36  O   UNL     1      -6.758  20.225  68.460  1.00  0.00    -0.298 OA 
ENDBRANCH  22  25
ENDBRANCH  20  21
ENDBRANCH  19  20
ENDBRANCH  18  19
ENDBRANCH  17  18
ENDBRANCH  15  17
ENDBRANCH   7  13
TORSDOF 7
ENDMDL
MODEL       18
REMARK 921   NORMALIZED FREE ENERGY PREDICTED BY IDOCK:   -6.16 KCAL/MOL
REMARK 922        TOTAL FREE ENERGY PREDICTED BY IDOCK:   -9.60 KCAL/MOL
REMARK 923 INTER-LIGAND FREE ENERGY PREDICTED BY IDOCK:   -9.02 KCAL/MOL
REMARK 924 INTRA-LIGAND FREE ENERGY PREDICTED BY IDOCK:   -0.58 KCAL/MOL
REMARK 927      BINDING AFFINITY PREDICTED BY RF-SCORE:    0.00 PKD
ROOT
HETATM    1  O   UNL     1     -10.631  18.367  65.618  1.00  0.00    -0.622 OA 
HETATM    2  C   UNL     1     -10.151  17.149  65.956  1.00  0.00    -0.288 C  
HETATM    3  C   UNL     1     -10.652  16.626  67.256  1.00  0.00    -0.281 A  
HETATM    4  O   UNL     1      -9.412  16.521  65.220  1.00  0.00    -0.296 OA 
HETATM    5  C   UNL     1     -11.159  15.302  67.358  1.00  0.00    -0.326 A  
HETATM    6  I   UNL     1     -11.405  14.057  65.609  1.00  0.00    -0.360 I  
HETATM    7  C   UNL     1     -11.610  14.769  68.598  1.00  0.00    -0.319 A  
HETATM    8  I   UNL     1      -9.713  19.325  68.541  1.00  0.00    -0.534 I  
HETATM    9  C   UNL     1     -11.529  15.580  69.745  1.00  0.00    -0.331 A  
HETATM   10  C   UNL     1     -10.580  17.400  68.427  1.00  0.00    -0.355 A  
HETATM   11  C   UNL     1     -11.032  16.887  69.650  1.00  0.00    -0.007 A  
HETATM   12  I   UNL     1     -11.873  14.900  71.714  1.00  0.00    -0.222 I  
ENDROOT
BRANCH   7  13
HETATM   13  N   UNL     1     -12.048  13.411  68.642  1.00  0.00    -0.314 N  
HETATM   14  O   UNL     1      -9.946  12.443  68.820  1.00  0.00    -0.152 OA 
HETATM   15  C   UNL     1     -11.170  12.346  68.769  1.00  0.00    -0.273 C  
HETATM   16  H   UNL     1     -13.047  13.217  68.577  1.00  0.00     0.000 HD 
BRANCH  15  17
HETATM   17  C   UNL     1     -11.855  11.006  69.005  1.00  0.00    -0.399 C  
BRANCH  17  18
HETATM   18  C   UNL     1     -10.847   9.869  68.855  1.00  0.00    -0.239 C  
BRANCH  18  19
HETATM   19  C   UNL     1     -10.362   9.619  67.423  1.00  0.00    -0.306 C  
BRANCH  19  20
HETATM   20  C   UNL     1     -10.522   8.179  66.925  1.00  0.00    -0.379 C  
BRANCH  20  21
HETATM   21  C   UNL     1      -9.834   7.204  67.874  1.00  0.00    -0.144 C  
HETATM   22  N   UNL     1     -10.699   6.279  68.442  1.00  0.00    -0.260 N  
HETATM   23  O   UNL     1      -8.644   7.301  68.155  1.00  0.00    -0.123 OA 
HETATM   24  H   UNL     1     -11.688   6.308  68.198  1.00  0.00     0.000 HD 
BRANCH  22  25
HETATM   25  C   UNL     1     -10.235   5.288  69.358  1.00  0.00    -0.251 A  
HETATM   26  C   UNL     1      -9.464   4.190  68.946  1.00  0.00    -0.169 A  
HETATM   27  I   UNL     1      -9.151   3.655  66.920  1.00  0.00    -0.208 I  
HETATM   28  C   UNL     1      -8.994   3.261  69.879  1.00  0.00    -0.173 A  
HETATM   29  C   UNL     1      -9.340   3.367  71.233  1.00  0.00    -0.138 A  
HETATM   30  I   UNL     1      -8.617   1.787  72.438  1.00  0.00    -0.083 I  
HETATM   31  C   UNL     1     -10.157   4.420  71.681  1.00  0.00    -0.230 A  
HETATM   32  C   UNL     1     -10.621   4.490  73.098  1.00  0.00    -0.216 C  
HETATM   33  C   UNL     1     -10.596   5.380  70.731  1.00  0.00    -0.223 A  
HETATM   34  O   UNL     1     -11.781   4.695  73.410  1.00  0.00    -0.283 OA 
HETATM   35  I   UNL     1     -11.732   7.121  71.324  1.00  0.00    -0.408 I  
HETATM   36  O   UNL     1      -9.648   4.349  74.023  1.00  0.00    -0.111 OA 
ENDBRANCH  22  25
ENDBRANCH  20  21
ENDBRANCH  19  20
ENDBRANCH  18  19
ENDBRANCH  17  18
ENDBRANCH  15  17
ENDBRANCH   7  13
TORSDOF 7
ENDMDL
MODEL       19
REMARK 921   NORMALIZED FREE ENERGY PREDICTED BY IDOCK:   -6.14 KCAL/MOL
REMARK 922        TOTAL FREE ENERGY PREDICTED BY IDOCK:   -9.57 KCAL/MOL
REMARK 923 INTER-LIGAND FREE ENERGY PREDICTED BY IDOCK:   -8.38 KCAL/MOL
REMARK 924 INTRA-LIGAND FREE ENERGY PREDICTED BY IDOCK:   -1.19 KCAL/MOL
REMARK 927      BINDING AFFINITY PREDICTED BY RF-SCORE:    0.00 PKD
ROOT
HETATM    1  O   UNL     1     -11.144   4.649  74.166  1.00  0.00    -0.290 OA 
HETATM    2  C   UNL     1      -9.897   4.786  73.665  1.00  0.00    -0.143 C  
HETATM    3  C   UNL     1      -9.670   4.091  72.369  1.00  0.00    -0.210 A  
HETATM    4  O   UNL     1      -9.053   5.472  74.214  1.00  0.00    -0.121 OA 
HETATM    5  C   UNL     1      -9.058   4.769  71.280  1.00  0.00    -0.138 A  
HETATM    6  I   UNL     1      -8.601   6.878  71.384  1.00  0.00    -0.116 I  
HETATM    7  C   UNL     1      -8.799   4.112  70.043  1.00  0.00    -0.078 A  
HETATM    8  I   UNL     1     -10.760   1.491  73.737  1.00  0.00    -0.251 I  
HETATM    9  C   UNL     1      -9.149   2.756  69.918  1.00  0.00    -0.120 A  
HETATM   10  C   UNL     1      -9.996   2.734  72.206  1.00  0.00    -0.169 A  
HETATM   11  C   UNL     1      -9.756   2.083  70.988  1.00  0.00    -0.161 A  
HETATM   12  I   UNL     1      -8.603   1.527  68.290  1.00  0.00    -0.135 I  
ENDROOT
BRANCH   7  13
HETATM   13  N   UNL     1      -8.123   4.834  69.013  1.00  0.00    -0.078 N  
HETATM   14  O   UNL     1      -9.973   5.193  67.659  1.00  0.00    -0.152 OA 
HETATM   15  C   UNL     1      -8.777   5.337  67.899  1.00  0.00    -0.102 C  
HETATM   16  H   UNL     1      -7.118   4.985  69.101  1.00  0.00     0.000 HD 
BRANCH  15  17
HETATM   17  C   UNL     1      -7.914   6.248  67.037  1.00  0.00    -0.109 C  
BRANCH  17  18
HETATM   18  C   UNL     1      -8.775   7.340  66.405  1.00  0.00    -0.152 C  
BRANCH  18  19
HETATM   19  C   UNL     1      -9.034   8.557  67.300  1.00  0.00    -0.141 C  
BRANCH  19  20
HETATM   20  C   UNL     1     -10.441   8.634  67.900  1.00  0.00    -0.269 C  
BRANCH  20  21
HETATM   21  C   UNL     1     -10.531   9.774  68.910  1.00  0.00    -0.214 C  
HETATM   22  N   UNL     1     -11.747  10.442  68.885  1.00  0.00    -0.513 N  
HETATM   23  O   UNL     1      -9.578  10.100  69.608  1.00  0.00    -0.225 OA 
HETATM   24  H   UNL     1     -12.466  10.142  68.228  1.00  0.00     0.000 HD 
BRANCH  22  25
HETATM   25  C   UNL     1     -12.013  11.539  69.757  1.00  0.00    -0.346 A  
HETATM   26  C   UNL     1     -12.582  11.363  71.029  1.00  0.00    -0.386 A  
HETATM   27  I   UNL     1     -13.419   9.541  71.712  1.00  0.00    -0.418 I  
HETATM   28  C   UNL     1     -12.791  12.459  71.872  1.00  0.00    -0.315 A  
HETATM   29  C   UNL     1     -12.504  13.761  71.440  1.00  0.00    -0.318 A  
HETATM   30  I   UNL     1     -13.012  15.268  72.834  1.00  0.00    -0.757 I  
HETATM   31  C   UNL     1     -11.987  13.989  70.153  1.00  0.00    -0.399 A  
HETATM   32  C   UNL     1     -11.774  15.373  69.638  1.00  0.00    -0.338 C  
HETATM   33  C   UNL     1     -11.740  12.865  69.319  1.00  0.00    -0.321 A  
HETATM   34  O   UNL     1     -12.150  15.741  68.539  1.00  0.00    -0.233 OA 
HETATM   35  I   UNL     1     -10.810  13.077  67.380  1.00  0.00    -0.312 I  
HETATM   36  O   UNL     1     -11.090  16.191  70.468  1.00  0.00    -0.349 OA 
ENDBRANCH  22  25
ENDBRANCH  20  21
ENDBRANCH  19  20
ENDBRANCH  18  19
ENDBRANCH  17  18
ENDBRANCH  15  17
ENDBRANCH   7  13
TORSDOF 7
ENDMDL
MODEL       20
REMARK 921   NORMALIZED FREE ENERGY PREDICTED BY IDOCK:   -6.10 KCAL/MOL
REMARK 922        TOTAL FREE ENERGY PREDICTED BY IDOCK:   -9.52 KCAL/MOL
REMARK 923 INTER-LIGAND FREE ENERGY PREDICTED BY IDOCK:   -8.50 KCAL/MOL
REMARK 924 INTRA-LIGAND FREE ENERGY PREDICTED BY IDOCK:   -1.02 KCAL/MOL
REMARK 927      BINDING AFFINITY PREDICTED BY RF-SCORE:    0.00 PKD
ROOT
HETATM    1  O   UNL     1      -9.944   2.824  70.897  1.00  0.00    -0.046 OA 
HETATM    2  C   UNL     1      -9.707   4.092  71.299  1.00  0.00    -0.185 C  
HETATM    3  C   UNL     1      -9.802   5.111  70.220  1.00  0.00    -0.295 A  
HETATM    4  O   UNL     1      -9.487   4.368  72.465  1.00  0.00    -0.131 OA 
HETATM    5  C   UNL     1     -10.559   6.299  70.409  1.00  0.00    -0.252 A  
HETATM    6  I   UNL     1     -11.754   6.598  72.184  1.00  0.00    -0.257 I  
HETATM    7  C   UNL     1     -10.635   7.304  69.403  1.00  0.00    -0.229 A  
HETATM    8  I   UNL     1      -7.786   3.358  68.582  1.00  0.00    -0.064 I  
HETATM    9  C   UNL     1      -9.924   7.108  68.205  1.00  0.00    -0.156 A  
HETATM   10  C   UNL     1      -9.100   4.959  69.012  1.00  0.00    -0.111 A  
HETATM   11  C   UNL     1      -9.178   5.937  68.012  1.00  0.00    -0.112 A  
HETATM   12  I   UNL     1      -9.670   8.581  66.713  1.00  0.00    -0.357 I  
ENDROOT
BRANCH   7  13
HETATM   13  N   UNL     1     -11.360   8.501  69.684  1.00  0.00    -0.435 N  
HETATM   14  O   UNL     1      -9.603   9.678  70.639  1.00  0.00    -0.252 OA 
HETATM   15  C   UNL     1     -10.773   9.611  70.271  1.00  0.00    -0.281 C  
HETATM   16  H   UNL     1     -12.351   8.541  69.444  1.00  0.00     0.000 HD 
BRANCH  15  17
HETATM   17  C   UNL     1     -11.666  10.845  70.289  1.00  0.00    -0.437 C  
BRANCH  17  18
HETATM   18  C   UNL     1     -11.901  11.342  68.865  1.00  0.00    -0.413 C  
BRANCH  18  19
HETATM   19  C   UNL     1     -11.088  12.580  68.471  1.00  0.00    -0.297 C  
BRANCH  19  20
HETATM   20  C   UNL     1      -9.587  12.339  68.280  1.00  0.00    -0.212 C  
BRANCH  20  21
HETATM   21  C   UNL     1      -8.864  13.655  68.011  1.00  0.00    -0.187 C  
HETATM   22  N   UNL     1      -8.838  14.508  69.104  1.00  0.00    -0.375 N  
HETATM   23  O   UNL     1      -8.426  13.940  66.901  1.00  0.00    -0.174 OA 
HETATM   24  H   UNL     1      -9.281  14.215  69.975  1.00  0.00     0.000 HD 
BRANCH  22  25
HETATM   25  C   UNL     1      -8.207  15.786  69.040  1.00  0.00    -0.234 A  
HETATM   26  C   UNL     1      -6.854  15.970  69.364  1.00  0.00    -0.215 A  
HETATM   27  I   UNL     1      -5.647  14.497  70.293  1.00  0.00    -0.156 I  
HETATM   28  C   UNL     1      -6.260  17.230  69.250  1.00  0.00    -0.237 A  
HETATM   29  C   UNL     1      -7.017  18.349  68.877  1.00  0.00    -0.282 A  
HETATM   30  I   UNL     1      -5.939  20.168  68.887  1.00  0.00    -0.372 I  
HETATM   31  C   UNL     1      -8.389  18.221  68.598  1.00  0.00    -0.305 A  
HETATM   32  C   UNL     1      -9.233  19.416  68.302  1.00  0.00    -0.346 C  
HETATM   33  C   UNL     1      -8.974  16.928  68.678  1.00  0.00    -0.266 A  
HETATM   34  O   UNL     1     -10.310  19.619  68.833  1.00  0.00    -0.378 OA 
HETATM   35  I   UNL     1     -11.036  16.583  68.129  1.00  0.00    -0.119 I  
HETATM   36  O   UNL     1      -8.734  20.247  67.362  1.00  0.00    -0.335 OA 
ENDBRANCH  22  25
ENDBRANCH  20  21
ENDBRANCH  19  20
ENDBRANCH  18  19
ENDBRANCH  17  18
ENDBRANCH  15  17
ENDBRANCH   7  13
TORSDOF 7
ENDMDL
MODEL       21
REMARK 921   NORMALIZED FREE ENERGY PREDICTED BY IDOCK:   -6.10 KCAL/MOL
REMARK 922        TOTAL FREE ENERGY PREDICTED BY IDOCK:   -9.51 KCAL/MOL
REMARK 923 INTER-LIGAND FREE ENERGY PREDICTED BY IDOCK:   -8.48 KCAL/MOL
REMARK 924 INTRA-LIGAND FREE ENERGY PREDICTED BY IDOCK:   -1.04 KCAL/MOL
REMARK 927      BINDING AFFINITY PREDICTED BY RF-SCORE:    0.00 PKD
ROOT
HETATM    1  O   UNL     1     -10.660  18.218  65.802  1.00  0.00    -0.554 OA 
HETATM    2  C   UNL     1     -10.594  16.995  65.231  1.00  0.00    -0.080 C  
HETATM    3  C   UNL     1      -9.828  15.988  66.013  1.00  0.00    -0.365 A  
HETATM    4  O   UNL     1     -11.166  16.739  64.186  1.00  0.00    -1.155 OA 
HETATM    5  C   UNL     1     -10.368  14.697  66.259  1.00  0.00    -0.294 A  
HETATM    6  I   UNL     1     -12.388  14.197  65.680  1.00  0.00    -0.350 I  
HETATM    7  C   UNL     1      -9.637  13.706  66.974  1.00  0.00    -0.251 A  
HETATM    8  I   UNL     1      -7.467  18.049  66.082  1.00  0.00    -0.162 I  
HETATM    9  C   UNL     1      -8.344  14.024  67.427  1.00  0.00    -0.196 A  
HETATM   10  C   UNL     1      -8.528  16.262  66.475  1.00  0.00    -0.303 A  
HETATM   11  C   UNL     1      -7.807  15.297  67.190  1.00  0.00    -0.249 A  
HETATM   12  I   UNL     1      -6.991  12.627  68.250  1.00  0.00    -0.138 I  
ENDROOT
BRANCH   7  13
HETATM   13  N   UNL     1     -10.213  12.410  67.130  1.00  0.00    -0.215 N  
HETATM   14  O   UNL     1      -9.280  11.456  65.231  1.00  0.00    -0.205 OA 
HETATM   15  C   UNL     1      -9.970  11.371  66.244  1.00  0.00    -0.224 C  
HETATM   16  H   UNL     1     -10.829  12.240  67.926  1.00  0.00     0.000 HD 
BRANCH  15  17
HETATM   17  C   UNL     1     -10.511  10.025  66.708  1.00  0.00    -0.267 C  
BRANCH  17  18
HETATM   18  C   UNL     1     -11.352  10.205  67.969  1.00  0.00    -0.152 C  
BRANCH  18  19
HETATM   19  C   UNL     1     -10.636   9.858  69.279  1.00  0.00    -0.245 C  
BRANCH  19  20
HETATM   20  C   UNL     1     -11.558   9.505  70.450  1.00  0.00    -0.268 C  
BRANCH  20  21
HETATM   21  C   UNL     1     -11.406   8.035  70.827  1.00  0.00    -0.272 C  
HETATM   22  N   UNL     1     -10.162   7.507  70.511  1.00  0.00    -0.199 N  
HETATM   23  O   UNL     1     -12.336   7.383  71.288  1.00  0.00    -0.327 OA 
HETATM   24  H   UNL     1      -9.464   8.106  70.072  1.00  0.00     0.000 HD 
BRANCH  22  25
HETATM   25  C   UNL     1      -9.837   6.146  70.787  1.00  0.00    -0.186 A  
HETATM   26  C   UNL     1      -9.500   5.703  72.076  1.00  0.00    -0.150 A  
HETATM   27  I   UNL     1      -9.104   6.995  73.708  1.00  0.00    -0.287 I  
HETATM   28  C   UNL     1      -9.226   4.353  72.315  1.00  0.00    -0.156 A  
HETATM   29  C   UNL     1      -9.215   3.426  71.264  1.00  0.00    -0.120 A  
HETATM   30  I   UNL     1      -8.659   1.470  71.840  1.00  0.00    -0.088 I  
HETATM   31  C   UNL     1      -9.491   3.836  69.948  1.00  0.00    -0.267 A  
HETATM   32  C   UNL     1      -9.380   2.886  68.802  1.00  0.00    -0.168 C  
HETATM   33  C   UNL     1      -9.806   5.203  69.722  1.00  0.00    -0.212 A  
HETATM   34  O   UNL     1      -8.789   3.152  67.771  1.00  0.00    -0.108 OA 
HETATM   35  I   UNL     1     -10.392   5.921  67.769  1.00  0.00    -0.330 I  
HETATM   36  O   UNL     1     -10.023   1.711  68.973  1.00  0.00     0.069 OA 
ENDBRANCH  22  25
ENDBRANCH  20  21
ENDBRANCH  19  20
ENDBRANCH  18  19
ENDBRANCH  17  18
ENDBRANCH  15  17
ENDBRANCH   7  13
TORSDOF 7
ENDMDL
MODEL       22
REMARK 921   NORMALIZED FREE ENERGY PREDICTED BY IDOCK:   -6.08 KCAL/MOL
REMARK 922        TOTAL FREE ENERGY PREDICTED BY IDOCK:   -9.49 KCAL/MOL
REMARK 923 INTER-LIGAND FREE ENERGY PREDICTED BY IDOCK:   -8.67 KCAL/MOL
REMARK 924 INTRA-LIGAND FREE ENERGY PREDICTED BY IDOCK:   -0.82 KCAL/MOL
REMARK 927      BINDING AFFINITY PREDICTED BY RF-SCORE:    0.00 PKD
ROOT
HETATM    1  O   UNL     1      -7.246  19.271  67.079  1.00  0.00    -0.207 OA 
HETATM    2  C   UNL     1      -7.610  18.196  67.811  1.00  0.00    -0.222 C  
HETATM    3  C   UNL     1      -8.482  17.226  67.096  1.00  0.00    -0.223 A  
HETATM    4  O   UNL     1      -7.203  18.021  68.946  1.00  0.00    -0.272 OA 
HETATM    5  C   UNL     1      -8.189  15.836  67.114  1.00  0.00    -0.206 A  
HETATM    6  I   UNL     1      -6.373  15.084  68.013  1.00  0.00    -0.176 I  
HETATM    7  C   UNL     1      -9.030  14.887  66.467  1.00  0.00    -0.253 A  
HETATM    8  I   UNL     1     -10.367  19.638  66.424  1.00  0.00    -0.586 I  
HETATM    9  C   UNL     1     -10.185  15.352  65.812  1.00  0.00    -0.354 A  
HETATM   10  C   UNL     1      -9.651  17.648  66.438  1.00  0.00    -0.274 A  
HETATM   11  C   UNL     1     -10.478  16.723  65.788  1.00  0.00    -0.305 A  
HETATM   12  I   UNL     1     -11.703  14.104  65.039  1.00  0.00    -0.463 I  
ENDROOT
BRANCH   7  13
HETATM   13  N   UNL     1      -8.711  13.500  66.579  1.00  0.00    -0.446 N  
HETATM   14  O   UNL     1      -9.917  13.089  68.518  1.00  0.00    -0.227 OA 
HETATM   15  C   UNL     1      -9.202  12.700  67.599  1.00  0.00    -0.191 C  
HETATM   16  H   UNL     1      -8.098  13.081  65.880  1.00  0.00     0.000 HD 
BRANCH  15  17
HETATM   17  C   UNL     1      -8.911  11.216  67.413  1.00  0.00    -0.139 C  
BRANCH  17  18
HETATM   18  C   UNL     1      -9.134  10.817  65.956  1.00  0.00    -0.204 C  
BRANCH  18  19
HETATM   19  C   UNL     1      -9.693   9.406  65.751  1.00  0.00    -0.354 C  
BRANCH  19  20
HETATM   20  C   UNL     1     -10.645   8.918  66.849  1.00  0.00    -0.254 C  
BRANCH  20  21
HETATM   21  C   UNL     1      -9.989   7.816  67.675  1.00  0.00    -0.178 C  
HETATM   22  N   UNL     1     -10.895   6.912  68.212  1.00  0.00    -0.395 N  
HETATM   23  O   UNL     1      -8.783   7.799  67.896  1.00  0.00    -0.125 OA 
HETATM   24  H   UNL     1     -11.890   7.035  68.027  1.00  0.00     0.000 HD 
BRANCH  22  25
HETATM   25  C   UNL     1     -10.467   5.814  69.016  1.00  0.00    -0.266 A  
HETATM   26  C   UNL     1      -9.838   4.685  68.467  1.00  0.00    -0.111 A  
HETATM   27  I   UNL     1      -9.723   4.284  66.390  1.00  0.00    -0.161 I  
HETATM   28  C   UNL     1      -9.396   3.646  69.292  1.00  0.00    -0.245 A  
HETATM   29  C   UNL     1      -9.632   3.677  70.673  1.00  0.00    -0.183 A  
HETATM   30  I   UNL     1      -8.983   1.948  71.702  1.00  0.00    -0.165 I  
HETATM   31  C   UNL     1     -10.308   4.762  71.258  1.00  0.00    -0.184 A  
HETATM   32  C   UNL     1     -10.661   4.764  72.708  1.00  0.00    -0.217 C  
HETATM   33  C   UNL     1     -10.718   5.831  70.416  1.00  0.00    -0.302 A  
HETATM   34  O   UNL     1     -11.770   5.049  73.123  1.00  0.00    -0.313 OA 
HETATM   35  I   UNL     1     -11.633   7.617  71.219  1.00  0.00    -0.348 I  
HETATM   36  O   UNL     1      -9.643   4.462  73.542  1.00  0.00    -0.116 OA 
ENDBRANCH  22  25
ENDBRANCH  20  21
ENDBRANCH  19  20
ENDBRANCH  18  19
ENDBRANCH  17  18
ENDBRANCH  15  17
ENDBRANCH   7  13
TORSDOF 7
ENDMDL
MODEL       23
REMARK 921   NORMALIZED FREE ENERGY PREDICTED BY IDOCK:   -6.05 KCAL/MOL
REMARK 922        TOTAL FREE ENERGY PREDICTED BY IDOCK:   -9.45 KCAL/MOL
REMARK 923 INTER-LIGAND FREE ENERGY PREDICTED BY IDOCK:   -8.37 KCAL/MOL
REMARK 924 INTRA-LIGAND FREE ENERGY PREDICTED BY IDOCK:   -1.09 KCAL/MOL
REMARK 927      BINDING AFFINITY PREDICTED BY RF-SCORE:    0.00 PKD
ROOT
HETATM    1  O   UNL     1      -6.862   8.821  64.890  1.00  0.00    -0.072 OA 
HETATM    2  C   UNL     1      -6.877  10.007  65.536  1.00  0.00    -0.120 C  
HETATM    3  C   UNL     1      -8.193  10.701  65.526  1.00  0.00    -0.141 A  
HETATM    4  O   UNL     1      -5.898  10.435  66.120  1.00  0.00    -0.068 OA 
HETATM    5  C   UNL     1      -8.747  11.223  66.726  1.00  0.00    -0.166 A  
HETATM    6  I   UNL     1      -7.808  10.873  68.640  1.00  0.00    -0.133 I  
HETATM    7  C   UNL     1      -9.988  11.921  66.734  1.00  0.00    -0.195 A  
HETATM    8  I   UNL     1      -8.181  10.374  62.409  1.00  0.00    -0.292 I  
HETATM    9  C   UNL     1     -10.661  12.105  65.513  1.00  0.00    -0.277 A  
HETATM   10  C   UNL     1      -8.893  10.915  64.326  1.00  0.00    -0.051 A  
HETATM   11  C   UNL     1     -10.121  11.591  64.326  1.00  0.00    -0.338 A  
HETATM   12  I   UNL     1     -12.352  13.343  65.256  1.00  0.00    -0.503 I  
ENDROOT
BRANCH   7  13
HETATM   13  N   UNL     1     -10.455  12.474  67.964  1.00  0.00    -0.213 N  
HETATM   14  O   UNL     1     -12.285  11.072  68.228  1.00  0.00    -0.582 OA 
HETATM   15  C   UNL     1     -11.570  11.986  68.629  1.00  0.00    -0.319 C  
HETATM   16  H   UNL     1      -9.947  13.259  68.371  1.00  0.00     0.000 HD 
BRANCH  15  17
HETATM   17  C   UNL     1     -11.768  12.578  70.018  1.00  0.00    -0.297 C  
BRANCH  17  18
HETATM   18  C   UNL     1     -12.474  11.569  70.921  1.00  0.00    -0.464 C  
BRANCH  18  19
HETATM   19  C   UNL     1     -11.751  10.227  71.078  1.00  0.00    -0.461 C  
BRANCH  19  20
HETATM   20  C   UNL     1     -12.455   9.211  71.984  1.00  0.00    -0.452 C  
BRANCH  20  21
HETATM   21  C   UNL     1     -12.200   7.790  71.494  1.00  0.00    -0.318 C  
HETATM   22  N   UNL     1     -10.866   7.531  71.212  1.00  0.00    -0.233 N  
HETATM   23  O   UNL     1     -13.113   6.995  71.300  1.00  0.00    -0.369 OA 
HETATM   24  H   UNL     1     -10.177   8.271  71.344  1.00  0.00     0.000 HD 
BRANCH  22  25
HETATM   25  C   UNL     1     -10.437   6.255  70.740  1.00  0.00    -0.222 A  
HETATM   26  C   UNL     1     -10.271   5.157  71.598  1.00  0.00    -0.212 A  
HETATM   27  I   UNL     1     -10.307   5.288  73.712  1.00  0.00    -0.347 I  
HETATM   28  C   UNL     1      -9.888   3.911  71.093  1.00  0.00    -0.223 A  
HETATM   29  C   UNL     1      -9.593   3.749  69.732  1.00  0.00    -0.183 A  
HETATM   30  I   UNL     1      -8.919   1.813  69.216  1.00  0.00    -0.178 I  
HETATM   31  C   UNL     1      -9.690   4.836  68.846  1.00  0.00    -0.244 A  
HETATM   32  C   UNL     1      -9.279   4.709  67.417  1.00  0.00    -0.131 C  
HETATM   33  C   UNL     1     -10.119   6.088  69.363  1.00  0.00    -0.192 A  
HETATM   34  O   UNL     1      -8.558   5.515  66.856  1.00  0.00    -0.111 OA 
HETATM   35  I   UNL     1     -10.448   7.792  68.074  1.00  0.00    -0.112 I  
HETATM   36  O   UNL     1      -9.801   3.647  66.767  1.00  0.00    -0.147 OA 
ENDBRANCH  22  25
ENDBRANCH  20  21
ENDBRANCH  19  20
ENDBRANCH  18  19
ENDBRANCH  17  18
ENDBRANCH  15  17
ENDBRANCH   7  13
TORSDOF 7
ENDMDL
MODEL       24
REMARK 921   NORMALIZED FREE ENERGY PREDICTED BY IDOCK:   -6.03 KCAL/MOL
REMARK 922        TOTAL FREE ENERGY PREDICTED BY IDOCK:   -9.42 KCAL/MOL
REMARK 923 INTER-LIGAND FREE ENERGY PREDICTED BY IDOCK:   -8.48 KCAL/MOL
REMARK 924 INTRA-LIGAND FREE ENERGY PREDICTED BY IDOCK:   -0.94 KCAL/MOL
REMARK 927      BINDING AFFINITY PREDICTED BY RF-SCORE:    0.00 PKD
ROOT
HETATM    1  O   UNL     1     -10.710  19.056  66.461  1.00  0.00    -0.398 OA 
HETATM    2  C   UNL     1     -10.327  17.804  66.128  1.00  0.00    -0.340 C  
HETATM    3  C   UNL     1      -9.447  17.140  67.127  1.00  0.00    -0.249 A  
HETATM    4  O   UNL     1     -10.721  17.256  65.114  1.00  0.00    -0.687 OA 
HETATM    5  C   UNL     1      -9.721  15.818  67.571  1.00  0.00    -0.226 A  
HETATM    6  I   UNL     1     -11.519  14.782  66.968  1.00  0.00    -0.238 I  
HETATM    7  C   UNL     1      -8.872  15.151  68.500  1.00  0.00    -0.185 A  
HETATM    8  I   UNL     1      -7.600  19.667  66.967  1.00  0.00    -0.319 I  
HETATM    9  C   UNL     1      -7.729  15.825  68.967  1.00  0.00    -0.202 A  
HETATM   10  C   UNL     1      -8.289  17.775  67.612  1.00  0.00    -0.228 A  
HETATM   11  C   UNL     1      -7.455  17.130  68.535  1.00  0.00    -0.238 A  
HETATM   12  I   UNL     1      -6.200  14.929  70.114  1.00  0.00    -0.068 I  
ENDROOT
BRANCH   7  13
HETATM   13  N   UNL     1      -9.171  13.801  68.853  1.00  0.00    -0.397 N  
HETATM   14  O   UNL     1      -8.047  12.792  67.091  1.00  0.00    -0.176 OA 
HETATM   15  C   UNL     1      -8.714  12.717  68.120  1.00  0.00    -0.190 C  
HETATM   16  H   UNL     1      -9.745  13.627  69.678  1.00  0.00     0.000 HD 
BRANCH  15  17
HETATM   17  C   UNL     1      -8.969  11.370  68.785  1.00  0.00    -0.086 C  
BRANCH  17  18
HETATM   18  C   UNL     1     -10.455  11.217  69.103  1.00  0.00    -0.191 C  
BRANCH  18  19
HETATM   19  C   UNL     1     -11.232  10.314  68.139  1.00  0.00    -0.294 C  
BRANCH  19  20
HETATM   20  C   UNL     1     -10.366   9.464  67.205  1.00  0.00    -0.326 C  
BRANCH  20  21
HETATM   21  C   UNL     1      -9.814   8.249  67.943  1.00  0.00    -0.169 C  
HETATM   22  N   UNL     1     -10.799   7.400  68.429  1.00  0.00    -0.416 N  
HETATM   23  O   UNL     1      -8.614   8.101  68.146  1.00  0.00    -0.128 OA 
HETATM   24  H   UNL     1     -11.779   7.631  68.267  1.00  0.00     0.000 HD 
BRANCH  22  25
HETATM   25  C   UNL     1     -10.473   6.213  69.149  1.00  0.00    -0.251 A  
HETATM   26  C   UNL     1      -9.977   5.064  68.512  1.00  0.00    -0.139 A  
HETATM   27  I   UNL     1      -9.945   4.792  66.412  1.00  0.00    -0.291 I  
HETATM   28  C   UNL     1      -9.630   3.932  69.257  1.00  0.00    -0.232 A  
HETATM   29  C   UNL     1      -9.835   3.895  70.643  1.00  0.00    -0.122 A  
HETATM   30  I   UNL     1      -9.351   2.043  71.541  1.00  0.00    -0.210 I  
HETATM   31  C   UNL     1     -10.382   5.003  71.314  1.00  0.00    -0.255 A  
HETATM   32  C   UNL     1     -10.705   4.944  72.769  1.00  0.00    -0.228 C  
HETATM   33  C   UNL     1     -10.694   6.162  70.553  1.00  0.00    -0.278 A  
HETATM   34  O   UNL     1     -11.769   5.315  73.232  1.00  0.00    -0.219 OA 
HETATM   35  I   UNL     1     -11.401   7.976  71.493  1.00  0.00    -0.378 I  
HETATM   36  O   UNL     1      -9.708   4.484  73.556  1.00  0.00    -0.123 OA 
ENDBRANCH  22  25
ENDBRANCH  20  21
ENDBRANCH  19  20
ENDBRANCH  18  19
ENDBRANCH  17  18
ENDBRANCH  15  17
ENDBRANCH   7  13
TORSDOF 7
ENDMDL
MODEL       25
REMARK 921   NORMALIZED FREE ENERGY PREDICTED BY IDOCK:   -6.03 KCAL/MOL
REMARK 922        TOTAL FREE ENERGY PREDICTED BY IDOCK:   -9.41 KCAL/MOL
REMARK 923 INTER-LIGAND FREE ENERGY PREDICTED BY IDOCK:   -8.35 KCAL/MOL
REMARK 924 INTRA-LIGAND FREE ENERGY PREDICTED BY IDOCK:   -1.06 KCAL/MOL
REMARK 927      BINDING AFFINITY PREDICTED BY RF-SCORE:    0.00 PKD
ROOT
HETATM    1  O   UNL     1      -9.500   1.904  72.661  1.00  0.00    -0.077 OA 
HETATM    2  C   UNL     1      -8.976   3.150  72.663  1.00  0.00    -0.087 C  
HETATM    3  C   UNL     1      -9.518   4.051  71.610  1.00  0.00    -0.216 A  
HETATM    4  O   UNL     1      -8.166   3.507  73.499  1.00  0.00    -0.077 OA 
HETATM    5  C   UNL     1      -9.960   5.362  71.934  1.00  0.00    -0.184 A  
HETATM    6  I   UNL     1     -10.044   6.043  73.983  1.00  0.00    -0.329 I  
HETATM    7  C   UNL     1     -10.448   6.253  70.936  1.00  0.00    -0.223 A  
HETATM    8  I   UNL     1      -8.794   1.820  69.531  1.00  0.00    -0.162 I  
HETATM    9  C   UNL     1     -10.472   5.815  69.600  1.00  0.00    -0.293 A  
HETATM   10  C   UNL     1      -9.550   3.656  70.261  1.00  0.00    -0.176 A  
HETATM   11  C   UNL     1     -10.040   4.521  69.275  1.00  0.00    -0.102 A  
HETATM   12  I   UNL     1     -10.885   7.057  67.944  1.00  0.00    -0.118 I  
ENDROOT
BRANCH   7  13
HETATM   13  N   UNL     1     -10.815   7.577  71.322  1.00  0.00    -0.233 N  
HETATM   14  O   UNL     1     -13.095   7.193  71.518  1.00  0.00    -0.381 OA 
HETATM   15  C   UNL     1     -12.123   7.940  71.602  1.00  0.00    -0.299 C  
HETATM   16  H   UNL     1     -10.084   8.286  71.394  1.00  0.00     0.000 HD 
BRANCH  15  17
HETATM   17  C   UNL     1     -12.263   9.337  72.194  1.00  0.00    -0.377 C  
BRANCH  17  18
HETATM   18  C   UNL     1     -12.862  10.286  71.158  1.00  0.00    -0.504 C  
BRANCH  18  19
HETATM   19  C   UNL     1     -11.839  11.113  70.373  1.00  0.00    -0.462 C  
BRANCH  19  20
HETATM   20  C   UNL     1     -11.781  10.821  68.871  1.00  0.00    -0.338 C  
BRANCH  20  21
HETATM   21  C   UNL     1     -11.085  11.958  68.130  1.00  0.00    -0.242 C  
HETATM   22  N   UNL     1     -10.245  12.712  68.936  1.00  0.00    -0.425 N  
HETATM   23  O   UNL     1     -11.325  12.210  66.954  1.00  0.00    -0.302 OA 
HETATM   24  H   UNL     1     -10.150  12.469  69.921  1.00  0.00     0.000 HD 
BRANCH  22  25
HETATM   25  C   UNL     1      -9.510  13.820  68.417  1.00  0.00    -0.198 A  
HETATM   26  C   UNL     1      -8.259  13.666  67.800  1.00  0.00    -0.179 A  
HETATM   27  I   UNL     1      -7.135  11.870  67.830  1.00  0.00    -0.132 I  
HETATM   28  C   UNL     1      -7.587  14.770  67.268  1.00  0.00    -0.195 A  
HETATM   29  C   UNL     1      -8.114  16.062  67.401  1.00  0.00    -0.164 A  
HETATM   30  I   UNL     1      -6.872  17.589  66.629  1.00  0.00    -0.331 I  
HETATM   31  C   UNL     1      -9.338  16.270  68.062  1.00  0.00    -0.214 A  
HETATM   32  C   UNL     1      -9.862  17.646  68.305  1.00  0.00    -0.324 C  
HETATM   33  C   UNL     1     -10.031  15.136  68.564  1.00  0.00    -0.223 A  
HETATM   34  O   UNL     1     -10.279  18.018  69.387  1.00  0.00    -0.223 OA 
HETATM   35  I   UNL     1     -11.987  15.314  69.465  1.00  0.00    -0.262 I  
HETATM   36  O   UNL     1      -9.881  18.448  67.219  1.00  0.00    -0.298 OA 
ENDBRANCH  22  25
ENDBRANCH  20  21
ENDBRANCH  19  20
ENDBRANCH  18  19
ENDBRANCH  17  18
ENDBRANCH  15  17
ENDBRANCH   7  13
TORSDOF 7
ENDMDL
MODEL       26
REMARK 921   NORMALIZED FREE ENERGY PREDICTED BY IDOCK:   -6.00 KCAL/MOL
REMARK 922        TOTAL FREE ENERGY PREDICTED BY IDOCK:   -9.38 KCAL/MOL
REMARK 923 INTER-LIGAND FREE ENERGY PREDICTED BY IDOCK:   -8.48 KCAL/MOL
REMARK 924 INTRA-LIGAND FREE ENERGY PREDICTED BY IDOCK:   -0.89 KCAL/MOL
REMARK 927      BINDING AFFINITY PREDICTED BY RF-SCORE:    0.00 PKD
ROOT
HETATM    1  O   UNL     1      -7.098   6.480  69.523  1.00  0.00    -0.068 OA 
HETATM    2  C   UNL     1      -7.921   7.291  68.821  1.00  0.00    -0.123 C  
HETATM    3  C   UNL     1      -9.080   7.814  69.592  1.00  0.00    -0.146 A  
HETATM    4  O   UNL     1      -7.689   7.601  67.666  1.00  0.00    -0.116 OA 
HETATM    5  C   UNL     1      -9.402   9.198  69.569  1.00  0.00    -0.163 A  
HETATM    6  I   UNL     1      -8.124  10.630  68.575  1.00  0.00    -0.147 I  
HETATM    7  C   UNL     1     -10.528   9.716  70.271  1.00  0.00    -0.283 A  
HETATM    8  I   UNL     1      -9.733   4.845  70.351  1.00  0.00    -0.324 I  
HETATM    9  C   UNL     1     -11.341   8.818  70.986  1.00  0.00    -0.278 A  
HETATM   10  C   UNL     1      -9.924   6.951  70.312  1.00  0.00    -0.179 A  
HETATM   11  C   UNL     1     -11.027   7.452  71.015  1.00  0.00    -0.268 A  
HETATM   12  I   UNL     1     -13.199   9.323  71.854  1.00  0.00    -0.590 I  
ENDROOT
BRANCH   7  13
HETATM   13  N   UNL     1     -10.829  11.105  70.152  1.00  0.00    -0.415 N  
HETATM   14  O   UNL     1     -12.180  10.941  68.272  1.00  0.00    -0.526 OA 
HETATM   15  C   UNL     1     -11.656  11.609  69.159  1.00  0.00    -0.314 C  
HETATM   16  H   UNL     1     -10.420  11.754  70.824  1.00  0.00     0.000 HD 
BRANCH  15  17
HETATM   17  C   UNL     1     -12.011  13.079  69.340  1.00  0.00    -0.338 C  
BRANCH  17  18
HETATM   18  C   UNL     1     -12.333  13.364  70.805  1.00  0.00    -0.433 C  
BRANCH  18  19
HETATM   19  C   UNL     1     -11.976  14.776  71.282  1.00  0.00    -0.404 C  
BRANCH  19  20
HETATM   20  C   UNL     1     -12.056  15.865  70.208  1.00  0.00    -0.294 C  
BRANCH  20  21
HETATM   21  C   UNL     1     -10.680  16.118  69.599  1.00  0.00    -0.325 C  
HETATM   22  N   UNL     1     -10.717  16.891  68.448  1.00  0.00    -0.361 N  
HETATM   23  O   UNL     1      -9.663  15.608  70.056  1.00  0.00    -0.242 OA 
HETATM   24  H   UNL     1     -11.616  17.225  68.101  1.00  0.00     0.000 HD 
BRANCH  22  25
HETATM   25  C   UNL     1      -9.527  17.230  67.737  1.00  0.00    -0.255 A  
HETATM   26  C   UNL     1      -8.953  16.372  66.786  1.00  0.00    -0.236 A  
HETATM   27  I   UNL     1      -9.546  14.358  66.495  1.00  0.00    -0.286 I  
HETATM   28  C   UNL     1      -7.809  16.755  66.081  1.00  0.00    -0.245 A  
HETATM   29  C   UNL     1      -7.171  17.972  66.357  1.00  0.00    -0.254 A  
HETATM   30  I   UNL     1      -5.394  18.288  65.256  1.00  0.00    -0.070 I  
HETATM   31  C   UNL     1      -7.679  18.837  67.342  1.00  0.00    -0.240 A  
HETATM   32  C   UNL     1      -6.955  20.086  67.723  1.00  0.00    -0.270 C  
HETATM   33  C   UNL     1      -8.865  18.456  68.025  1.00  0.00    -0.287 A  
HETATM   34  O   UNL     1      -6.738  20.404  68.879  1.00  0.00    -0.258 OA 
HETATM   35  I   UNL     1      -9.821  19.768  69.452  1.00  0.00     0.521 I  
HETATM   36  O   UNL     1      -6.589  20.870  66.687  1.00  0.00    -0.265 OA 
ENDBRANCH  22  25
ENDBRANCH  20  21
ENDBRANCH  19  20
ENDBRANCH  18  19
ENDBRANCH  17  18
ENDBRANCH  15  17
ENDBRANCH   7  13
TORSDOF 7
ENDMDL
MODEL       27
REMARK 921   NORMALIZED FREE ENERGY PREDICTED BY IDOCK:   -6.00 KCAL/MOL
REMARK 922        TOTAL FREE ENERGY PREDICTED BY IDOCK:   -9.37 KCAL/MOL
REMARK 923 INTER-LIGAND FREE ENERGY PREDICTED BY IDOCK:   -8.21 KCAL/MOL
REMARK 924 INTRA-LIGAND FREE ENERGY PREDICTED BY IDOCK:   -1.16 KCAL/MOL
REMARK 927      BINDING AFFINITY PREDICTED BY RF-SCORE:    0.00 PKD
ROOT
HETATM    1  O   UNL     1     -11.884   4.911  73.090  1.00  0.00    -0.279 OA 
HETATM    2  C   UNL     1     -10.780   5.618  72.761  1.00  0.00    -0.242 C  
HETATM    3  C   UNL     1     -10.057   5.114  71.563  1.00  0.00    -0.257 A  
HETATM    4  O   UNL     1     -10.448   6.617  73.374  1.00  0.00    -0.241 OA 
HETATM    5  C   UNL     1      -9.664   6.002  70.525  1.00  0.00    -0.174 A  
HETATM    6  I   UNL     1     -10.258   8.080  70.543  1.00  0.00    -0.232 I  
HETATM    7  C   UNL     1      -8.940   5.547  69.387  1.00  0.00    -0.106 A  
HETATM    8  I   UNL     1     -10.020   2.302  72.945  1.00  0.00    -0.233 I  
HETATM    9  C   UNL     1      -8.599   4.185  69.311  1.00  0.00    -0.078 A  
HETATM   10  C   UNL     1      -9.687   3.762  71.452  1.00  0.00    -0.172 A  
HETATM   11  C   UNL     1      -8.986   3.303  70.330  1.00  0.00    -0.170 A  
HETATM   12  I   UNL     1      -7.297   3.360  67.868  1.00  0.00    -0.053 I  
ENDROOT
BRANCH   7  13
HETATM   13  N   UNL     1      -8.522   6.504  68.414  1.00  0.00    -0.120 N  
HETATM   14  O   UNL     1      -6.447   6.966  69.346  1.00  0.00    -0.041 OA 
HETATM   15  C   UNL     1      -7.286   7.131  68.464  1.00  0.00    -0.094 C  
HETATM   16  H   UNL     1      -9.158   6.737  67.652  1.00  0.00     0.000 HD 
BRANCH  15  17
HETATM   17  C   UNL     1      -6.960   7.951  67.223  1.00  0.00    -0.074 C  
BRANCH  17  18
HETATM   18  C   UNL     1      -7.944   7.621  66.103  1.00  0.00    -0.110 C  
BRANCH  18  19
HETATM   19  C   UNL     1      -8.836   8.786  65.663  1.00  0.00    -0.239 C  
BRANCH  19  20
HETATM   20  C   UNL     1     -10.098   8.995  66.506  1.00  0.00    -0.354 C  
BRANCH  20  21
HETATM   21  C   UNL     1     -10.333  10.480  66.760  1.00  0.00    -0.245 C  
HETATM   22  N   UNL     1      -9.579  11.309  65.942  1.00  0.00    -0.213 N  
HETATM   23  O   UNL     1     -11.063  10.878  67.661  1.00  0.00    -0.273 OA 
HETATM   24  H   UNL     1      -8.949  10.893  65.257  1.00  0.00     0.000 HD 
BRANCH  22  25
HETATM   25  C   UNL     1      -9.664  12.730  66.037  1.00  0.00    -0.224 A  
HETATM   26  C   UNL     1      -8.899  13.466  66.955  1.00  0.00    -0.211 A  
HETATM   27  I   UNL     1      -7.777  12.598  68.529  1.00  0.00     0.037 I  
HETATM   28  C   UNL     1      -8.980  14.861  66.992  1.00  0.00    -0.256 A  
HETATM   29  C   UNL     1      -9.876  15.550  66.162  1.00  0.00    -0.316 A  
HETATM   30  I   UNL     1      -9.913  17.640  66.473  1.00  0.00    -0.313 I  
HETATM   31  C   UNL     1     -10.702  14.848  65.266  1.00  0.00    -0.409 A  
HETATM   32  C   UNL     1     -11.735  15.554  64.452  1.00  0.00    -0.242 C  
HETATM   33  C   UNL     1     -10.583  13.434  65.209  1.00  0.00    -0.325 A  
HETATM   34  O   UNL     1     -12.887  15.171  64.360  1.00  0.00    -0.420 OA 
HETATM   35  I   UNL     1     -11.692  12.262  63.771  1.00  0.00    -0.619 I  
HETATM   36  O   UNL     1     -11.288  16.637  63.781  1.00  0.00    -0.917 OA 
ENDBRANCH  22  25
ENDBRANCH  20  21
ENDBRANCH  19  20
ENDBRANCH  18  19
ENDBRANCH  17  18
ENDBRANCH  15  17
ENDBRANCH   7  13
TORSDOF 7
ENDMDL
MODEL       28
REMARK 921   NORMALIZED FREE ENERGY PREDICTED BY IDOCK:   -5.98 KCAL/MOL
REMARK 922        TOTAL FREE ENERGY PREDICTED BY IDOCK:   -9.35 KCAL/MOL
REMARK 923 INTER-LIGAND FREE ENERGY PREDICTED BY IDOCK:   -8.29 KCAL/MOL
REMARK 924 INTRA-LIGAND FREE ENERGY PREDICTED BY IDOCK:   -1.06 KCAL/MOL
REMARK 927      BINDING AFFINITY PREDICTED BY RF-SCORE:    0.00 PKD
ROOT
HETATM    1  O   UNL     1      -7.807   4.736  66.746  1.00  0.00    -0.097 OA 
HETATM    2  C   UNL     1      -9.039   5.290  66.705  1.00  0.00    -0.118 C  
HETATM    3  C   UNL     1      -9.618   5.609  68.038  1.00  0.00    -0.137 A  
HETATM    4  O   UNL     1      -9.594   5.550  65.653  1.00  0.00    -0.084 OA 
HETATM    5  C   UNL     1     -10.192   6.884  68.293  1.00  0.00    -0.180 A  
HETATM    6  I   UNL     1     -10.085   8.475  66.834  1.00  0.00    -0.322 I  
HETATM    7  C   UNL     1     -10.784   7.199  69.549  1.00  0.00    -0.239 A  
HETATM    8  I   UNL     1      -9.030   2.639  68.846  1.00  0.00    -0.220 I  
HETATM    9  C   UNL     1     -10.807   6.206  70.546  1.00  0.00    -0.300 A  
HETATM   10  C   UNL     1      -9.671   4.643  69.058  1.00  0.00    -0.172 A  
HETATM   11  C   UNL     1     -10.240   4.948  70.301  1.00  0.00    -0.299 A  
HETATM   12  I   UNL     1     -11.874   6.363  72.361  1.00  0.00     0.001 I  
ENDROOT
BRANCH   7  13
HETATM   13  N   UNL     1     -11.399   8.476  69.716  1.00  0.00    -0.448 N  
HETATM   14  O   UNL     1      -9.768   9.398  71.085  1.00  0.00    -0.270 OA 
HETATM   15  C   UNL     1     -10.824   9.491  70.465  1.00  0.00    -0.292 C  
HETATM   16  H   UNL     1     -12.297   8.649  69.265  1.00  0.00     0.000 HD 
BRANCH  15  17
HETATM   17  C   UNL     1     -11.539  10.830  70.339  1.00  0.00    -0.431 C  
BRANCH  17  18
HETATM   18  C   UNL     1     -11.671  11.217  68.868  1.00  0.00    -0.406 C  
BRANCH  18  19
HETATM   19  C   UNL     1     -10.818  12.414  68.436  1.00  0.00    -0.263 C  
BRANCH  19  20
HETATM   20  C   UNL     1      -9.331  12.110  68.222  1.00  0.00    -0.198 C  
BRANCH  20  21
HETATM   21  C   UNL     1      -8.535  13.403  68.079  1.00  0.00    -0.173 C  
HETATM   22  N   UNL     1      -8.775  14.317  69.095  1.00  0.00    -0.371 N  
HETATM   23  O   UNL     1      -7.821  13.622  67.107  1.00  0.00    -0.129 OA 
HETATM   24  H   UNL     1      -9.433  14.076  69.836  1.00  0.00     0.000 HD 
BRANCH  22  25
HETATM   25  C   UNL     1      -8.121  15.584  69.128  1.00  0.00    -0.244 A  
HETATM   26  C   UNL     1      -6.829  15.748  69.653  1.00  0.00    -0.169 A  
HETATM   27  I   UNL     1      -5.799  14.257  70.751  1.00  0.00    -0.094 I  
HETATM   28  C   UNL     1      -6.206  16.999  69.631  1.00  0.00    -0.232 A  
HETATM   29  C   UNL     1      -6.881  18.128  69.150  1.00  0.00    -0.232 A  
HETATM   30  I   UNL     1      -5.789  19.930  69.325  1.00  0.00    -0.360 I  
HETATM   31  C   UNL     1      -8.197  18.022  68.667  1.00  0.00    -0.287 A  
HETATM   32  C   UNL     1      -8.969  19.229  68.249  1.00  0.00    -0.335 C  
HETATM   33  C   UNL     1      -8.807  16.738  68.657  1.00  0.00    -0.255 A  
HETATM   34  O   UNL     1     -10.110  19.449  68.613  1.00  0.00    -0.410 OA 
HETATM   35  I   UNL     1     -10.768  16.424  67.803  1.00  0.00    -0.212 I  
HETATM   36  O   UNL     1      -8.321  20.052  67.396  1.00  0.00    -0.312 OA 
ENDBRANCH  22  25
ENDBRANCH  20  21
ENDBRANCH  19  20
ENDBRANCH  18  19
ENDBRANCH  17  18
ENDBRANCH  15  17
ENDBRANCH   7  13
TORSDOF 7
ENDMDL
MODEL       29
REMARK 921   NORMALIZED FREE ENERGY PREDICTED BY IDOCK:   -5.98 KCAL/MOL
REMARK 922        TOTAL FREE ENERGY PREDICTED BY IDOCK:   -9.35 KCAL/MOL
REMARK 923 INTER-LIGAND FREE ENERGY PREDICTED BY IDOCK:   -8.03 KCAL/MOL
REMARK 924 INTRA-LIGAND FREE ENERGY PREDICTED BY IDOCK:   -1.31 KCAL/MOL
REMARK 927      BINDING AFFINITY PREDICTED BY RF-SCORE:    0.00 PKD
ROOT
HETATM    1  O   UNL     1     -10.736   7.940  73.396  1.00  0.00    -0.282 OA 
HETATM    2  C   UNL     1      -9.580   7.932  72.697  1.00  0.00    -0.227 C  
HETATM    3  C   UNL     1      -9.558   6.988  71.547  1.00  0.00    -0.159 A  
HETATM    4  O   UNL     1      -8.659   8.683  72.965  1.00  0.00    -0.395 OA 
HETATM    5  C   UNL     1      -9.118   7.415  70.265  1.00  0.00    -0.151 A  
HETATM    6  I   UNL     1      -8.641   9.486  69.876  1.00  0.00    -0.252 I  
HETATM    7  C   UNL     1      -9.055   6.519  69.161  1.00  0.00    -0.136 A  
HETATM    8  I   UNL     1     -10.436   4.748  73.556  1.00  0.00    -0.383 I  
HETATM    9  C   UNL     1      -9.426   5.177  69.364  1.00  0.00    -0.140 A  
HETATM   10  C   UNL     1      -9.911   5.637  71.710  1.00  0.00    -0.176 A  
HETATM   11  C   UNL     1      -9.864   4.751  70.626  1.00  0.00    -0.292 A  
HETATM   12  I   UNL     1      -9.142   3.633  67.953  1.00  0.00    -0.233 I  
ENDROOT
BRANCH   7  13
HETATM   13  N   UNL     1      -8.542   6.998  67.918  1.00  0.00    -0.127 N  
HETATM   14  O   UNL     1     -10.571   7.100  66.796  1.00  0.00    -0.288 OA 
HETATM   15  C   UNL     1      -9.355   7.271  66.828  1.00  0.00    -0.163 C  
HETATM   16  H   UNL     1      -7.537   7.148  67.829  1.00  0.00     0.000 HD 
BRANCH  15  17
HETATM   17  C   UNL     1      -8.635   7.968  65.681  1.00  0.00    -0.167 C  
BRANCH  17  18
HETATM   18  C   UNL     1      -8.490   9.458  65.983  1.00  0.00    -0.132 C  
BRANCH  18  19
HETATM   19  C   UNL     1      -9.715  10.310  65.632  1.00  0.00    -0.308 C  
BRANCH  19  20
HETATM   20  C   UNL     1     -10.655  10.610  66.804  1.00  0.00    -0.297 C  
BRANCH  20  21
HETATM   21  C   UNL     1     -10.677  12.105  67.103  1.00  0.00    -0.232 C  
HETATM   22  N   UNL     1      -9.817  12.844  66.303  1.00  0.00    -0.270 N  
HETATM   23  O   UNL     1     -11.339  12.575  68.023  1.00  0.00    -0.248 OA 
HETATM   24  H   UNL     1      -9.256  12.364  65.600  1.00  0.00     0.000 HD 
BRANCH  22  25
HETATM   25  C   UNL     1      -9.701  14.259  66.440  1.00  0.00    -0.299 A  
HETATM   26  C   UNL     1     -10.587  15.148  65.810  1.00  0.00    -0.351 A  
HETATM   27  I   UNL     1     -11.993  14.572  64.334  1.00  0.00    -0.191 I  
HETATM   28  C   UNL     1     -10.466  16.528  66.001  1.00  0.00    -0.320 A  
HETATM   29  C   UNL     1      -9.418  17.056  66.766  1.00  0.00    -0.258 A  
HETATM   30  I   UNL     1      -9.363  19.169  66.817  1.00  0.00    -0.448 I  
HETATM   31  C   UNL     1      -8.474  16.206  67.368  1.00  0.00    -0.188 A  
HETATM   32  C   UNL     1      -7.293  16.754  68.098  1.00  0.00    -0.173 C  
HETATM   33  C   UNL     1      -8.630  14.804  67.201  1.00  0.00    -0.226 A  
HETATM   34  O   UNL     1      -6.155  16.357  67.918  1.00  0.00    -0.106 OA 
HETATM   35  I   UNL     1      -7.330  13.394  68.199  1.00  0.00    -0.173 I  
HETATM   36  O   UNL     1      -7.580  17.705  69.013  1.00  0.00    -0.245 OA 
ENDBRANCH  22  25
ENDBRANCH  20  21
ENDBRANCH  19  20
ENDBRANCH  18  19
ENDBRANCH  17  18
ENDBRANCH  15  17
ENDBRANCH   7  13
TORSDOF 7
ENDMDL
MODEL       30
REMARK 921   NORMALIZED FREE ENERGY PREDICTED BY IDOCK:   -5.98 KCAL/MOL
REMARK 922        TOTAL FREE ENERGY PREDICTED BY IDOCK:   -9.34 KCAL/MOL
REMARK 923 INTER-LIGAND FREE ENERGY PREDICTED BY IDOCK:   -7.57 KCAL/MOL
REMARK 924 INTRA-LIGAND FREE ENERGY PREDICTED BY IDOCK:   -1.77 KCAL/MOL
REMARK 927      BINDING AFFINITY PREDICTED BY RF-SCORE:    0.00 PKD
ROOT
HETATM    1  O   UNL     1     -11.331  16.443  70.688  1.00  0.00    -0.368 OA 
HETATM    2  C   UNL     1     -12.303  15.545  70.414  1.00  0.00    -0.413 C  
HETATM    3  C   UNL     1     -11.824  14.291  69.773  1.00  0.00    -0.380 A  
HETATM    4  O   UNL     1     -13.465  15.739  70.723  1.00  0.00    -0.520 OA 
HETATM    5  C   UNL     1     -12.233  13.022  70.265  1.00  0.00    -0.296 A  
HETATM    6  I   UNL     1     -13.408  12.845  72.070  1.00  0.00    -0.151 I  
HETATM    7  C   UNL     1     -11.816  11.811  69.645  1.00  0.00    -0.339 A  
HETATM    8  I   UNL     1     -10.416  16.094  67.631  1.00  0.00    -0.279 I  
HETATM    9  C   UNL     1     -10.991  11.890  68.507  1.00  0.00    -0.235 A  
HETATM   10  C   UNL     1     -11.008  14.326  68.629  1.00  0.00    -0.252 A  
HETATM   11  C   UNL     1     -10.582  13.139  68.019  1.00  0.00    -0.246 A  
HETATM   12  I   UNL     1     -10.493  10.247  67.278  1.00  0.00    -0.296 I  
ENDROOT
BRANCH   7  13
HETATM   13  N   UNL     1     -12.316  10.574  70.152  1.00  0.00    -0.451 N  
HETATM   14  O   UNL     1     -10.323   9.820  71.072  1.00  0.00    -0.273 OA 
HETATM   15  C   UNL     1     -11.523   9.676  70.849  1.00  0.00    -0.353 C  
HETATM   16  H   UNL     1     -13.297  10.342  69.996  1.00  0.00     0.000 HD 
BRANCH  15  17
HETATM   17  C   UNL     1     -12.299   8.527  71.479  1.00  0.00    -0.354 C  
BRANCH  17  18
HETATM   18  C   UNL     1     -11.542   7.984  72.689  1.00  0.00    -0.448 C  
BRANCH  18  19
HETATM   19  C   UNL     1     -10.591   6.821  72.388  1.00  0.00    -0.242 C  
BRANCH  19  20
HETATM   20  C   UNL     1      -9.124   7.070  72.753  1.00  0.00    -0.155 C  
BRANCH  20  21
HETATM   21  C   UNL     1      -8.236   6.938  71.520  1.00  0.00    -0.110 C  
HETATM   22  N   UNL     1      -8.793   7.485  70.373  1.00  0.00    -0.144 N  
HETATM   23  O   UNL     1      -7.171   6.330  71.548  1.00  0.00    -0.079 OA 
HETATM   24  H   UNL     1      -9.713   7.920  70.426  1.00  0.00     0.000 HD 
BRANCH  22  25
HETATM   25  C   UNL     1      -8.108   7.453  69.122  1.00  0.00    -0.120 A  
HETATM   26  C   UNL     1      -7.180   8.439  68.752  1.00  0.00    -0.079 A  
HETATM   27  I   UNL     1      -6.894  10.255  69.805  1.00  0.00    -0.155 I  
HETATM   28  C   UNL     1      -6.498   8.352  67.534  1.00  0.00    -0.058 A  
HETATM   29  C   UNL     1      -6.778   7.320  66.628  1.00  0.00    -0.061 A  
HETATM   30  I   UNL     1      -5.717   7.457  64.804  1.00  0.00    -0.038 I  
HETATM   31  C   UNL     1      -7.742   6.343  66.933  1.00  0.00    -0.100 A  
HETATM   32  C   UNL     1      -8.128   5.299  65.939  1.00  0.00    -0.110 C  
HETATM   33  C   UNL     1      -8.400   6.418  68.190  1.00  0.00    -0.116 A  
HETATM   34  O   UNL     1      -9.285   5.025  65.676  1.00  0.00    -0.153 OA 
HETATM   35  I   UNL     1      -9.790   4.893  68.833  1.00  0.00    -0.134 I  
HETATM   36  O   UNL     1      -7.093   4.642  65.373  1.00  0.00    -0.061 OA 
ENDBRANCH  22  25
ENDBRANCH  20  21
ENDBRANCH  19  20
ENDBRANCH  18  19
ENDBRANCH  17  18
ENDBRANCH  15  17
ENDBRANCH   7  13
TORSDOF 7
ENDMDL
MODEL       31
REMARK 921   NORMALIZED FREE ENERGY PREDICTED BY IDOCK:   -5.96 KCAL/MOL
REMARK 922        TOTAL FREE ENERGY PREDICTED BY IDOCK:   -9.32 KCAL/MOL
REMARK 923 INTER-LIGAND FREE ENERGY PREDICTED BY IDOCK:   -8.31 KCAL/MOL
REMARK 924 INTRA-LIGAND FREE ENERGY PREDICTED BY IDOCK:   -1.01 KCAL/MOL
REMARK 927      BINDING AFFINITY PREDICTED BY RF-SCORE:    0.00 PKD
ROOT
HETATM    1  O   UNL     1      -7.417   8.524  64.798  1.00  0.00    -0.088 OA 
HETATM    2  C   UNL     1      -7.327   9.684  65.484  1.00  0.00    -0.106 C  
HETATM    3  C   UNL     1      -8.580  10.485  65.515  1.00  0.00    -0.187 A  
HETATM    4  O   UNL     1      -6.310  10.009  66.071  1.00  0.00    -0.076 OA 
HETATM    5  C   UNL     1      -9.078  11.008  66.740  1.00  0.00    -0.162 A  
HETATM    6  I   UNL     1      -8.152  10.513  68.629  1.00  0.00    -0.151 I  
HETATM    7  C   UNL     1     -10.256  11.806  66.787  1.00  0.00    -0.211 A  
HETATM    8  I   UNL     1      -8.625  10.268  62.389  1.00  0.00    -0.353 I  
HETATM    9  C   UNL     1     -10.922  12.088  65.581  1.00  0.00    -0.297 A  
HETATM   10  C   UNL     1      -9.272  10.798  64.332  1.00  0.00    -0.221 A  
HETATM   11  C   UNL     1     -10.438  11.573  64.370  1.00  0.00    -0.380 A  
HETATM   12  I   UNL     1     -12.507  13.470  65.389  1.00  0.00    -0.428 I  
ENDROOT
BRANCH   7  13
HETATM   13  N   UNL     1     -10.663  12.352  68.041  1.00  0.00    -0.216 N  
HETATM   14  O   UNL     1     -12.401  10.868  68.444  1.00  0.00    -0.477 OA 
HETATM   15  C   UNL     1     -11.705  11.820  68.786  1.00  0.00    -0.329 C  
HETATM   16  H   UNL     1     -10.167  13.166  68.405  1.00  0.00     0.000 HD 
BRANCH  15  17
HETATM   17  C   UNL     1     -11.835  12.420  70.180  1.00  0.00    -0.341 C  
BRANCH  17  18
HETATM   18  C   UNL     1     -12.464  11.403  71.130  1.00  0.00    -0.465 C  
BRANCH  18  19
HETATM   19  C   UNL     1     -11.655  10.116  71.326  1.00  0.00    -0.387 C  
BRANCH  19  20
HETATM   20  C   UNL     1     -12.402   8.980  72.032  1.00  0.00    -0.455 C  
BRANCH  20  21
HETATM   21  C   UNL     1     -12.140   7.651  71.332  1.00  0.00    -0.316 C  
HETATM   22  N   UNL     1     -10.791   7.368  71.165  1.00  0.00    -0.239 N  
HETATM   23  O   UNL     1     -13.050   6.955  70.895  1.00  0.00    -0.215 OA 
HETATM   24  H   UNL     1     -10.098   8.033  71.506  1.00  0.00     0.000 HD 
BRANCH  22  25
HETATM   25  C   UNL     1     -10.353   6.169  70.528  1.00  0.00    -0.215 A  
HETATM   26  C   UNL     1     -10.142   6.091  69.142  1.00  0.00    -0.181 A  
HETATM   27  I   UNL     1     -10.737   7.589  67.767  1.00  0.00    -0.032 I  
HETATM   28  C   UNL     1      -9.674   4.910  68.559  1.00  0.00    -0.218 A  
HETATM   29  C   UNL     1      -9.472   3.759  69.334  1.00  0.00    -0.187 A  
HETATM   30  I   UNL     1      -8.878   2.061  68.223  1.00  0.00    -0.215 I  
HETATM   31  C   UNL     1      -9.725   3.776  70.716  1.00  0.00    -0.235 A  
HETATM   32  C   UNL     1      -9.617   2.534  71.538  1.00  0.00    -0.150 C  
HETATM   33  C   UNL     1     -10.163   4.993  71.305  1.00  0.00    -0.203 A  
HETATM   34  O   UNL     1     -10.474   2.181  72.327  1.00  0.00    -0.147 OA 
HETATM   35  I   UNL     1     -10.441   5.180  73.440  1.00  0.00    -0.375 I  
HETATM   36  O   UNL     1      -8.469   1.841  71.374  1.00  0.00    -0.049 OA 
ENDBRANCH  22  25
ENDBRANCH  20  21
ENDBRANCH  19  20
ENDBRANCH  18  19
ENDBRANCH  17  18
ENDBRANCH  15  17
ENDBRANCH   7  13
TORSDOF 7
ENDMDL
MODEL       32
REMARK 921   NORMALIZED FREE ENERGY PREDICTED BY IDOCK:   -5.93 KCAL/MOL
REMARK 922        TOTAL FREE ENERGY PREDICTED BY IDOCK:   -9.27 KCAL/MOL
REMARK 923 INTER-LIGAND FREE ENERGY PREDICTED BY IDOCK:   -8.53 KCAL/MOL
REMARK 924 INTRA-LIGAND FREE ENERGY PREDICTED BY IDOCK:   -0.74 KCAL/MOL
REMARK 927      BINDING AFFINITY PREDICTED BY RF-SCORE:    0.00 PKD
ROOT
HETATM    1  O   UNL     1      -6.278   6.414  67.811  1.00  0.00    -0.023 OA 
HETATM    2  C   UNL     1      -7.608   6.242  67.977  1.00  0.00    -0.102 C  
HETATM    3  C   UNL     1      -8.086   6.424  69.374  1.00  0.00    -0.118 A  
HETATM    4  O   UNL     1      -8.349   6.009  67.039  1.00  0.00    -0.106 OA 
HETATM    5  C   UNL     1      -9.212   7.245  69.654  1.00  0.00    -0.143 A  
HETATM    6  I   UNL     1     -10.164   8.411  68.103  1.00  0.00    -0.211 I  
HETATM    7  C   UNL     1      -9.708   7.405  70.979  1.00  0.00    -0.164 A  
HETATM    8  I   UNL     1      -5.903   4.349  70.240  1.00  0.00    -0.015 I  
HETATM    9  C   UNL     1      -9.067   6.713  72.023  1.00  0.00    -0.139 A  
HETATM   10  C   UNL     1      -7.480   5.744  70.445  1.00  0.00    -0.088 A  
HETATM   11  C   UNL     1      -7.954   5.905  71.753  1.00  0.00    -0.111 A  
HETATM   12  I   UNL     1      -9.803   6.584  73.998  1.00  0.00    -0.379 I  
ENDROOT
BRANCH   7  13
HETATM   13  N   UNL     1     -10.882   8.192  71.180  1.00  0.00    -0.228 N  
HETATM   14  O   UNL     1     -12.421   6.473  70.932  1.00  0.00    -0.241 OA 
HETATM   15  C   UNL     1     -12.158   7.652  71.157  1.00  0.00    -0.298 C  
HETATM   16  H   UNL     1     -10.777   9.193  71.347  1.00  0.00     0.000 HD 
BRANCH  15  17
HETATM   17  C   UNL     1     -13.246   8.621  71.600  1.00  0.00    -0.381 C  
BRANCH  17  18
HETATM   18  C   UNL     1     -12.617   9.863  72.228  1.00  0.00    -0.200 C  
BRANCH  18  19
HETATM   19  C   UNL     1     -12.862  11.168  71.464  1.00  0.00    -0.542 C  
BRANCH  19  20
HETATM   20  C   UNL     1     -11.967  11.381  70.238  1.00  0.00    -0.460 C  
BRANCH  20  21
HETATM   21  C   UNL     1     -11.988  12.844  69.807  1.00  0.00    -0.296 C  
HETATM   22  N   UNL     1     -10.724  13.387  69.624  1.00  0.00    -0.364 N  
HETATM   23  O   UNL     1     -13.033  13.480  69.717  1.00  0.00     0.235 OA 
HETATM   24  H   UNL     1      -9.904  12.802  69.780  1.00  0.00     0.000 HD 
BRANCH  22  25
HETATM   25  C   UNL     1     -10.546  14.744  69.223  1.00  0.00    -0.240 A  
HETATM   26  C   UNL     1     -10.713  15.816  70.113  1.00  0.00    -0.344 A  
HETATM   27  I   UNL     1     -11.555  15.629  72.049  1.00  0.00    -0.381 I  
HETATM   28  C   UNL     1     -10.491  17.131  69.694  1.00  0.00    -0.022 A  
HETATM   29  C   UNL     1     -10.164  17.412  68.360  1.00  0.00    -0.362 A  
HETATM   30  I   UNL     1      -9.992  19.474  67.927  1.00  0.00    -0.600 I  
HETATM   31  C   UNL     1     -10.042  16.373  67.420  1.00  0.00    -0.262 A  
HETATM   32  C   UNL     1      -9.799  16.661  65.976  1.00  0.00    -0.309 C  
HETATM   33  C   UNL     1     -10.231  15.038  67.867  1.00  0.00    -0.228 A  
HETATM   34  O   UNL     1     -10.438  16.144  65.077  1.00  0.00    -0.595 OA 
HETATM   35  I   UNL     1      -9.925  13.351  66.551  1.00  0.00    -0.297 I  
HETATM   36  O   UNL     1      -8.781  17.513  65.729  1.00  0.00    -0.514 OA 
ENDBRANCH  22  25
ENDBRANCH  20  21
ENDBRANCH  19  20
ENDBRANCH  18  19
ENDBRANCH  17  18
ENDBRANCH  15  17
ENDBRANCH   7  13
TORSDOF 7
ENDMDL
MODEL       33
REMARK 921   NORMALIZED FREE ENERGY PREDICTED BY IDOCK:   -5.90 KCAL/MOL
REMARK 922        TOTAL FREE ENERGY PREDICTED BY IDOCK:   -9.23 KCAL/MOL
REMARK 923 INTER-LIGAND FREE ENERGY PREDICTED BY IDOCK:   -8.40 KCAL/MOL
REMARK 924 INTRA-LIGAND FREE ENERGY PREDICTED BY IDOCK:   -0.83 KCAL/MOL
REMARK 927      BINDING AFFINITY PREDICTED BY RF-SCORE:    0.00 PKD
ROOT
HETATM    1  O   UNL     1      -7.595   2.226  72.873  1.00  0.00    -0.042 OA 
HETATM    2  C   UNL     1      -8.070   2.609  71.667  1.00  0.00    -0.056 C  
HETATM    3  C   UNL     1      -8.844   3.879  71.681  1.00  0.00    -0.142 A  
HETATM    4  O   UNL     1      -7.829   1.982  70.651  1.00  0.00    -0.042 OA 
HETATM    5  C   UNL     1      -8.572   4.905  70.736  1.00  0.00    -0.113 A  
HETATM    6  I   UNL     1      -6.910   4.755  69.364  1.00  0.00    -0.052 I  
HETATM    7  C   UNL     1      -9.324   6.114  70.709  1.00  0.00    -0.158 A  
HETATM    8  I   UNL     1     -10.589   2.623  73.961  1.00  0.00    -0.234 I  
HETATM    9  C   UNL     1     -10.370   6.273  71.637  1.00  0.00    -0.212 A  
HETATM   10  C   UNL     1      -9.904   4.074  72.584  1.00  0.00    -0.152 A  
HETATM   11  C   UNL     1     -10.641   5.265  72.573  1.00  0.00    -0.276 A  
HETATM   12  I   UNL     1     -11.779   7.845  71.589  1.00  0.00    -0.403 I  
ENDROOT
BRANCH   7  13
HETATM   13  N   UNL     1      -9.040   7.074  69.693  1.00  0.00    -0.144 N  
HETATM   14  O   UNL     1     -10.543   6.272  68.117  1.00  0.00    -0.199 OA 
HETATM   15  C   UNL     1      -9.694   7.086  68.470  1.00  0.00    -0.141 C  
HETATM   16  H   UNL     1      -8.327   7.781  69.873  1.00  0.00     0.000 HD 
BRANCH  15  17
HETATM   17  C   UNL     1      -9.391   8.313  67.620  1.00  0.00    -0.158 C  
BRANCH  17  18
HETATM   18  C   UNL     1     -10.660   8.791  66.919  1.00  0.00    -0.263 C  
BRANCH  18  19
HETATM   19  C   UNL     1     -10.785  10.312  66.775  1.00  0.00    -0.216 C  
BRANCH  19  20
HETATM   20  C   UNL     1     -11.440  11.026  67.962  1.00  0.00    -0.365 C  
BRANCH  20  21
HETATM   21  C   UNL     1     -10.787  12.384  68.196  1.00  0.00    -0.221 C  
HETATM   22  N   UNL     1     -11.654  13.454  68.021  1.00  0.00    -0.313 N  
HETATM   23  O   UNL     1      -9.590  12.497  68.436  1.00  0.00    -0.217 OA 
HETATM   24  H   UNL     1     -12.623  13.272  67.762  1.00  0.00     0.000 HD 
BRANCH  22  25
HETATM   25  C   UNL     1     -11.221  14.802  68.196  1.00  0.00    -0.294 A  
HETATM   26  C   UNL     1     -11.142  15.405  69.461  1.00  0.00    -0.284 A  
HETATM   27  I   UNL     1     -11.942  14.558  71.230  1.00  0.00    -0.174 I  
HETATM   28  C   UNL     1     -10.674  16.716  69.596  1.00  0.00    -0.286 A  
HETATM   29  C   UNL     1     -10.341  17.478  68.468  1.00  0.00    -0.380 A  
HETATM   30  I   UNL     1      -9.774  19.467  68.904  1.00  0.00    -0.226 I  
HETATM   31  C   UNL     1     -10.459  16.933  67.177  1.00  0.00    -0.296 A  
HETATM   32  C   UNL     1     -10.209  17.761  65.962  1.00  0.00    -0.293 C  
HETATM   33  C   UNL     1     -10.897  15.587  67.054  1.00  0.00    -0.314 A  
HETATM   34  O   UNL     1     -10.967  17.791  65.008  1.00  0.00    -0.784 OA 
HETATM   35  I   UNL     1     -10.976  14.594  65.136  1.00  0.00    -0.453 I  
HETATM   36  O   UNL     1      -9.050  18.454  65.972  1.00  0.00    -0.501 OA 
ENDBRANCH  22  25
ENDBRANCH  20  21
ENDBRANCH  19  20
ENDBRANCH  18  19
ENDBRANCH  17  18
ENDBRANCH  15  17
ENDBRANCH   7  13
TORSDOF 7
ENDMDL
MODEL       34
REMARK 921   NORMALIZED FREE ENERGY PREDICTED BY IDOCK:   -5.87 KCAL/MOL
REMARK 922        TOTAL FREE ENERGY PREDICTED BY IDOCK:   -9.19 KCAL/MOL
REMARK 923 INTER-LIGAND FREE ENERGY PREDICTED BY IDOCK:   -8.09 KCAL/MOL
REMARK 924 INTRA-LIGAND FREE ENERGY PREDICTED BY IDOCK:   -1.10 KCAL/MOL
REMARK 927      BINDING AFFINITY PREDICTED BY RF-SCORE:    0.00 PKD
ROOT
HETATM    1  O   UNL     1     -13.376   7.242  71.989  1.00  0.00    -0.233 OA 
HETATM    2  C   UNL     1     -12.334   8.098  71.908  1.00  0.00    -0.332 C  
HETATM    3  C   UNL     1     -11.194   7.610  71.087  1.00  0.00    -0.280 A  
HETATM    4  O   UNL     1     -12.364   9.199  72.428  1.00  0.00    -0.329 OA 
HETATM    5  C   UNL     1     -10.608   8.440  70.094  1.00  0.00    -0.233 A  
HETATM    6  I   UNL     1     -11.454  10.366  69.599  1.00  0.00    -0.294 I  
HETATM    7  C   UNL     1      -9.493   8.007  69.321  1.00  0.00    -0.155 A  
HETATM    8  I   UNL     1     -11.229   5.013  72.840  1.00  0.00    -0.193 I  
HETATM    9  C   UNL     1      -8.962   6.728  69.570  1.00  0.00    -0.139 A  
HETATM   10  C   UNL     1     -10.627   6.343  71.311  1.00  0.00    -0.230 A  
HETATM   11  C   UNL     1      -9.538   5.904  70.547  1.00  0.00    -0.208 A  
HETATM   12  I   UNL     1      -7.156   6.005  68.748  1.00  0.00    -0.087 I  
ENDROOT
BRANCH   7  13
HETATM   13  N   UNL     1      -8.913   8.915  68.386  1.00  0.00    -0.134 N  
HETATM   14  O   UNL     1      -9.859   7.997  66.476  1.00  0.00    -0.234 OA 
HETATM   15  C   UNL     1      -9.161   8.847  67.023  1.00  0.00    -0.135 C  
HETATM   16  H   UNL     1      -8.292   9.646  68.734  1.00  0.00     0.000 HD 
BRANCH  15  17
HETATM   17  C   UNL     1      -8.615  10.031  66.236  1.00  0.00    -0.137 C  
BRANCH  17  18
HETATM   18  C   UNL     1      -9.460  10.262  64.985  1.00  0.00    -0.314 C  
BRANCH  18  19
HETATM   19  C   UNL     1     -10.205  11.600  64.948  1.00  0.00    -0.315 C  
BRANCH  19  20
HETATM   20  C   UNL     1     -10.980  11.949  66.222  1.00  0.00    -0.345 C  
BRANCH  20  21
HETATM   21  C   UNL     1     -10.467  13.254  66.822  1.00  0.00    -0.270 C  
HETATM   22  N   UNL     1      -9.420  13.819  66.106  1.00  0.00    -0.471 N  
HETATM   23  O   UNL     1     -10.899  13.698  67.879  1.00  0.00    -0.243 OA 
HETATM   24  H   UNL     1      -9.081  13.350  65.267  1.00  0.00     0.000 HD 
BRANCH  22  25
HETATM   25  C   UNL     1      -8.809  15.041  66.517  1.00  0.00    -0.251 A  
HETATM   26  C   UNL     1      -7.630  15.069  67.278  1.00  0.00    -0.194 A  
HETATM   27  I   UNL     1      -6.771  13.364  68.197  1.00  0.00    -0.183 I  
HETATM   28  C   UNL     1      -7.038  16.286  67.628  1.00  0.00    -0.164 A  
HETATM   29  C   UNL     1      -7.645  17.503  67.287  1.00  0.00    -0.197 A  
HETATM   30  I   UNL     1      -6.637  19.210  68.023  1.00  0.00    -0.283 I  
HETATM   31  C   UNL     1      -8.857  17.521  66.574  1.00  0.00    -0.291 A  
HETATM   32  C   UNL     1      -9.571  18.801  66.295  1.00  0.00    -0.297 C  
HETATM   33  C   UNL     1      -9.429  16.279  66.189  1.00  0.00    -0.339 A  
HETATM   34  O   UNL     1     -10.762  18.958  66.495  1.00  0.00    -0.391 OA 
HETATM   35  I   UNL     1     -11.208  16.183  64.966  1.00  0.00     0.186 I  
HETATM   36  O   UNL     1      -8.804  19.775  65.758  1.00  0.00    -0.375 OA 
ENDBRANCH  22  25
ENDBRANCH  20  21
ENDBRANCH  19  20
ENDBRANCH  18  19
ENDBRANCH  17  18
ENDBRANCH  15  17
ENDBRANCH   7  13
TORSDOF 7
ENDMDL
MODEL       35
REMARK 921   NORMALIZED FREE ENERGY PREDICTED BY IDOCK:   -5.87 KCAL/MOL
REMARK 922        TOTAL FREE ENERGY PREDICTED BY IDOCK:   -9.19 KCAL/MOL
REMARK 923 INTER-LIGAND FREE ENERGY PREDICTED BY IDOCK:   -8.31 KCAL/MOL
REMARK 924 INTRA-LIGAND FREE ENERGY PREDICTED BY IDOCK:   -0.88 KCAL/MOL
REMARK 927      BINDING AFFINITY PREDICTED BY RF-SCORE:    0.00 PKD
ROOT
HETATM    1  O   UNL     1     -11.374  16.463  70.691  1.00  0.00    -0.368 OA 
HETATM    2  C   UNL     1     -12.341  15.556  70.430  1.00  0.00    -0.413 C  
HETATM    3  C   UNL     1     -11.865  14.321  69.750  1.00  0.00    -0.380 A  
HETATM    4  O   UNL     1     -13.496  15.727  70.777  1.00  0.00    -0.520 OA 
HETATM    5  C   UNL     1     -12.241  13.037  70.231  1.00  0.00    -0.296 A  
HETATM    6  I   UNL     1     -13.359  12.810  72.066  1.00  0.00    -0.059 I  
HETATM    7  C   UNL     1     -11.826  11.844  69.575  1.00  0.00    -0.331 A  
HETATM    8  I   UNL     1     -10.546  16.183  67.602  1.00  0.00    -0.263 I  
HETATM    9  C   UNL     1     -11.038  11.955  68.416  1.00  0.00    -0.244 A  
HETATM   10  C   UNL     1     -11.084  14.388  68.583  1.00  0.00    -0.251 A  
HETATM   11  C   UNL     1     -10.661  13.219  67.939  1.00  0.00    -0.246 A  
HETATM   12  I   UNL     1     -10.555  10.343  67.141  1.00  0.00    -0.248 I  
ENDROOT
BRANCH   7  13
HETATM   13  N   UNL     1     -12.294  10.591  70.074  1.00  0.00    -0.481 N  
HETATM   14  O   UNL     1     -10.272   9.864  70.951  1.00  0.00    -0.210 OA 
HETATM   15  C   UNL     1     -11.472   9.699  70.746  1.00  0.00    -0.328 C  
HETATM   16  H   UNL     1     -13.272  10.342  69.931  1.00  0.00     0.000 HD 
BRANCH  15  17
HETATM   17  C   UNL     1     -12.216   8.527  71.373  1.00  0.00    -0.343 C  
BRANCH  17  18
HETATM   18  C   UNL     1     -11.398   7.943  72.523  1.00  0.00    -0.449 C  
BRANCH  18  19
HETATM   19  C   UNL     1     -11.161   6.431  72.444  1.00  0.00    -0.313 C  
BRANCH  19  20
HETATM   20  C   UNL     1      -9.716   5.985  72.689  1.00  0.00    -0.166 C  
BRANCH  20  21
HETATM   21  C   UNL     1      -9.132   5.348  71.433  1.00  0.00    -0.145 C  
HETATM   22  N   UNL     1     -10.046   4.584  70.722  1.00  0.00    -0.198 N  
HETATM   23  O   UNL     1      -7.945   5.449  71.145  1.00  0.00    -0.104 OA 
HETATM   24  H   UNL     1     -11.002   4.503  71.067  1.00  0.00     0.000 HD 
BRANCH  22  25
HETATM   25  C   UNL     1      -9.680   3.908  69.520  1.00  0.00    -0.121 A  
HETATM   26  C   UNL     1      -9.251   2.572  69.513  1.00  0.00    -0.123 A  
HETATM   27  I   UNL     1      -8.772   1.471  71.259  1.00  0.00    -0.119 I  
HETATM   28  C   UNL     1      -8.939   1.931  68.310  1.00  0.00    -0.177 A  
HETATM   29  C   UNL     1      -8.980   2.628  67.095  1.00  0.00    -0.154 A  
HETATM   30  I   UNL     1      -8.353   1.494  65.424  1.00  0.00    -0.098 I  
HETATM   31  C   UNL     1      -9.349   3.984  67.061  1.00  0.00    -0.204 A  
HETATM   32  C   UNL     1      -9.297   4.770  65.794  1.00  0.00    -0.161 C  
HETATM   33  C   UNL     1      -9.703   4.615  68.285  1.00  0.00    -0.131 A  
HETATM   34  O   UNL     1      -8.779   5.869  65.712  1.00  0.00    -0.147 OA 
HETATM   35  I   UNL     1     -10.428   6.650  68.341  1.00  0.00    -0.340 I  
HETATM   36  O   UNL     1      -9.906   4.189  64.738  1.00  0.00    -0.178 OA 
ENDBRANCH  22  25
ENDBRANCH  20  21
ENDBRANCH  19  20
ENDBRANCH  18  19
ENDBRANCH  17  18
ENDBRANCH  15  17
ENDBRANCH   7  13
TORSDOF 7
ENDMDL
MODEL       36
REMARK 921   NORMALIZED FREE ENERGY PREDICTED BY IDOCK:   -5.82 KCAL/MOL
REMARK 922        TOTAL FREE ENERGY PREDICTED BY IDOCK:   -9.13 KCAL/MOL
REMARK 923 INTER-LIGAND FREE ENERGY PREDICTED BY IDOCK:   -8.14 KCAL/MOL
REMARK 924 INTRA-LIGAND FREE ENERGY PREDICTED BY IDOCK:   -0.98 KCAL/MOL
REMARK 927      BINDING AFFINITY PREDICTED BY RF-SCORE:    0.00 PKD
ROOT
HETATM    1  O   UNL     1      -7.191  18.661  67.333  1.00  0.00    -0.206 OA 
HETATM    2  C   UNL     1      -7.749  17.599  67.954  1.00  0.00    -0.216 C  
HETATM    3  C   UNL     1      -8.687  16.811  67.110  1.00  0.00    -0.218 A  
HETATM    4  O   UNL     1      -7.456  17.293  69.096  1.00  0.00    -0.226 OA 
HETATM    5  C   UNL     1      -8.584  15.395  67.038  1.00  0.00    -0.234 A  
HETATM    6  I   UNL     1      -6.958  14.339  67.992  1.00  0.00    -0.209 I  
HETATM    7  C   UNL     1      -9.494  14.619  66.265  1.00  0.00    -0.293 A  
HETATM    8  I   UNL     1     -10.177  19.501  66.507  1.00  0.00    -0.682 I  
HETATM    9  C   UNL     1     -10.523  15.284  65.575  1.00  0.00    -0.374 A  
HETATM   10  C   UNL     1      -9.736  17.435  66.412  1.00  0.00    -0.290 A  
HETATM   11  C   UNL     1     -10.628  16.680  65.639  1.00  0.00    -0.282 A  
HETATM   12  I   UNL     1     -12.132  14.315  64.610  1.00  0.00    -0.380 I  
ENDROOT
BRANCH   7  13
HETATM   13  N   UNL     1      -9.372  13.197  66.290  1.00  0.00    -0.434 N  
HETATM   14  O   UNL     1     -10.819  12.821  68.064  1.00  0.00    -0.220 OA 
HETATM   15  C   UNL     1     -10.068  12.402  67.188  1.00  0.00    -0.213 C  
HETATM   16  H   UNL     1      -8.749  12.748  65.619  1.00  0.00     0.000 HD 
BRANCH  15  17
HETATM   17  C   UNL     1      -9.956  10.909  66.905  1.00  0.00    -0.232 C  
BRANCH  17  18
HETATM   18  C   UNL     1      -8.507  10.454  67.068  1.00  0.00    -0.127 C  
BRANCH  18  19
HETATM   19  C   UNL     1      -8.287   8.943  66.936  1.00  0.00    -0.112 C  
BRANCH  19  20
HETATM   20  C   UNL     1      -9.503   8.148  66.451  1.00  0.00    -0.285 C  
BRANCH  20  21
HETATM   21  C   UNL     1     -10.053   7.272  67.571  1.00  0.00    -0.193 C  
HETATM   22  N   UNL     1      -9.152   7.065  68.606  1.00  0.00    -0.133 N  
HETATM   23  O   UNL     1     -11.158   6.746  67.502  1.00  0.00    -0.301 OA 
HETATM   24  H   UNL     1      -8.228   7.492  68.554  1.00  0.00     0.000 HD 
BRANCH  22  25
HETATM   25  C   UNL     1      -9.489   6.269  69.741  1.00  0.00    -0.151 A  
HETATM   26  C   UNL     1     -10.090   6.814  70.886  1.00  0.00    -0.190 A  
HETATM   27  I   UNL     1     -10.287   8.892  71.247  1.00  0.00    -0.413 I  
HETATM   28  C   UNL     1     -10.442   5.995  71.963  1.00  0.00    -0.251 A  
HETATM   29  C   UNL     1     -10.141   4.626  71.951  1.00  0.00    -0.198 A  
HETATM   30  I   UNL     1     -10.657   3.610  73.732  1.00  0.00    -0.322 I  
HETATM   31  C   UNL     1      -9.488   4.048  70.848  1.00  0.00    -0.237 A  
HETATM   32  C   UNL     1      -9.065   2.617  70.862  1.00  0.00    -0.113 C  
HETATM   33  C   UNL     1      -9.170   4.882  69.743  1.00  0.00    -0.121 A  
HETATM   34  O   UNL     1      -7.952   2.247  70.533  1.00  0.00    -0.042 OA 
HETATM   35  I   UNL     1      -8.302   4.080  67.933  1.00  0.00    -0.114 I  
HETATM   36  O   UNL     1     -10.026   1.743  71.230  1.00  0.00    -0.129 OA 
ENDBRANCH  22  25
ENDBRANCH  20  21
ENDBRANCH  19  20
ENDBRANCH  18  19
ENDBRANCH  17  18
ENDBRANCH  15  17
ENDBRANCH   7  13
TORSDOF 7
ENDMDL
MODEL       37
REMARK 921   NORMALIZED FREE ENERGY PREDICTED BY IDOCK:   -5.77 KCAL/MOL
REMARK 922        TOTAL FREE ENERGY PREDICTED BY IDOCK:   -9.05 KCAL/MOL
REMARK 923 INTER-LIGAND FREE ENERGY PREDICTED BY IDOCK:   -7.71 KCAL/MOL
REMARK 924 INTRA-LIGAND FREE ENERGY PREDICTED BY IDOCK:   -1.35 KCAL/MOL
REMARK 927      BINDING AFFINITY PREDICTED BY RF-SCORE:    0.00 PKD
ROOT
HETATM    1  O   UNL     1      -7.808   3.909  71.277  1.00  0.00    -0.058 OA 
HETATM    2  C   UNL     1      -8.717   4.909  71.277  1.00  0.00    -0.128 C  
HETATM    3  C   UNL     1      -8.217   6.201  70.735  1.00  0.00    -0.125 A  
HETATM    4  O   UNL     1      -9.866   4.736  71.644  1.00  0.00    -0.168 OA 
HETATM    5  C   UNL     1      -8.967   6.921  69.766  1.00  0.00    -0.141 A  
HETATM    6  I   UNL     1     -10.764   6.094  68.898  1.00  0.00    -0.389 I  
HETATM    7  C   UNL     1      -8.524   8.176  69.261  1.00  0.00    -0.134 A  
HETATM    8  I   UNL     1      -5.837   5.963  72.760  1.00  0.00    -0.038 I  
HETATM    9  C   UNL     1      -7.320   8.710  69.755  1.00  0.00    -0.052 A  
HETATM   10  C   UNL     1      -7.024   6.774  71.209  1.00  0.00    -0.074 A  
HETATM   11  C   UNL     1      -6.574   8.003  70.708  1.00  0.00    -0.037 A  
HETATM   12  I   UNL     1      -6.630  10.666  69.358  1.00  0.00    -0.118 I  
ENDROOT
BRANCH   7  13
HETATM   13  N   UNL     1      -9.358   8.876  68.338  1.00  0.00    -0.136 N  
HETATM   14  O   UNL     1      -8.218   8.268  66.410  1.00  0.00    -0.102 OA 
HETATM   15  C   UNL     1      -9.145   8.850  66.968  1.00  0.00    -0.135 C  
HETATM   16  H   UNL     1     -10.143   9.416  68.701  1.00  0.00     0.000 HD 
BRANCH  15  17
HETATM   17  C   UNL     1     -10.267   9.485  66.157  1.00  0.00    -0.272 C  
BRANCH  17  18
HETATM   18  C   UNL     1      -9.701  10.568  65.241  1.00  0.00    -0.328 C  
BRANCH  18  19
HETATM   19  C   UNL     1      -9.471  11.926  65.913  1.00  0.00    -0.227 C  
BRANCH  19  20
HETATM   20  C   UNL     1     -10.398  13.051  65.440  1.00  0.00    -0.313 C  
BRANCH  20  21
HETATM   21  C   UNL     1     -11.158  13.649  66.619  1.00  0.00    -0.306 C  
HETATM   22  N   UNL     1     -10.488  13.532  67.829  1.00  0.00    -0.237 N  
HETATM   23  O   UNL     1     -12.287  14.112  66.498  1.00  0.00    -0.460 OA 
HETATM   24  H   UNL     1      -9.575  13.077  67.850  1.00  0.00     0.000 HD 
BRANCH  22  25
HETATM   25  C   UNL     1     -11.045  14.032  69.043  1.00  0.00    -0.264 A  
HETATM   26  C   UNL     1     -10.832  15.349  69.478  1.00  0.00    -0.267 A  
HETATM   27  I   UNL     1      -9.423  16.672  68.608  1.00  0.00    -0.243 I  
HETATM   28  C   UNL     1     -11.428  15.816  70.653  1.00  0.00    -0.415 A  
HETATM   29  C   UNL     1     -12.192  14.960  71.458  1.00  0.00    -0.343 A  
HETATM   30  I   UNL     1     -12.894  15.847  73.244  1.00  0.00    -0.684 I  
HETATM   31  C   UNL     1     -12.385  13.617  71.090  1.00  0.00    -0.403 A  
HETATM   32  C   UNL     1     -13.106  12.665  71.985  1.00  0.00    -0.366 C  
HETATM   33  C   UNL     1     -11.808  13.164  69.873  1.00  0.00    -0.308 A  
HETATM   34  O   UNL     1     -12.681  11.558  72.262  1.00  0.00    -0.023 OA 
HETATM   35  I   UNL     1     -12.158  11.165  69.130  1.00  0.00     0.110 I  
HETATM   36  O   UNL     1     -14.299  13.105  72.441  1.00  0.00    -0.523 OA 
ENDBRANCH  22  25
ENDBRANCH  20  21
ENDBRANCH  19  20
ENDBRANCH  18  19
ENDBRANCH  17  18
ENDBRANCH  15  17
ENDBRANCH   7  13
TORSDOF 7
ENDMDL
MODEL       38
REMARK 921   NORMALIZED FREE ENERGY PREDICTED BY IDOCK:   -5.77 KCAL/MOL
REMARK 922        TOTAL FREE ENERGY PREDICTED BY IDOCK:   -9.05 KCAL/MOL
REMARK 923 INTER-LIGAND FREE ENERGY PREDICTED BY IDOCK:   -8.17 KCAL/MOL
REMARK 924 INTRA-LIGAND FREE ENERGY PREDICTED BY IDOCK:   -0.88 KCAL/MOL
REMARK 927      BINDING AFFINITY PREDICTED BY RF-SCORE:    0.00 PKD
ROOT
HETATM    1  O   UNL     1     -11.907   5.004  73.123  1.00  0.00    -0.279 OA 
HETATM    2  C   UNL     1     -10.941   5.855  72.714  1.00  0.00    -0.265 C  
HETATM    3  C   UNL     1     -10.350   5.530  71.388  1.00  0.00    -0.291 A  
HETATM    4  O   UNL     1     -10.627   6.836  73.365  1.00  0.00    -0.279 OA 
HETATM    5  C   UNL     1     -10.205   6.534  70.392  1.00  0.00    -0.193 A  
HETATM    6  I   UNL     1     -11.000   8.523  70.681  1.00  0.00    -0.274 I  
HETATM    7  C   UNL     1      -9.610   6.253  69.130  1.00  0.00    -0.135 A  
HETATM    8  I   UNL     1      -9.825   2.644  72.489  1.00  0.00    -0.236 I  
HETATM    9  C   UNL     1      -9.145   4.949  68.884  1.00  0.00    -0.112 A  
HETATM   10  C   UNL     1      -9.864   4.242  71.105  1.00  0.00    -0.180 A  
HETATM   11  C   UNL     1      -9.288   3.953  69.861  1.00  0.00    -0.245 A  
HETATM   12  I   UNL     1      -7.988   4.390  67.208  1.00  0.00    -0.100 I  
ENDROOT
BRANCH   7  13
HETATM   13  N   UNL     1      -9.438   7.323  68.201  1.00  0.00    -0.134 N  
HETATM   14  O   UNL     1     -11.248   6.812  66.842  1.00  0.00    -0.375 OA 
HETATM   15  C   UNL     1     -10.292   7.529  67.129  1.00  0.00    -0.313 C  
HETATM   16  H   UNL     1      -8.654   7.963  68.332  1.00  0.00     0.000 HD 
BRANCH  15  17
HETATM   17  C   UNL     1     -10.053   8.839  66.391  1.00  0.00    -0.313 C  
BRANCH  17  18
HETATM   18  C   UNL     1      -8.614   9.305  66.606  1.00  0.00    -0.135 C  
BRANCH  18  19
HETATM   19  C   UNL     1      -8.459  10.797  66.920  1.00  0.00    -0.131 C  
BRANCH  19  20
HETATM   20  C   UNL     1      -9.772  11.561  67.114  1.00  0.00    -0.199 C  
BRANCH  20  21
HETATM   21  C   UNL     1      -9.499  12.980  67.601  1.00  0.00    -0.201 C  
HETATM   22  N   UNL     1      -8.513  13.636  66.877  1.00  0.00    -0.411 N  
HETATM   23  O   UNL     1     -10.054  13.446  68.590  1.00  0.00    -0.225 OA 
HETATM   24  H   UNL     1      -8.059  13.151  66.103  1.00  0.00     0.000 HD 
BRANCH  22  25
HETATM   25  C   UNL     1      -8.121  14.971  67.189  1.00  0.00    -0.214 A  
HETATM   26  C   UNL     1      -7.030  15.254  68.026  1.00  0.00    -0.133 A  
HETATM   27  I   UNL     1      -6.023  13.802  69.194  1.00  0.00    -0.105 I  
HETATM   28  C   UNL     1      -6.650  16.576  68.276  1.00  0.00    -0.138 A  
HETATM   29  C   UNL     1      -7.391  17.646  67.755  1.00  0.00    -0.189 A  
HETATM   30  I   UNL     1      -6.705  19.552  68.362  1.00  0.00    -0.349 I  
HETATM   31  C   UNL     1      -8.525  17.409  66.959  1.00  0.00    -0.245 A  
HETATM   32  C   UNL     1      -9.386  18.531  66.483  1.00  0.00    -0.313 C  
HETATM   33  C   UNL     1      -8.878  16.061  66.677  1.00  0.00    -0.272 A  
HETATM   34  O   UNL     1     -10.600  18.526  66.577  1.00  0.00    -0.392 OA 
HETATM   35  I   UNL     1     -10.509  15.574  65.346  1.00  0.00    -0.378 I  
HETATM   36  O   UNL     1      -8.721  19.550  65.896  1.00  0.00    -0.417 OA 
ENDBRANCH  22  25
ENDBRANCH  20  21
ENDBRANCH  19  20
ENDBRANCH  18  19
ENDBRANCH  17  18
ENDBRANCH  15  17
ENDBRANCH   7  13
TORSDOF 7
ENDMDL
MODEL       39
REMARK 921   NORMALIZED FREE ENERGY PREDICTED BY IDOCK:   -5.76 KCAL/MOL
REMARK 922        TOTAL FREE ENERGY PREDICTED BY IDOCK:   -9.04 KCAL/MOL
REMARK 923 INTER-LIGAND FREE ENERGY PREDICTED BY IDOCK:   -8.20 KCAL/MOL
REMARK 924 INTRA-LIGAND FREE ENERGY PREDICTED BY IDOCK:   -0.84 KCAL/MOL
REMARK 927      BINDING AFFINITY PREDICTED BY RF-SCORE:    0.00 PKD
ROOT
HETATM    1  O   UNL     1      -5.167   2.731  69.395  1.00  0.00    -0.010 OA 
HETATM    2  C   UNL     1      -6.456   3.129  69.323  1.00  0.00    -0.029 C  
HETATM    3  C   UNL     1      -6.805   4.264  70.220  1.00  0.00    -0.034 A  
HETATM    4  O   UNL     1      -7.244   2.626  68.542  1.00  0.00    -0.047 OA 
HETATM    5  C   UNL     1      -7.516   5.389  69.724  1.00  0.00    -0.066 A  
HETATM    6  I   UNL     1      -7.961   5.597  67.620  1.00  0.00    -0.100 I  
HETATM    7  C   UNL     1      -7.891   6.469  70.573  1.00  0.00    -0.106 A  
HETATM    8  I   UNL     1      -5.592   2.586  72.573  1.00  0.00    -0.009 I  
HETATM    9  C   UNL     1      -7.555   6.397  71.937  1.00  0.00    -0.095 A  
HETATM   10  C   UNL     1      -6.496   4.227  71.591  1.00  0.00    -0.019 A  
HETATM   11  C   UNL     1      -6.850   5.290  72.432  1.00  0.00    -0.078 A  
HETATM   12  I   UNL     1      -8.252   7.738  73.412  1.00  0.00    -0.295 I  
ENDROOT
BRANCH   7  13
HETATM   13  N   UNL     1      -8.661   7.538  70.023  1.00  0.00    -0.138 N  
HETATM   14  O   UNL     1     -10.747   6.729  70.639  1.00  0.00    -0.221 OA 
HETATM   15  C   UNL     1     -10.043   7.590  70.118  1.00  0.00    -0.195 C  
HETATM   16  H   UNL     1      -8.174   8.293  69.541  1.00  0.00     0.000 HD 
BRANCH  15  17
HETATM   17  C   UNL     1     -10.643   8.910  69.652  1.00  0.00    -0.230 C  
BRANCH  17  18
HETATM   18  C   UNL     1     -11.309   9.626  70.825  1.00  0.00    -0.409 C  
BRANCH  18  19
HETATM   19  C   UNL     1     -12.258  10.763  70.434  1.00  0.00    -0.437 C  
BRANCH  19  20
HETATM   20  C   UNL     1     -12.133  11.245  68.985  1.00  0.00    -0.325 C  
BRANCH  20  21
HETATM   21  C   UNL     1     -11.299  12.521  68.916  1.00  0.00    -0.297 C  
HETATM   22  N   UNL     1     -12.046  13.657  68.641  1.00  0.00    -0.360 N  
HETATM   23  O   UNL     1     -10.077  12.505  69.016  1.00  0.00    -0.016 OA 
HETATM   24  H   UNL     1     -13.054  13.571  68.512  1.00  0.00     0.000 HD 
BRANCH  22  25
HETATM   25  C   UNL     1     -11.437  14.943  68.536  1.00  0.00    -0.315 A  
HETATM   26  C   UNL     1     -11.218  15.762  69.655  1.00  0.00    -0.319 A  
HETATM   27  I   UNL     1     -12.027  15.385  71.576  1.00  0.00    -0.627 I  
HETATM   28  C   UNL     1     -10.582  16.999  69.517  1.00  0.00    -0.168 A  
HETATM   29  C   UNL     1     -10.213  17.479  68.253  1.00  0.00    -0.365 A  
HETATM   30  I   UNL     1      -9.377  19.421  68.274  1.00  0.00    -0.463 I  
HETATM   31  C   UNL     1     -10.465  16.717  67.098  1.00  0.00    -0.299 A  
HETATM   32  C   UNL     1     -10.175  17.256  65.737  1.00  0.00    -0.198 C  
HETATM   33  C   UNL     1     -11.076  15.444  67.254  1.00  0.00    -0.302 A  
HETATM   34  O   UNL     1     -10.971  17.204  64.817  1.00  0.00    -0.898 OA 
HETATM   35  I   UNL     1     -11.378  14.121  65.572  1.00  0.00    -0.367 I  
HETATM   36  O   UNL     1      -8.938  17.776  65.582  1.00  0.00    -0.365 OA 
ENDBRANCH  22  25
ENDBRANCH  20  21
ENDBRANCH  19  20
ENDBRANCH  18  19
ENDBRANCH  17  18
ENDBRANCH  15  17
ENDBRANCH   7  13
TORSDOF 7
ENDMDL
MODEL       40
REMARK 921   NORMALIZED FREE ENERGY PREDICTED BY IDOCK:   -5.75 KCAL/MOL
REMARK 922        TOTAL FREE ENERGY PREDICTED BY IDOCK:   -9.02 KCAL/MOL
REMARK 923 INTER-LIGAND FREE ENERGY PREDICTED BY IDOCK:   -8.16 KCAL/MOL
REMARK 924 INTRA-LIGAND FREE ENERGY PREDICTED BY IDOCK:   -0.86 KCAL/MOL
REMARK 927      BINDING AFFINITY PREDICTED BY RF-SCORE:    0.00 PKD
ROOT
HETATM    1  O   UNL     1      -9.801  18.810  65.788  1.00  0.00    -0.464 OA 
HETATM    2  C   UNL     1      -9.365  17.565  66.081  1.00  0.00    -0.143 C  
HETATM    3  C   UNL     1     -10.130  16.878  67.155  1.00  0.00    -0.287 A  
HETATM    4  O   UNL     1      -8.451  17.042  65.469  1.00  0.00    -0.256 OA 
HETATM    5  C   UNL     1     -10.595  15.546  66.977  1.00  0.00    -0.311 A  
HETATM    6  I   UNL     1     -10.379  14.527  65.084  1.00  0.00    -0.252 I  
HETATM    7  C   UNL     1     -11.298  14.857  68.006  1.00  0.00    -0.324 A  
HETATM    8  I   UNL     1      -9.622  19.405  68.937  1.00  0.00    -0.247 I  
HETATM    9  C   UNL     1     -11.517  15.519  69.227  1.00  0.00    -0.340 A  
HETATM   10  C   UNL     1     -10.362  17.499  68.395  1.00  0.00    -0.378 A  
HETATM   11  C   UNL     1     -11.064  16.833  69.408  1.00  0.00    -0.083 A  
HETATM   12  I   UNL     1     -12.278  14.594  70.966  1.00  0.00    -0.466 I  
ENDROOT
BRANCH   7  13
HETATM   13  N   UNL     1     -11.679  13.500  67.783  1.00  0.00    -0.338 N  
HETATM   14  O   UNL     1      -9.748  12.524  68.622  1.00  0.00    -0.163 OA 
HETATM   15  C   UNL     1     -10.869  12.429  68.130  1.00  0.00    -0.221 C  
HETATM   16  H   UNL     1     -12.583  13.309  67.352  1.00  0.00     0.000 HD 
BRANCH  15  17
HETATM   17  C   UNL     1     -11.551  11.073  68.001  1.00  0.00    -0.326 C  
BRANCH  17  18
HETATM   18  C   UNL     1     -11.017  10.334  66.775  1.00  0.00    -0.082 C  
BRANCH  18  19
HETATM   19  C   UNL     1      -9.749   9.510  67.020  1.00  0.00    -0.229 C  
BRANCH  19  20
HETATM   20  C   UNL     1      -9.798   8.070  66.500  1.00  0.00    -0.289 C  
BRANCH  20  21
HETATM   21  C   UNL     1     -10.263   7.120  67.599  1.00  0.00    -0.198 C  
HETATM   22  N   UNL     1      -9.404   7.070  68.688  1.00  0.00    -0.137 N  
HETATM   23  O   UNL     1     -11.260   6.418  67.473  1.00  0.00    -0.347 OA 
HETATM   24  H   UNL     1      -8.562   7.644  68.684  1.00  0.00     0.000 HD 
BRANCH  22  25
HETATM   25  C   UNL     1      -9.673   6.234  69.812  1.00  0.00    -0.160 A  
HETATM   26  C   UNL     1     -10.341   6.705  70.953  1.00  0.00    -0.208 A  
HETATM   27  I   UNL     1     -10.753   8.750  71.326  1.00  0.00    -0.429 I  
HETATM   28  C   UNL     1     -10.622   5.846  72.019  1.00  0.00    -0.268 A  
HETATM   29  C   UNL     1     -10.182   4.515  72.002  1.00  0.00    -0.181 A  
HETATM   30  I   UNL     1     -10.616   3.437  73.768  1.00  0.00    -0.314 I  
HETATM   31  C   UNL     1      -9.460   4.015  70.904  1.00  0.00    -0.237 A  
HETATM   32  C   UNL     1      -8.894   2.634  70.913  1.00  0.00    -0.082 C  
HETATM   33  C   UNL     1      -9.215   4.887  69.809  1.00  0.00    -0.121 A  
HETATM   34  O   UNL     1      -7.746   2.383  70.597  1.00  0.00    -0.042 OA 
HETATM   35  I   UNL     1      -8.247   4.192  68.006  1.00  0.00    -0.106 I  
HETATM   36  O   UNL     1      -9.766   1.664  71.262  1.00  0.00    -0.129 OA 
ENDBRANCH  22  25
ENDBRANCH  20  21
ENDBRANCH  19  20
ENDBRANCH  18  19
ENDBRANCH  17  18
ENDBRANCH  15  17
ENDBRANCH   7  13
TORSDOF 7
ENDMDL
MODEL       41
REMARK 921   NORMALIZED FREE ENERGY PREDICTED BY IDOCK:   -5.69 KCAL/MOL
REMARK 922        TOTAL FREE ENERGY PREDICTED BY IDOCK:   -8.94 KCAL/MOL
REMARK 923 INTER-LIGAND FREE ENERGY PREDICTED BY IDOCK:   -8.26 KCAL/MOL
REMARK 924 INTRA-LIGAND FREE ENERGY PREDICTED BY IDOCK:   -0.68 KCAL/MOL
REMARK 927      BINDING AFFINITY PREDICTED BY RF-SCORE:    0.00 PKD
ROOT
HETATM    1  O   UNL     1     -11.089  17.469  64.812  1.00  0.00    -0.959 OA 
HETATM    2  C   UNL     1     -10.646  16.318  65.365  1.00  0.00    -0.352 C  
HETATM    3  C   UNL     1     -10.986  16.152  66.804  1.00  0.00    -0.080 A  
HETATM    4  O   UNL     1     -10.064  15.471  64.712  1.00  0.00    -0.298 OA 
HETATM    5  C   UNL     1     -11.559  14.942  67.279  1.00  0.00    -0.324 A  
HETATM    6  I   UNL     1     -12.136  13.364  65.920  1.00  0.00    -0.493 I  
HETATM    7  C   UNL     1     -11.859  14.748  68.658  1.00  0.00    -0.300 A  
HETATM    8  I   UNL     1      -9.696  18.968  67.285  1.00  0.00    -0.471 I  
HETATM    9  C   UNL     1     -11.559  15.785  69.560  1.00  0.00    -0.363 A  
HETATM   10  C   UNL     1     -10.694  17.159  67.741  1.00  0.00    -0.329 A  
HETATM   11  C   UNL     1     -10.997  16.982  69.097  1.00  0.00    -0.054 A  
HETATM   12  I   UNL     1     -11.658  15.603  71.662  1.00  0.00    -0.480 I  
ENDROOT
BRANCH   7  13
HETATM   13  N   UNL     1     -12.373  13.484  69.076  1.00  0.00    -0.228 N  
HETATM   14  O   UNL     1     -10.351  12.344  69.079  1.00  0.00    -0.102 OA 
HETATM   15  C   UNL     1     -11.564  12.375  69.272  1.00  0.00    -0.319 C  
HETATM   16  H   UNL     1     -13.376  13.393  69.237  1.00  0.00     0.000 HD 
BRANCH  15  17
HETATM   17  C   UNL     1     -12.280  11.195  69.916  1.00  0.00    -0.385 C  
BRANCH  17  18
HETATM   18  C   UNL     1     -11.407   9.945  69.836  1.00  0.00    -0.273 C  
BRANCH  18  19
HETATM   19  C   UNL     1     -11.764   8.842  70.837  1.00  0.00    -0.312 C  
BRANCH  19  20
HETATM   20  C   UNL     1     -10.912   8.818  72.110  1.00  0.00    -0.404 C  
BRANCH  20  21
HETATM   21  C   UNL     1      -9.815   7.764  72.001  1.00  0.00    -0.174 C  
HETATM   22  N   UNL     1     -10.121   6.734  71.122  1.00  0.00    -0.182 N  
HETATM   23  O   UNL     1      -8.805   7.803  72.694  1.00  0.00    -0.132 OA 
HETATM   24  H   UNL     1     -11.014   6.749  70.630  1.00  0.00     0.000 HD 
BRANCH  22  25
HETATM   25  C   UNL     1      -9.216   5.656  70.892  1.00  0.00    -0.155 A  
HETATM   26  C   UNL     1      -8.204   5.722  69.922  1.00  0.00    -0.115 A  
HETATM   27  I   UNL     1      -8.061   7.248  68.459  1.00  0.00    -0.126 I  
HETATM   28  C   UNL     1      -7.310   4.661  69.753  1.00  0.00    -0.054 A  
HETATM   29  C   UNL     1      -7.448   3.481  70.498  1.00  0.00    -0.041 A  
HETATM   30  I   UNL     1      -6.061   1.968  69.991  1.00  0.00    -0.025 I  
HETATM   31  C   UNL     1      -8.484   3.349  71.440  1.00  0.00    -0.094 A  
HETATM   32  C   UNL     1      -8.711   2.065  72.166  1.00  0.00    -0.068 C  
HETATM   33  C   UNL     1      -9.362   4.450  71.632  1.00  0.00    -0.141 A  
HETATM   34  O   UNL     1      -9.806   1.544  72.272  1.00  0.00    -0.091 OA 
HETATM   35  I   UNL     1     -10.896   4.420  73.154  1.00  0.00    -0.298 I  
HETATM   36  O   UNL     1      -7.610   1.533  72.739  1.00  0.00    -0.034 OA 
ENDBRANCH  22  25
ENDBRANCH  20  21
ENDBRANCH  19  20
ENDBRANCH  18  19
ENDBRANCH  17  18
ENDBRANCH  15  17
ENDBRANCH   7  13
TORSDOF 7
ENDMDL
MODEL       42
REMARK 921   NORMALIZED FREE ENERGY PREDICTED BY IDOCK:   -5.68 KCAL/MOL
REMARK 922        TOTAL FREE ENERGY PREDICTED BY IDOCK:   -8.92 KCAL/MOL
REMARK 923 INTER-LIGAND FREE ENERGY PREDICTED BY IDOCK:   -7.85 KCAL/MOL
REMARK 924 INTRA-LIGAND FREE ENERGY PREDICTED BY IDOCK:   -1.08 KCAL/MOL
REMARK 927      BINDING AFFINITY PREDICTED BY RF-SCORE:    0.00 PKD
ROOT
HETATM    1  O   UNL     1     -10.965  17.472  69.495  1.00  0.00     0.232 OA 
HETATM    2  C   UNL     1     -10.077  16.465  69.344  1.00  0.00    -0.243 C  
HETATM    3  C   UNL     1     -10.672  15.102  69.398  1.00  0.00    -0.269 A  
HETATM    4  O   UNL     1      -8.897  16.672  69.127  1.00  0.00    -0.235 OA 
HETATM    5  C   UNL     1     -10.360  14.134  68.406  1.00  0.00    -0.249 A  
HETATM    6  I   UNL     1      -9.167  14.643  66.678  1.00  0.00    -0.215 I  
HETATM    7  C   UNL     1     -10.890  12.813  68.459  1.00  0.00    -0.253 A  
HETATM    8  I   UNL     1     -11.970  15.934  72.127  1.00  0.00    -0.624 I  
HETATM    9  C   UNL     1     -11.728  12.470  69.535  1.00  0.00    -0.309 A  
HETATM   10  C   UNL     1     -11.507  14.715  70.462  1.00  0.00    -0.220 A  
HETATM   11  C   UNL     1     -12.042  13.422  70.515  1.00  0.00    -0.399 A  
HETATM   12  I   UNL     1     -12.387  10.509  69.957  1.00  0.00    -0.018 I  
ENDROOT
BRANCH   7  13
HETATM   13  N   UNL     1     -10.484  11.873  67.465  1.00  0.00    -0.205 N  
HETATM   14  O   UNL     1     -12.274  12.196  66.023  1.00  0.00    -0.609 OA 
HETATM   15  C   UNL     1     -11.209  11.651  66.304  1.00  0.00    -0.271 C  
HETATM   16  H   UNL     1      -9.626  11.343  67.615  1.00  0.00     0.000 HD 
BRANCH  15  17
HETATM   17  C   UNL     1     -10.495  10.767  65.290  1.00  0.00    -0.282 C  
BRANCH  17  18
HETATM   18  C   UNL     1      -9.364   9.999  65.970  1.00  0.00    -0.224 C  
BRANCH  18  19
HETATM   19  C   UNL     1      -9.614   8.497  66.140  1.00  0.00    -0.276 C  
BRANCH  19  20
HETATM   20  C   UNL     1     -10.507   8.117  67.325  1.00  0.00    -0.379 C  
BRANCH  20  21
HETATM   21  C   UNL     1      -9.777   7.160  68.261  1.00  0.00    -0.144 C  
HETATM   22  N   UNL     1     -10.565   6.106  68.702  1.00  0.00    -0.239 N  
HETATM   23  O   UNL     1      -8.629   7.368  68.638  1.00  0.00    -0.128 OA 
HETATM   24  H   UNL     1     -11.532   6.041  68.385  1.00  0.00     0.000 HD 
BRANCH  22  25
HETATM   25  C   UNL     1     -10.053   5.110  69.586  1.00  0.00    -0.261 A  
HETATM   26  C   UNL     1      -9.277   4.032  69.131  1.00  0.00    -0.152 A  
HETATM   27  I   UNL     1      -9.022   3.534  67.088  1.00  0.00    -0.216 I  
HETATM   28  C   UNL     1      -8.759   3.098  70.034  1.00  0.00    -0.131 A  
HETATM   29  C   UNL     1      -9.061   3.178  71.400  1.00  0.00    -0.106 A  
HETATM   30  I   UNL     1      -8.270   1.593  72.555  1.00  0.00    -0.054 I  
HETATM   31  C   UNL     1      -9.882   4.208  71.891  1.00  0.00    -0.251 A  
HETATM   32  C   UNL     1     -10.300   4.248  73.323  1.00  0.00    -0.167 C  
HETATM   33  C   UNL     1     -10.370   5.175  70.971  1.00  0.00    -0.208 A  
HETATM   34  O   UNL     1     -11.452   4.427  73.677  1.00  0.00    -0.254 OA 
HETATM   35  I   UNL     1     -11.516   6.885  71.629  1.00  0.00    -0.383 I  
HETATM   36  O   UNL     1      -9.294   4.112  74.214  1.00  0.00    -0.105 OA 
ENDBRANCH  22  25
ENDBRANCH  20  21
ENDBRANCH  19  20
ENDBRANCH  18  19
ENDBRANCH  17  18
ENDBRANCH  15  17
ENDBRANCH   7  13
TORSDOF 7
ENDMDL
MODEL       43
REMARK 921   NORMALIZED FREE ENERGY PREDICTED BY IDOCK:   -5.65 KCAL/MOL
REMARK 922        TOTAL FREE ENERGY PREDICTED BY IDOCK:   -8.88 KCAL/MOL
REMARK 923 INTER-LIGAND FREE ENERGY PREDICTED BY IDOCK:   -7.86 KCAL/MOL
REMARK 924 INTRA-LIGAND FREE ENERGY PREDICTED BY IDOCK:   -1.02 KCAL/MOL
REMARK 927      BINDING AFFINITY PREDICTED BY RF-SCORE:    0.00 PKD
ROOT
HETATM    1  O   UNL     1      -6.750   2.279  70.897  1.00  0.00    -0.030 OA 
HETATM    2  C   UNL     1      -7.526   2.695  69.872  1.00  0.00    -0.043 C  
HETATM    3  C   UNL     1      -8.459   3.803  70.212  1.00  0.00    -0.093 A  
HETATM    4  O   UNL     1      -7.421   2.228  68.752  1.00  0.00    -0.044 OA 
HETATM    5  C   UNL     1      -8.553   4.953  69.383  1.00  0.00    -0.087 A  
HETATM    6  I   UNL     1      -7.224   5.237  67.703  1.00  0.00    -0.073 I  
HETATM    7  C   UNL     1      -9.464   6.009  69.670  1.00  0.00    -0.144 A  
HETATM    8  I   UNL     1      -9.461   2.034  72.597  1.00  0.00    -0.171 I  
HETATM    9  C   UNL     1     -10.296   5.887  70.798  1.00  0.00    -0.232 A  
HETATM   10  C   UNL     1      -9.314   3.717  71.325  1.00  0.00    -0.145 A  
HETATM   11  C   UNL     1     -10.206   4.756  71.622  1.00  0.00    -0.249 A  
HETATM   12  I   UNL     1     -11.899   7.186  71.245  1.00  0.00    -0.410 I  
ENDROOT
BRANCH   7  13
HETATM   13  N   UNL     1      -9.553   7.104  68.760  1.00  0.00    -0.144 N  
HETATM   14  O   UNL     1     -11.152   6.177  67.357  1.00  0.00    -0.331 OA 
HETATM   15  C   UNL     1     -10.414   7.106  67.673  1.00  0.00    -0.239 C  
HETATM   16  H   UNL     1      -8.959   7.919  68.915  1.00  0.00     0.000 HD 
BRANCH  15  17
HETATM   17  C   UNL     1     -10.501   8.448  66.958  1.00  0.00    -0.375 C  
BRANCH  17  18
HETATM   18  C   UNL     1      -9.353   8.585  65.960  1.00  0.00    -0.266 C  
BRANCH  18  19
HETATM   19  C   UNL     1      -8.220   9.517  66.404  1.00  0.00    -0.115 C  
BRANCH  19  20
HETATM   20  C   UNL     1      -8.351  10.068  67.827  1.00  0.00    -0.114 C  
BRANCH  20  21
HETATM   21  C   UNL     1      -8.967  11.464  67.807  1.00  0.00    -0.147 C  
HETATM   22  N   UNL     1      -8.486  12.267  66.782  1.00  0.00    -0.327 N  
HETATM   23  O   UNL     1      -9.749  11.842  68.672  1.00  0.00    -0.184 OA 
HETATM   24  H   UNL     1      -7.788  11.891  66.141  1.00  0.00     0.000 HD 
BRANCH  22  25
HETATM   25  C   UNL     1      -8.944  13.607  66.606  1.00  0.00    -0.120 A  
HETATM   26  C   UNL     1      -8.361  14.692  67.279  1.00  0.00    -0.213 A  
HETATM   27  I   UNL     1      -6.972  14.495  68.866  1.00  0.00    -0.130 I  
HETATM   28  C   UNL     1      -8.811  15.996  67.050  1.00  0.00    -0.235 A  
HETATM   29  C   UNL     1      -9.898  16.240  66.199  1.00  0.00    -0.334 A  
HETATM   30  I   UNL     1     -10.479  18.270  66.098  1.00  0.00     0.019 I  
HETATM   31  C   UNL     1     -10.549  15.177  65.549  1.00  0.00    -0.383 A  
HETATM   32  C   UNL     1     -11.771  15.406  64.723  1.00  0.00    -0.232 C  
HETATM   33  C   UNL     1     -10.057  13.860  65.757  1.00  0.00    -0.320 A  
HETATM   34  O   UNL     1     -12.781  14.735  64.828  1.00  0.00    -0.471 OA 
HETATM   35  I   UNL     1     -10.880  12.165  64.698  1.00  0.00    -0.432 I  
HETATM   36  O   UNL     1     -11.664  16.396  63.811  1.00  0.00    -1.049 OA 
ENDBRANCH  22  25
ENDBRANCH  20  21
ENDBRANCH  19  20
ENDBRANCH  18  19
ENDBRANCH  17  18
ENDBRANCH  15  17
ENDBRANCH   7  13
TORSDOF 7
ENDMDL
MODEL       44
REMARK 921   NORMALIZED FREE ENERGY PREDICTED BY IDOCK:   -5.63 KCAL/MOL
REMARK 922        TOTAL FREE ENERGY PREDICTED BY IDOCK:   -8.85 KCAL/MOL
REMARK 923 INTER-LIGAND FREE ENERGY PREDICTED BY IDOCK:   -8.19 KCAL/MOL
REMARK 924 INTRA-LIGAND FREE ENERGY PREDICTED BY IDOCK:   -0.65 KCAL/MOL
REMARK 927      BINDING AFFINITY PREDICTED BY RF-SCORE:    0.00 PKD
ROOT
HETATM    1  O   UNL     1      -7.541   2.478  66.946  1.00  0.00    -0.068 OA 
HETATM    2  C   UNL     1      -7.285   3.354  67.942  1.00  0.00    -0.051 C  
HETATM    3  C   UNL     1      -7.838   4.718  67.725  1.00  0.00    -0.086 A  
HETATM    4  O   UNL     1      -6.693   3.024  68.954  1.00  0.00    -0.036 OA 
HETATM    5  C   UNL     1      -8.578   5.372  68.748  1.00  0.00    -0.098 A  
HETATM    6  I   UNL     1      -9.094   4.356  70.584  1.00  0.00    -0.225 I  
HETATM    7  C   UNL     1      -9.086   6.690  68.575  1.00  0.00    -0.128 A  
HETATM    8  I   UNL     1      -6.386   4.710  64.948  1.00  0.00    -0.037 I  
HETATM    9  C   UNL     1      -8.827   7.354  67.362  1.00  0.00    -0.123 A  
HETATM   10  C   UNL     1      -7.594   5.420  66.532  1.00  0.00    -0.088 A  
HETATM   11  C   UNL     1      -8.101   6.713  66.348  1.00  0.00    -0.113 A  
HETATM   12  I   UNL     1      -9.238   9.395  67.007  1.00  0.00    -0.209 I  
ENDROOT
BRANCH   7  13
HETATM   13  N   UNL     1      -9.764   7.311  69.666  1.00  0.00    -0.159 N  
HETATM   14  O   UNL     1     -11.899   6.579  69.126  1.00  0.00    -0.065 OA 
HETATM   15  C   UNL     1     -11.131   7.189  69.865  1.00  0.00    -0.235 C  
HETATM   16  H   UNL     1      -9.221   7.868  70.326  1.00  0.00     0.000 HD 
BRANCH  15  17
HETATM   17  C   UNL     1     -11.613   7.751  71.196  1.00  0.00    -0.301 C  
BRANCH  17  18
HETATM   18  C   UNL     1     -12.228   9.133  70.988  1.00  0.00    -0.302 C  
BRANCH  18  19
HETATM   19  C   UNL     1     -11.352  10.119  70.208  1.00  0.00    -0.387 C  
BRANCH  19  20
HETATM   20  C   UNL     1     -12.114  11.085  69.296  1.00  0.00    -0.363 C  
BRANCH  20  21
HETATM   21  C   UNL     1     -11.328  12.379  69.109  1.00  0.00    -0.269 C  
HETATM   22  N   UNL     1     -12.131  13.500  68.959  1.00  0.00    -0.330 N  
HETATM   23  O   UNL     1     -10.105  12.389  69.021  1.00  0.00    -0.028 OA 
HETATM   24  H   UNL     1     -13.145  13.393  68.984  1.00  0.00     0.000 HD 
BRANCH  22  25
HETATM   25  C   UNL     1     -11.573  14.799  68.771  1.00  0.00    -0.320 A  
HETATM   26  C   UNL     1     -11.327  15.671  69.843  1.00  0.00    -0.337 A  
HETATM   27  I   UNL     1     -12.027  15.350  71.817  1.00  0.00    -0.656 I  
HETATM   28  C   UNL     1     -10.740  16.921  69.623  1.00  0.00    -0.151 A  
HETATM   29  C   UNL     1     -10.450  17.358  68.324  1.00  0.00    -0.385 A  
HETATM   30  I   UNL     1      -9.681  19.325  68.223  1.00  0.00    -0.555 I  
HETATM   31  C   UNL     1     -10.732  16.541  67.215  1.00  0.00    -0.243 A  
HETATM   32  C   UNL     1     -10.528  17.030  65.820  1.00  0.00    -0.251 C  
HETATM   33  C   UNL     1     -11.291  15.256  67.453  1.00  0.00    -0.284 A  
HETATM   34  O   UNL     1     -11.366  16.913  64.944  1.00  0.00    -0.425 OA 
HETATM   35  I   UNL     1     -11.630  13.854  65.843  1.00  0.00    -0.419 I  
HETATM   36  O   UNL     1      -9.319  17.582  65.582  1.00  0.00    -0.467 OA 
ENDBRANCH  22  25
ENDBRANCH  20  21
ENDBRANCH  19  20
ENDBRANCH  18  19
ENDBRANCH  17  18
ENDBRANCH  15  17
ENDBRANCH   7  13
TORSDOF 7
ENDMDL
MODEL       45
REMARK 921   NORMALIZED FREE ENERGY PREDICTED BY IDOCK:   -5.59 KCAL/MOL
REMARK 922        TOTAL FREE ENERGY PREDICTED BY IDOCK:   -8.80 KCAL/MOL
REMARK 923 INTER-LIGAND FREE ENERGY PREDICTED BY IDOCK:   -8.01 KCAL/MOL
REMARK 924 INTRA-LIGAND FREE ENERGY PREDICTED BY IDOCK:   -0.79 KCAL/MOL
REMARK 927      BINDING AFFINITY PREDICTED BY RF-SCORE:    0.00 PKD
ROOT
HETATM    1  O   UNL     1     -10.613  19.440  66.799  1.00  0.00    -0.430 OA 
HETATM    2  C   UNL     1     -10.284  18.202  66.370  1.00  0.00    -0.399 C  
HETATM    3  C   UNL     1      -9.401  17.441  67.294  1.00  0.00    -0.238 A  
HETATM    4  O   UNL     1     -10.727  17.740  65.333  1.00  0.00    -0.626 OA 
HETATM    5  C   UNL     1      -9.711  16.101  67.654  1.00  0.00    -0.233 A  
HETATM    6  I   UNL     1     -11.562  15.172  67.036  1.00  0.00     0.153 I  
HETATM    7  C   UNL     1      -8.862  15.342  68.509  1.00  0.00    -0.183 A  
HETATM    8  I   UNL     1      -7.469  19.907  67.250  1.00  0.00    -0.336 I  
HETATM    9  C   UNL     1      -7.683  15.943  68.986  1.00  0.00    -0.209 A  
HETATM   10  C   UNL     1      -8.209  18.000  67.785  1.00  0.00    -0.238 A  
HETATM   11  C   UNL     1      -7.373  17.265  68.636  1.00  0.00    -0.238 A  
HETATM   12  I   UNL     1      -6.156  14.916  70.022  1.00  0.00    -0.134 I  
ENDROOT
BRANCH   7  13
HETATM   13  N   UNL     1      -9.200  13.982  68.778  1.00  0.00    -0.372 N  
HETATM   14  O   UNL     1      -8.070  13.049  66.979  1.00  0.00    -0.138 OA 
HETATM   15  C   UNL     1      -8.756  12.931  67.991  1.00  0.00    -0.191 C  
HETATM   16  H   UNL     1      -9.792  13.775  69.582  1.00  0.00     0.000 HD 
BRANCH  15  17
HETATM   17  C   UNL     1      -9.056  11.555  68.572  1.00  0.00    -0.157 C  
BRANCH  17  18
HETATM   18  C   UNL     1     -10.555  11.409  68.823  1.00  0.00    -0.235 C  
BRANCH  18  19
HETATM   19  C   UNL     1     -11.253  10.348  67.965  1.00  0.00    -0.340 C  
BRANCH  19  20
HETATM   20  C   UNL     1     -10.317   9.462  67.137  1.00  0.00    -0.326 C  
BRANCH  20  21
HETATM   21  C   UNL     1      -9.790   8.305  67.980  1.00  0.00    -0.169 C  
HETATM   22  N   UNL     1     -10.787   7.464  68.453  1.00  0.00    -0.416 N  
HETATM   23  O   UNL     1      -8.602   8.197  68.265  1.00  0.00    -0.129 OA 
HETATM   24  H   UNL     1     -11.759   7.663  68.217  1.00  0.00     0.000 HD 
BRANCH  22  25
HETATM   25  C   UNL     1     -10.485   6.329  69.261  1.00  0.00    -0.244 A  
HETATM   26  C   UNL     1     -10.548   6.369  70.663  1.00  0.00    -0.237 A  
HETATM   27  I   UNL     1     -10.770   8.150  71.789  1.00  0.00    -0.392 I  
HETATM   28  C   UNL     1     -10.284   5.224  71.420  1.00  0.00    -0.279 A  
HETATM   29  C   UNL     1      -9.883   4.032  70.801  1.00  0.00    -0.163 A  
HETATM   30  I   UNL     1      -9.421   2.470  72.149  1.00  0.00    -0.210 I  
HETATM   31  C   UNL     1      -9.751   3.962  69.403  1.00  0.00    -0.172 A  
HETATM   32  C   UNL     1      -9.225   2.736  68.736  1.00  0.00    -0.169 C  
HETATM   33  C   UNL     1     -10.061   5.121  68.641  1.00  0.00    -0.150 A  
HETATM   34  O   UNL     1      -8.354   2.762  67.885  1.00  0.00    -0.076 OA 
HETATM   35  I   UNL     1     -10.039   5.091  66.480  1.00  0.00    -0.311 I  
HETATM   36  O   UNL     1      -9.816   1.583  69.116  1.00  0.00    -0.024 OA 
ENDBRANCH  22  25
ENDBRANCH  20  21
ENDBRANCH  19  20
ENDBRANCH  18  19
ENDBRANCH  17  18
ENDBRANCH  15  17
ENDBRANCH   7  13
TORSDOF 7
ENDMDL
MODEL       46
REMARK 921   NORMALIZED FREE ENERGY PREDICTED BY IDOCK:   -5.59 KCAL/MOL
REMARK 922        TOTAL FREE ENERGY PREDICTED BY IDOCK:   -8.80 KCAL/MOL
REMARK 923 INTER-LIGAND FREE ENERGY PREDICTED BY IDOCK:   -7.37 KCAL/MOL
REMARK 924 INTRA-LIGAND FREE ENERGY PREDICTED BY IDOCK:   -1.42 KCAL/MOL
REMARK 927      BINDING AFFINITY PREDICTED BY RF-SCORE:    0.00 PKD
ROOT
HETATM    1  O   UNL     1     -11.075  17.364  69.388  1.00  0.00     0.235 OA 
HETATM    2  C   UNL     1     -10.160  16.382  69.232  1.00  0.00    -0.271 C  
HETATM    3  C   UNL     1     -10.705  15.003  69.351  1.00  0.00    -0.267 A  
HETATM    4  O   UNL     1      -8.997  16.622  68.964  1.00  0.00    -0.256 OA 
HETATM    5  C   UNL     1     -10.398  14.015  68.376  1.00  0.00    -0.251 A  
HETATM    6  I   UNL     1      -9.290  14.510  66.588  1.00  0.00    -0.250 I  
HETATM    7  C   UNL     1     -10.880  12.680  68.489  1.00  0.00    -0.252 A  
HETATM    8  I   UNL     1     -11.926  15.876  72.102  1.00  0.00    -0.624 I  
HETATM    9  C   UNL     1     -11.664  12.343  69.606  1.00  0.00    -0.307 A  
HETATM   10  C   UNL     1     -11.485  14.622  70.457  1.00  0.00    -0.220 A  
HETATM   11  C   UNL     1     -11.973  13.314  70.570  1.00  0.00    -0.319 A  
HETATM   12  I   UNL     1     -12.239  10.375  70.112  1.00  0.00    -0.149 I  
ENDROOT
BRANCH   7  13
HETATM   13  N   UNL     1     -10.480  11.723  67.508  1.00  0.00    -0.198 N  
HETATM   14  O   UNL     1     -12.238  12.077  66.035  1.00  0.00    -0.546 OA 
HETATM   15  C   UNL     1     -11.192  11.510  66.337  1.00  0.00    -0.243 C  
HETATM   16  H   UNL     1      -9.637  11.175  67.675  1.00  0.00     0.000 HD 
BRANCH  15  17
HETATM   17  C   UNL     1     -10.482  10.603  65.341  1.00  0.00    -0.254 C  
BRANCH  17  18
HETATM   18  C   UNL     1      -9.177  11.250  64.881  1.00  0.00    -0.130 C  
BRANCH  18  19
HETATM   19  C   UNL     1      -7.909  10.460  65.221  1.00  0.00    -0.137 C  
BRANCH  19  20
HETATM   20  C   UNL     1      -8.091   8.941  65.301  1.00  0.00    -0.126 C  
BRANCH  20  21
HETATM   21  C   UNL     1      -7.912   8.454  66.735  1.00  0.00    -0.098 C  
HETATM   22  N   UNL     1      -8.919   8.874  67.593  1.00  0.00    -0.134 N  
HETATM   23  O   UNL     1      -6.923   7.822  67.088  1.00  0.00    -0.073 OA 
HETATM   24  H   UNL     1      -9.676   9.450  67.227  1.00  0.00     0.000 HD 
BRANCH  22  25
HETATM   25  C   UNL     1      -8.919   8.518  68.974  1.00  0.00    -0.146 A  
HETATM   26  C   UNL     1      -8.247   9.279  69.944  1.00  0.00    -0.145 A  
HETATM   27  I   UNL     1      -6.889  10.842  69.492  1.00  0.00    -0.101 I  
HETATM   28  C   UNL     1      -8.303   8.922  71.294  1.00  0.00    -0.223 A  
HETATM   29  C   UNL     1      -8.972   7.759  71.700  1.00  0.00    -0.129 A  
HETATM   30  I   UNL     1      -8.824   7.353  73.770  1.00  0.00    -0.317 I  
HETATM   31  C   UNL     1      -9.611   6.936  70.756  1.00  0.00    -0.167 A  
HETATM   32  C   UNL     1     -10.237   5.641  71.156  1.00  0.00    -0.220 C  
HETATM   33  C   UNL     1      -9.581   7.330  69.392  1.00  0.00    -0.154 A  
HETATM   34  O   UNL     1     -10.048   4.597  70.558  1.00  0.00    -0.225 OA 
HETATM   35  I   UNL     1     -10.652   6.227  67.872  1.00  0.00    -0.424 I  
HETATM   36  O   UNL     1     -11.071   5.715  72.216  1.00  0.00    -0.250 OA 
ENDBRANCH  22  25
ENDBRANCH  20  21
ENDBRANCH  19  20
ENDBRANCH  18  19
ENDBRANCH  17  18
ENDBRANCH  15  17
ENDBRANCH   7  13
TORSDOF 7
ENDMDL
MODEL       47
REMARK 921   NORMALIZED FREE ENERGY PREDICTED BY IDOCK:   -5.58 KCAL/MOL
REMARK 922        TOTAL FREE ENERGY PREDICTED BY IDOCK:   -8.78 KCAL/MOL
REMARK 923 INTER-LIGAND FREE ENERGY PREDICTED BY IDOCK:   -8.10 KCAL/MOL
REMARK 924 INTRA-LIGAND FREE ENERGY PREDICTED BY IDOCK:   -0.68 KCAL/MOL
REMARK 927      BINDING AFFINITY PREDICTED BY RF-SCORE:    0.00 PKD
ROOT
HETATM    1  O   UNL     1      -8.400   4.942  64.645  1.00  0.00    -0.121 OA 
HETATM    2  C   UNL     1      -8.329   5.158  65.977  1.00  0.00    -0.116 C  
HETATM    3  C   UNL     1      -8.187   6.586  66.366  1.00  0.00    -0.116 A  
HETATM    4  O   UNL     1      -8.428   4.250  66.783  1.00  0.00    -0.105 OA 
HETATM    5  C   UNL     1      -9.018   7.151  67.372  1.00  0.00    -0.122 A  
HETATM    6  I   UNL     1     -10.642   6.025  68.247  1.00  0.00    -0.321 I  
HETATM    7  C   UNL     1      -8.876   8.506  67.784  1.00  0.00    -0.137 A  
HETATM    8  I   UNL     1      -5.743   6.728  64.409  1.00  0.00    -0.033 I  
HETATM    9  C   UNL     1      -7.872   9.287  67.183  1.00  0.00    -0.099 A  
HETATM   10  C   UNL     1      -7.191   7.399  65.797  1.00  0.00    -0.066 A  
HETATM   11  C   UNL     1      -7.052   8.737  66.188  1.00  0.00    -0.085 A  
HETATM   12  I   UNL     1      -7.307  11.214  67.837  1.00  0.00    -0.107 I  
ENDROOT
BRANCH   7  13
HETATM   13  N   UNL     1      -9.700   8.989  68.844  1.00  0.00    -0.160 N  
HETATM   14  O   UNL     1      -8.432   8.144  70.595  1.00  0.00    -0.121 OA 
HETATM   15  C   UNL     1      -9.398   8.781  70.181  1.00  0.00    -0.169 C  
HETATM   16  H   UNL     1     -10.546   9.508  68.609  1.00  0.00     0.000 HD 
BRANCH  15  17
HETATM   17  C   UNL     1     -10.290   9.555  71.143  1.00  0.00    -0.330 C  
BRANCH  17  18
HETATM   18  C   UNL     1     -11.740   9.102  70.992  1.00  0.00    -0.363 C  
BRANCH  18  19
HETATM   19  C   UNL     1     -12.717  10.197  70.551  1.00  0.00    -0.269 C  
BRANCH  19  20
HETATM   20  C   UNL     1     -12.916  11.334  71.559  1.00  0.00    -0.520 C  
BRANCH  20  21
HETATM   21  C   UNL     1     -12.844  12.688  70.860  1.00  0.00    -0.095 C  
HETATM   22  N   UNL     1     -11.602  12.960  70.305  1.00  0.00    -0.532 N  
HETATM   23  O   UNL     1     -13.783  13.476  70.871  1.00  0.00     0.148 OA 
HETATM   24  H   UNL     1     -10.855  12.271  70.394  1.00  0.00     0.000 HD 
BRANCH  22  25
HETATM   25  C   UNL     1     -11.345  14.180  69.613  1.00  0.00    -0.236 A  
HETATM   26  C   UNL     1     -11.262  15.415  70.277  1.00  0.00    -0.309 A  
HETATM   27  I   UNL     1     -11.817  15.712  72.300  1.00  0.00    -0.608 I  
HETATM   28  C   UNL     1     -10.969  16.585  69.570  1.00  0.00    -0.289 A  
HETATM   29  C   UNL     1     -10.820  16.562  68.176  1.00  0.00    -0.345 A  
HETATM   30  I   UNL     1     -10.500  18.463  67.308  1.00  0.00    -0.343 I  
HETATM   31  C   UNL     1     -10.951  15.357  67.463  1.00  0.00    -0.315 A  
HETATM   32  C   UNL     1     -10.900  15.330  65.972  1.00  0.00    -0.330 C  
HETATM   33  C   UNL     1     -11.209  14.167  68.196  1.00  0.00    -0.276 A  
HETATM   34  O   UNL     1     -11.718  14.742  65.288  1.00  0.00    -0.351 OA 
HETATM   35  I   UNL     1     -11.284  12.236  67.229  1.00  0.00    -0.420 I  
HETATM   36  O   UNL     1      -9.848  15.977  65.426  1.00  0.00    -0.440 OA 
ENDBRANCH  22  25
ENDBRANCH  20  21
ENDBRANCH  19  20
ENDBRANCH  18  19
ENDBRANCH  17  18
ENDBRANCH  15  17
ENDBRANCH   7  13
TORSDOF 7
ENDMDL
MODEL       48
REMARK 921   NORMALIZED FREE ENERGY PREDICTED BY IDOCK:   -5.57 KCAL/MOL
REMARK 922        TOTAL FREE ENERGY PREDICTED BY IDOCK:   -8.77 KCAL/MOL
REMARK 923 INTER-LIGAND FREE ENERGY PREDICTED BY IDOCK:   -8.05 KCAL/MOL
REMARK 924 INTRA-LIGAND FREE ENERGY PREDICTED BY IDOCK:   -0.72 KCAL/MOL
REMARK 927      BINDING AFFINITY PREDICTED BY RF-SCORE:    0.00 PKD
ROOT
HETATM    1  O   UNL     1      -6.402   7.966  64.504  1.00  0.00    -0.051 OA 
HETATM    2  C   UNL     1      -7.743   8.127  64.474  1.00  0.00    -0.121 C  
HETATM    3  C   UNL     1      -8.437   7.776  65.742  1.00  0.00    -0.155 A  
HETATM    4  O   UNL     1      -8.316   8.575  63.497  1.00  0.00    -0.157 OA 
HETATM    5  C   UNL     1      -9.390   8.661  66.316  1.00  0.00    -0.220 A  
HETATM    6  I   UNL     1      -9.737  10.626  65.489  1.00  0.00    -0.364 I  
HETATM    7  C   UNL     1     -10.092   8.329  67.510  1.00  0.00    -0.225 A  
HETATM    8  I   UNL     1      -6.976   5.007  65.608  1.00  0.00    -0.065 I  
HETATM    9  C   UNL     1      -9.837   7.085  68.113  1.00  0.00    -0.139 A  
HETATM   10  C   UNL     1      -8.219   6.538  66.372  1.00  0.00    -0.116 A  
HETATM   11  C   UNL     1      -8.896   6.209  67.553  1.00  0.00    -0.106 A  
HETATM   12  I   UNL     1     -10.960   6.280  69.711  1.00  0.00    -0.472 I  
ENDROOT
BRANCH   7  13
HETATM   13  N   UNL     1     -11.081   9.236  67.996  1.00  0.00    -0.501 N  
HETATM   14  O   UNL     1      -9.972   9.846  69.942  1.00  0.00    -0.230 OA 
HETATM   15  C   UNL     1     -10.931   9.943  69.179  1.00  0.00    -0.200 C  
HETATM   16  H   UNL     1     -11.933   9.369  67.451  1.00  0.00     0.000 HD 
BRANCH  15  17
HETATM   17  C   UNL     1     -12.000  11.004  69.404  1.00  0.00    -0.408 C  
BRANCH  17  18
HETATM   18  C   UNL     1     -11.687  12.247  68.573  1.00  0.00    -0.381 C  
BRANCH  18  19
HETATM   19  C   UNL     1     -10.475  13.054  69.049  1.00  0.00    -0.023 C  
BRANCH  19  20
HETATM   20  C   UNL     1      -9.172  12.781  68.292  1.00  0.00    -0.186 C  
BRANCH  20  21
HETATM   21  C   UNL     1      -8.416  14.081  68.039  1.00  0.00    -0.171 C  
HETATM   22  N   UNL     1      -8.432  14.951  69.120  1.00  0.00    -0.298 N  
HETATM   23  O   UNL     1      -7.919  14.343  66.949  1.00  0.00    -0.089 OA 
HETATM   24  H   UNL     1      -8.923  14.678  69.971  1.00  0.00     0.000 HD 
BRANCH  22  25
HETATM   25  C   UNL     1      -7.779  16.218  69.068  1.00  0.00    -0.224 A  
HETATM   26  C   UNL     1      -6.453  16.395  69.492  1.00  0.00    -0.210 A  
HETATM   27  I   UNL     1      -5.343  14.936  70.554  1.00  0.00    -0.140 I  
HETATM   28  C   UNL     1      -5.833  17.644  69.388  1.00  0.00    -0.227 A  
HETATM   29  C   UNL     1      -6.543  18.760  68.924  1.00  0.00    -0.264 A  
HETATM   30  I   UNL     1      -5.443  20.565  68.966  1.00  0.00    -0.411 I  
HETATM   31  C   UNL     1      -7.891  18.641  68.543  1.00  0.00    -0.355 A  
HETATM   32  C   UNL     1      -8.692  19.837  68.147  1.00  0.00    -0.284 C  
HETATM   33  C   UNL     1      -8.499  17.359  68.615  1.00  0.00    -0.257 A  
HETATM   34  O   UNL     1      -9.804  20.069  68.587  1.00  0.00    -0.349 OA 
HETATM   35  I   UNL     1     -10.517  17.023  67.916  1.00  0.00    -0.318 I  
HETATM   36  O   UNL     1      -8.109  20.633  67.226  1.00  0.00    -0.337 OA 
ENDBRANCH  22  25
ENDBRANCH  20  21
ENDBRANCH  19  20
ENDBRANCH  18  19
ENDBRANCH  17  18
ENDBRANCH  15  17
ENDBRANCH   7  13
TORSDOF 7
ENDMDL
MODEL       49
REMARK 921   NORMALIZED FREE ENERGY PREDICTED BY IDOCK:   -5.57 KCAL/MOL
REMARK 922        TOTAL FREE ENERGY PREDICTED BY IDOCK:   -8.76 KCAL/MOL
REMARK 923 INTER-LIGAND FREE ENERGY PREDICTED BY IDOCK:   -7.69 KCAL/MOL
REMARK 924 INTRA-LIGAND FREE ENERGY PREDICTED BY IDOCK:   -1.07 KCAL/MOL
REMARK 927      BINDING AFFINITY PREDICTED BY RF-SCORE:    0.00 PKD
ROOT
HETATM    1  O   UNL     1      -6.798  17.437  67.333  1.00  0.00    -0.152 OA 
HETATM    2  C   UNL     1      -7.494  16.555  68.084  1.00  0.00    -0.159 C  
HETATM    3  C   UNL     1      -8.625  15.897  67.376  1.00  0.00    -0.189 A  
HETATM    4  O   UNL     1      -7.177  16.292  69.230  1.00  0.00    -0.212 OA 
HETATM    5  C   UNL     1      -8.793  14.486  67.432  1.00  0.00    -0.198 A  
HETATM    6  I   UNL     1      -7.324  13.218  68.382  1.00  0.00    -0.113 I  
HETATM    7  C   UNL     1      -9.888  13.839  66.792  1.00  0.00    -0.275 A  
HETATM    8  I   UNL     1      -9.629  18.765  66.612  1.00  0.00    -0.404 I  
HETATM    9  C   UNL     1     -10.825  14.631  66.104  1.00  0.00    -0.321 A  
HETATM   10  C   UNL     1      -9.589  16.652  66.686  1.00  0.00    -0.263 A  
HETATM   11  C   UNL     1     -10.663  16.022  66.043  1.00  0.00    -0.271 A  
HETATM   12  I   UNL     1     -12.656  13.915  65.334  1.00  0.00    -0.291 I  
ENDROOT
BRANCH   7  13
HETATM   13  N   UNL     1     -10.032  12.427  66.943  1.00  0.00    -0.212 N  
HETATM   14  O   UNL     1      -9.569  11.859  64.741  1.00  0.00    -0.167 OA 
HETATM   15  C   UNL     1      -9.840  11.539  65.895  1.00  0.00    -0.231 C  
HETATM   16  H   UNL     1     -10.285  12.056  67.859  1.00  0.00     0.000 HD 
BRANCH  15  17
HETATM   17  C   UNL     1      -9.837  10.076  66.319  1.00  0.00    -0.297 C  
BRANCH  17  18
HETATM   18  C   UNL     1      -9.241   9.212  65.211  1.00  0.00    -0.243 C  
BRANCH  18  19
HETATM   19  C   UNL     1      -8.616   7.895  65.684  1.00  0.00    -0.159 C  
BRANCH  19  20
HETATM   20  C   UNL     1      -7.412   8.046  66.620  1.00  0.00    -0.089 C  
BRANCH  20  21
HETATM   21  C   UNL     1      -7.655   7.305  67.930  1.00  0.00    -0.111 C  
HETATM   22  N   UNL     1      -8.999   7.095  68.208  1.00  0.00    -0.126 N  
HETATM   23  O   UNL     1      -6.739   7.006  68.688  1.00  0.00    -0.058 OA 
HETATM   24  H   UNL     1      -9.701   7.432  67.550  1.00  0.00     0.000 HD 
BRANCH  22  25
HETATM   25  C   UNL     1      -9.420   6.420  69.391  1.00  0.00    -0.140 A  
HETATM   26  C   UNL     1      -9.412   5.020  69.498  1.00  0.00    -0.143 A  
HETATM   27  I   UNL     1      -9.101   3.708  67.864  1.00  0.00    -0.233 I  
HETATM   28  C   UNL     1      -9.794   4.395  70.689  1.00  0.00    -0.280 A  
HETATM   29  C   UNL     1     -10.258   5.148  71.776  1.00  0.00    -0.209 A  
HETATM   30  I   UNL     1     -10.893   3.987  73.425  1.00  0.00    -0.295 I  
HETATM   31  C   UNL     1     -10.337   6.549  71.694  1.00  0.00    -0.232 A  
HETATM   32  C   UNL     1     -10.927   7.358  72.800  1.00  0.00    -0.339 C  
HETATM   33  C   UNL     1      -9.909   7.176  70.493  1.00  0.00    -0.179 A  
HETATM   34  O   UNL     1     -11.757   8.230  72.619  1.00  0.00    -0.403 OA 
HETATM   35  I   UNL     1      -9.844   9.328  70.301  1.00  0.00    -0.328 I  
HETATM   36  O   UNL     1     -10.441   7.081  74.030  1.00  0.00    -0.366 OA 
ENDBRANCH  22  25
ENDBRANCH  20  21
ENDBRANCH  19  20
ENDBRANCH  18  19
ENDBRANCH  17  18
ENDBRANCH  15  17
ENDBRANCH   7  13
TORSDOF 7
ENDMDL
MODEL       50
REMARK 921   NORMALIZED FREE ENERGY PREDICTED BY IDOCK:   -5.51 KCAL/MOL
REMARK 922        TOTAL FREE ENERGY PREDICTED BY IDOCK:   -8.68 KCAL/MOL
REMARK 923 INTER-LIGAND FREE ENERGY PREDICTED BY IDOCK:   -7.31 KCAL/MOL
REMARK 924 INTRA-LIGAND FREE ENERGY PREDICTED BY IDOCK:   -1.37 KCAL/MOL
REMARK 927      BINDING AFFINITY PREDICTED BY RF-SCORE:    0.00 PKD
ROOT
HETATM    1  O   UNL     1     -12.811   6.892  71.189  1.00  0.00    -0.354 OA 
HETATM    2  C   UNL     1     -11.645   7.330  70.665  1.00  0.00    -0.290 C  
HETATM    3  C   UNL     1     -10.724   6.252  70.217  1.00  0.00    -0.339 A  
HETATM    4  O   UNL     1     -11.406   8.516  70.527  1.00  0.00    -0.262 OA 
HETATM    5  C   UNL     1     -10.117   6.302  68.932  1.00  0.00    -0.168 A  
HETATM    6  I   UNL     1     -10.644   7.835  67.503  1.00  0.00    -0.128 I  
HETATM    7  C   UNL     1      -9.205   5.299  68.497  1.00  0.00    -0.113 A  
HETATM    8  I   UNL     1     -11.029   5.001  73.074  1.00  0.00    -0.358 I  
HETATM    9  C   UNL     1      -8.895   4.248  69.379  1.00  0.00    -0.092 A  
HETATM   10  C   UNL     1     -10.379   5.189  71.070  1.00  0.00    -0.208 A  
HETATM   11  C   UNL     1      -9.492   4.191  70.646  1.00  0.00    -0.242 A  
HETATM   12  I   UNL     1      -7.369   2.826  69.050  1.00  0.00    -0.047 I  
ENDROOT
BRANCH   7  13
HETATM   13  N   UNL     1      -8.584   5.446  67.221  1.00  0.00    -0.109 N  
HETATM   14  O   UNL     1     -10.117   4.189  66.014  1.00  0.00    -0.207 OA 
HETATM   15  C   UNL     1      -9.107   4.887  66.065  1.00  0.00    -0.139 C  
HETATM   16  H   UNL     1      -7.720   5.985  67.156  1.00  0.00     0.000 HD 
BRANCH  15  17
HETATM   17  C   UNL     1      -8.408   5.339  64.790  1.00  0.00    -0.145 C  
BRANCH  17  18
HETATM   18  C   UNL     1      -7.364   6.405  65.114  1.00  0.00    -0.077 C  
BRANCH  18  19
HETATM   19  C   UNL     1      -7.695   7.810  64.599  1.00  0.00    -0.121 C  
BRANCH  19  20
HETATM   20  C   UNL     1      -6.548   8.822  64.688  1.00  0.00    -0.066 C  
BRANCH  20  21
HETATM   21  C   UNL     1      -7.023  10.113  65.347  1.00  0.00    -0.139 C  
HETATM   22  N   UNL     1      -8.376  10.114  65.653  1.00  0.00    -0.145 N  
HETATM   23  O   UNL     1      -6.278  11.074  65.506  1.00  0.00    -0.041 OA 
HETATM   24  H   UNL     1      -8.937   9.293  65.430  1.00  0.00     0.000 HD 
BRANCH  22  25
HETATM   25  C   UNL     1      -9.001  11.238  66.271  1.00  0.00    -0.197 A  
HETATM   26  C   UNL     1      -8.744  11.598  67.603  1.00  0.00    -0.156 A  
HETATM   27  I   UNL     1      -7.682  10.384  68.976  1.00  0.00    -0.142 I  
HETATM   28  C   UNL     1      -9.345  12.730  68.162  1.00  0.00    -0.214 A  
HETATM   29  C   UNL     1     -10.267  13.489  67.428  1.00  0.00    -0.237 A  
HETATM   30  I   UNL     1     -11.137  15.081  68.514  1.00  0.00    -0.340 I  
HETATM   31  C   UNL     1     -10.597  13.131  66.109  1.00  0.00    -0.288 A  
HETATM   32  C   UNL     1     -11.653  13.863  65.350  1.00  0.00    -0.325 C  
HETATM   33  C   UNL     1      -9.951  12.002  65.538  1.00  0.00    -0.241 A  
HETATM   34  O   UNL     1     -12.543  13.302  64.737  1.00  0.00    -0.577 OA 
HETATM   35  I   UNL     1     -10.264  11.445  63.473  1.00  0.00    -0.473 I  
HETATM   36  O   UNL     1     -11.530  15.208  65.356  1.00  0.00    -0.324 OA 
ENDBRANCH  22  25
ENDBRANCH  20  21
ENDBRANCH  19  20
ENDBRANCH  18  19
ENDBRANCH  17  18
ENDBRANCH  15  17
ENDBRANCH   7  13
TORSDOF 7
ENDMDL
MODEL       51
REMARK 921   NORMALIZED FREE ENERGY PREDICTED BY IDOCK:   -5.49 KCAL/MOL
REMARK 922        TOTAL FREE ENERGY PREDICTED BY IDOCK:   -8.66 KCAL/MOL
REMARK 923 INTER-LIGAND FREE ENERGY PREDICTED BY IDOCK:   -7.48 KCAL/MOL
REMARK 924 INTRA-LIGAND FREE ENERGY PREDICTED BY IDOCK:   -1.17 KCAL/MOL
REMARK 927      BINDING AFFINITY PREDICTED BY RF-SCORE:    0.00 PKD
ROOT
HETATM    1  O   UNL     1      -5.480   2.239  72.218  1.00  0.00    -0.003 OA 
HETATM    2  C   UNL     1      -6.120   2.251  71.028  1.00  0.00    -0.018 C  
HETATM    3  C   UNL     1      -7.197   3.271  70.914  1.00  0.00    -0.033 A  
HETATM    4  O   UNL     1      -5.794   1.517  70.112  1.00  0.00    -0.016 OA 
HETATM    5  C   UNL     1      -7.269   4.129  69.783  1.00  0.00    -0.049 A  
HETATM    6  I   UNL     1      -5.723   4.125  68.273  1.00  0.00    -0.023 I  
HETATM    7  C   UNL     1      -8.311   5.087  69.637  1.00  0.00    -0.088 A  
HETATM    8  I   UNL     1      -8.391   2.095  73.562  1.00  0.00    -0.063 I  
HETATM    9  C   UNL     1      -9.296   5.163  70.639  1.00  0.00    -0.159 A  
HETATM   10  C   UNL     1      -8.207   3.374  71.887  1.00  0.00    -0.063 A  
HETATM   11  C   UNL     1      -9.230   4.322  71.758  1.00  0.00    -0.178 A  
HETATM   12  I   UNL     1     -11.068   6.302  70.487  1.00  0.00    -0.366 I  
ENDROOT
BRANCH   7  13
HETATM   13  N   UNL     1      -8.359   5.871  68.446  1.00  0.00    -0.111 N  
HETATM   14  O   UNL     1      -9.697   4.431  67.213  1.00  0.00    -0.181 OA 
HETATM   15  C   UNL     1      -9.072   5.482  67.322  1.00  0.00    -0.110 C  
HETATM   16  H   UNL     1      -7.848   6.754  68.420  1.00  0.00     0.000 HD 
BRANCH  15  17
HETATM   17  C   UNL     1      -9.161   6.556  66.245  1.00  0.00    -0.168 C  
BRANCH  17  18
HETATM   18  C   UNL     1      -8.493   7.841  66.731  1.00  0.00    -0.126 C  
BRANCH  18  19
HETATM   19  C   UNL     1      -9.417   9.061  66.805  1.00  0.00    -0.238 C  
BRANCH  19  20
HETATM   20  C   UNL     1     -10.651   8.890  67.696  1.00  0.00    -0.292 C  
BRANCH  20  21
HETATM   21  C   UNL     1     -10.699   9.981  68.761  1.00  0.00    -0.223 C  
HETATM   22  N   UNL     1     -11.903  10.669  68.797  1.00  0.00    -0.505 N  
HETATM   23  O   UNL     1      -9.724  10.258  69.451  1.00  0.00    -0.213 OA 
HETATM   24  H   UNL     1     -12.642  10.412  68.143  1.00  0.00     0.000 HD 
BRANCH  22  25
HETATM   25  C   UNL     1     -12.132  11.726  69.726  1.00  0.00    -0.269 A  
HETATM   26  C   UNL     1     -12.661  11.497  71.006  1.00  0.00    -0.357 A  
HETATM   27  I   UNL     1     -13.493   9.651  71.631  1.00  0.00    -0.332 I  
HETATM   28  C   UNL     1     -12.833  12.554  71.905  1.00  0.00    -0.311 A  
HETATM   29  C   UNL     1     -12.547  13.872  71.524  1.00  0.00    -0.334 A  
HETATM   30  I   UNL     1     -12.996  15.317  73.001  1.00  0.00    -0.754 I  
HETATM   31  C   UNL     1     -12.069  14.155  70.233  1.00  0.00    -0.412 A  
HETATM   32  C   UNL     1     -11.859  15.560  69.776  1.00  0.00    -0.359 C  
HETATM   33  C   UNL     1     -11.860  13.068  69.341  1.00  0.00    -0.322 A  
HETATM   34  O   UNL     1     -12.266  15.981  68.708  1.00  0.00    -0.136 OA 
HETATM   35  I   UNL     1     -10.990  13.362  67.385  1.00  0.00    -0.329 I  
HETATM   36  O   UNL     1     -11.141  16.332  70.620  1.00  0.00    -0.341 OA 
ENDBRANCH  22  25
ENDBRANCH  20  21
ENDBRANCH  19  20
ENDBRANCH  18  19
ENDBRANCH  17  18
ENDBRANCH  15  17
ENDBRANCH   7  13
TORSDOF 7
ENDMDL
MODEL       52
REMARK 921   NORMALIZED FREE ENERGY PREDICTED BY IDOCK:   -5.48 KCAL/MOL
REMARK 922        TOTAL FREE ENERGY PREDICTED BY IDOCK:   -8.65 KCAL/MOL
REMARK 923 INTER-LIGAND FREE ENERGY PREDICTED BY IDOCK:   -8.45 KCAL/MOL
REMARK 924 INTRA-LIGAND FREE ENERGY PREDICTED BY IDOCK:   -0.20 KCAL/MOL
REMARK 927      BINDING AFFINITY PREDICTED BY RF-SCORE:    0.00 PKD
ROOT
HETATM    1  O   UNL     1     -10.942  15.807  65.568  1.00  0.00    -0.322 OA 
HETATM    2  C   UNL     1     -10.354  15.007  66.484  1.00  0.00    -0.284 C  
HETATM    3  C   UNL     1     -10.855  15.184  67.874  1.00  0.00    -0.291 A  
HETATM    4  O   UNL     1      -9.520  14.176  66.173  1.00  0.00    -0.272 OA 
HETATM    5  C   UNL     1     -11.225  14.060  68.661  1.00  0.00    -0.268 A  
HETATM    6  I   UNL     1     -11.258  12.068  67.824  1.00  0.00    -0.397 I  
HETATM    7  C   UNL     1     -11.673  14.204  70.004  1.00  0.00    -0.291 A  
HETATM    8  I   UNL     1     -10.265  18.244  67.544  1.00  0.00    -0.441 I  
HETATM    9  C   UNL     1     -11.730  15.496  70.557  1.00  0.00    -0.349 A  
HETATM   10  C   UNL     1     -10.918  16.457  68.467  1.00  0.00    -0.350 A  
HETATM   11  C   UNL     1     -11.370  16.609  69.785  1.00  0.00     0.083 A  
HETATM   12  I   UNL     1     -12.090  15.907  72.596  1.00  0.00    -0.642 I  
ENDROOT
BRANCH   7  13
HETATM   13  N   UNL     1     -11.967  13.028  70.757  1.00  0.00    -0.497 N  
HETATM   14  O   UNL     1     -14.115  13.631  71.397  1.00  0.00    -0.060 OA 
HETATM   15  C   UNL     1     -13.186  12.826  71.386  1.00  0.00    -0.152 C  
HETATM   16  H   UNL     1     -11.251  12.306  70.837  1.00  0.00     0.000 HD 
BRANCH  15  17
HETATM   17  C   UNL     1     -13.364  11.424  71.953  1.00  0.00    -0.409 C  
BRANCH  17  18
HETATM   18  C   UNL     1     -12.825  10.389  70.969  1.00  0.00    -0.494 C  
BRANCH  18  19
HETATM   19  C   UNL     1     -12.343   9.081  71.606  1.00  0.00    -0.416 C  
BRANCH  19  20
HETATM   20  C   UNL     1     -10.831   8.843  71.538  1.00  0.00    -0.396 C  
BRANCH  20  21
HETATM   21  C   UNL     1     -10.532   7.439  71.023  1.00  0.00    -0.215 C  
HETATM   22  N   UNL     1      -9.392   7.369  70.235  1.00  0.00    -0.162 N  
HETATM   23  O   UNL     1     -11.287   6.496  71.231  1.00  0.00    -0.276 OA 
HETATM   24  H   UNL     1      -8.854   8.217  70.062  1.00  0.00     0.000 HD 
BRANCH  22  25
HETATM   25  C   UNL     1      -8.956   6.137  69.662  1.00  0.00    -0.134 A  
HETATM   26  C   UNL     1      -8.302   5.151  70.417  1.00  0.00    -0.105 A  
HETATM   27  I   UNL     1      -7.578   5.449  72.385  1.00  0.00    -0.100 I  
HETATM   28  C   UNL     1      -7.925   3.939  69.829  1.00  0.00    -0.058 A  
HETATM   29  C   UNL     1      -8.129   3.712  68.461  1.00  0.00    -0.070 A  
HETATM   30  I   UNL     1      -7.373   1.863  67.769  1.00  0.00    -0.055 I  
HETATM   31  C   UNL     1      -8.729   4.695  67.655  1.00  0.00    -0.108 A  
HETATM   32  C   UNL     1      -8.858   4.513  66.180  1.00  0.00    -0.118 C  
HETATM   33  C   UNL     1      -9.144   5.906  68.271  1.00  0.00    -0.118 A  
HETATM   34  O   UNL     1      -8.543   5.369  65.373  1.00  0.00    -0.142 OA 
HETATM   35  I   UNL     1     -10.210   7.429  67.167  1.00  0.00    -0.383 I  
HETATM   36  O   UNL     1      -9.394   3.334  65.796  1.00  0.00    -0.154 OA 
ENDBRANCH  22  25
ENDBRANCH  20  21
ENDBRANCH  19  20
ENDBRANCH  18  19
ENDBRANCH  17  18
ENDBRANCH  15  17
ENDBRANCH   7  13
TORSDOF 7
ENDMDL
MODEL       53
REMARK 921   NORMALIZED FREE ENERGY PREDICTED BY IDOCK:   -5.45 KCAL/MOL
REMARK 922        TOTAL FREE ENERGY PREDICTED BY IDOCK:   -8.59 KCAL/MOL
REMARK 923 INTER-LIGAND FREE ENERGY PREDICTED BY IDOCK:   -7.51 KCAL/MOL
REMARK 924 INTRA-LIGAND FREE ENERGY PREDICTED BY IDOCK:   -1.09 KCAL/MOL
REMARK 927      BINDING AFFINITY PREDICTED BY RF-SCORE:    0.00 PKD
ROOT
HETATM    1  O   UNL     1      -7.551   3.911  66.391  1.00  0.00    -0.086 OA 
HETATM    2  C   UNL     1      -8.403   3.899  67.439  1.00  0.00    -0.098 C  
HETATM    3  C   UNL     1      -7.912   4.619  68.645  1.00  0.00    -0.079 A  
HETATM    4  O   UNL     1      -9.504   3.383  67.369  1.00  0.00    -0.205 OA 
HETATM    5  C   UNL     1      -8.742   5.556  69.319  1.00  0.00    -0.107 A  
HETATM    6  I   UNL     1     -10.671   6.120  68.526  1.00  0.00    -0.338 I  
HETATM    7  C   UNL     1      -8.305   6.229  70.496  1.00  0.00    -0.129 A  
HETATM    8  I   UNL     1      -5.314   2.879  68.449  1.00  0.00    -0.014 I  
HETATM    9  C   UNL     1      -7.025   5.936  70.999  1.00  0.00    -0.067 A  
HETATM   10  C   UNL     1      -6.644   4.348  69.187  1.00  0.00    -0.041 A  
HETATM   11  C   UNL     1      -6.201   5.015  70.337  1.00  0.00    -0.019 A  
HETATM   12  I   UNL     1      -6.296   6.599  72.867  1.00  0.00    -0.059 I  
ENDROOT
BRANCH   7  13
HETATM   13  N   UNL     1      -9.213   7.109  71.158  1.00  0.00    -0.157 N  
HETATM   14  O   UNL     1     -10.191   5.519  72.537  1.00  0.00    -0.180 OA 
HETATM   15  C   UNL     1     -10.081   6.680  72.150  1.00  0.00    -0.178 C  
HETATM   16  H   UNL     1      -9.224   8.093  70.890  1.00  0.00     0.000 HD 
BRANCH  15  17
HETATM   17  C   UNL     1     -10.808   7.811  72.866  1.00  0.00    -0.453 C  
BRANCH  17  18
HETATM   18  C   UNL     1     -12.269   7.855  72.426  1.00  0.00    -0.295 C  
BRANCH  18  19
HETATM   19  C   UNL     1     -12.588   8.893  71.345  1.00  0.00    -0.351 C  
BRANCH  19  20
HETATM   20  C   UNL     1     -11.511   9.962  71.132  1.00  0.00    -0.459 C  
BRANCH  20  21
HETATM   21  C   UNL     1     -11.862  10.846  69.940  1.00  0.00    -0.349 C  
HETATM   22  N   UNL     1     -10.795  11.603  69.478  1.00  0.00    -0.454 N  
HETATM   23  O   UNL     1     -13.004  10.924  69.502  1.00  0.00    -0.121 OA 
HETATM   24  H   UNL     1      -9.890  11.522  69.941  1.00  0.00     0.000 HD 
BRANCH  22  25
HETATM   25  C   UNL     1     -10.934  12.492  68.371  1.00  0.00    -0.248 A  
HETATM   26  C   UNL     1     -11.350  13.823  68.528  1.00  0.00    -0.285 A  
HETATM   27  I   UNL     1     -12.137  14.616  70.328  1.00  0.00    -0.435 I  
HETATM   28  C   UNL     1     -11.436  14.676  67.423  1.00  0.00    -0.384 A  
HETATM   29  C   UNL     1     -11.176  14.203  66.130  1.00  0.00    -0.326 A  
HETATM   30  I   UNL     1     -11.485  15.634  64.605  1.00  0.00     0.088 I  
HETATM   31  C   UNL     1     -10.811  12.861  65.920  1.00  0.00    -0.294 A  
HETATM   32  C   UNL     1     -10.634  12.313  64.543  1.00  0.00    -0.311 C  
HETATM   33  C   UNL     1     -10.688  12.014  67.054  1.00  0.00    -0.242 A  
HETATM   34  O   UNL     1     -11.130  11.264  64.174  1.00  0.00    -0.354 OA 
HETATM   35  I   UNL     1      -9.991   9.976  66.873  1.00  0.00    -0.300 I  
HETATM   36  O   UNL     1      -9.840  13.049  63.736  1.00  0.00    -0.178 OA 
ENDBRANCH  22  25
ENDBRANCH  20  21
ENDBRANCH  19  20
ENDBRANCH  18  19
ENDBRANCH  17  18
ENDBRANCH  15  17
ENDBRANCH   7  13
TORSDOF 7
ENDMDL
MODEL       54
REMARK 921   NORMALIZED FREE ENERGY PREDICTED BY IDOCK:   -5.43 KCAL/MOL
REMARK 922        TOTAL FREE ENERGY PREDICTED BY IDOCK:   -8.57 KCAL/MOL
REMARK 923 INTER-LIGAND FREE ENERGY PREDICTED BY IDOCK:   -7.82 KCAL/MOL
REMARK 924 INTRA-LIGAND FREE ENERGY PREDICTED BY IDOCK:   -0.75 KCAL/MOL
REMARK 927      BINDING AFFINITY PREDICTED BY RF-SCORE:    0.00 PKD
ROOT
HETATM    1  O   UNL     1      -9.745   4.193  72.609  1.00  0.00    -0.134 OA 
HETATM    2  C   UNL     1      -9.122   5.357  72.320  1.00  0.00    -0.142 C  
HETATM    3  C   UNL     1      -8.784   5.538  70.883  1.00  0.00    -0.140 A  
HETATM    4  O   UNL     1      -8.909   6.203  73.170  1.00  0.00    -0.131 OA 
HETATM    5  C   UNL     1      -9.104   6.747  70.208  1.00  0.00    -0.153 A  
HETATM    6  I   UNL     1     -10.258   8.298  71.175  1.00  0.00    -0.303 I  
HETATM    7  C   UNL     1      -8.759   6.956  68.843  1.00  0.00    -0.130 A  
HETATM    8  I   UNL     1      -7.365   2.747  71.013  1.00  0.00    -0.032 I  
HETATM    9  C   UNL     1      -8.068   5.935  68.164  1.00  0.00    -0.109 A  
HETATM   10  C   UNL     1      -8.085   4.548  70.170  1.00  0.00    -0.063 A  
HETATM   11  C   UNL     1      -7.752   4.739  68.823  1.00  0.00    -0.072 A  
HETATM   12  I   UNL     1      -7.218   6.145  66.243  1.00  0.00    -0.075 I  
ENDROOT
BRANCH   7  13
HETATM   13  N   UNL     1      -9.054   8.218  68.247  1.00  0.00    -0.136 N  
HETATM   14  O   UNL     1     -10.763   7.484  66.861  1.00  0.00    -0.352 OA 
HETATM   15  C   UNL     1     -10.057   8.385  67.305  1.00  0.00    -0.253 C  
HETATM   16  H   UNL     1      -8.504   9.031  68.526  1.00  0.00     0.000 HD 
BRANCH  15  17
HETATM   17  C   UNL     1     -10.342   9.840  66.958  1.00  0.00    -0.305 C  
BRANCH  17  18
HETATM   18  C   UNL     1      -9.175  10.427  66.165  1.00  0.00    -0.199 C  
BRANCH  18  19
HETATM   19  C   UNL     1      -9.019  11.947  66.277  1.00  0.00    -0.157 C  
BRANCH  19  20
HETATM   20  C   UNL     1     -10.174  12.765  65.690  1.00  0.00    -0.292 C  
BRANCH  20  21
HETATM   21  C   UNL     1     -10.927  13.498  66.795  1.00  0.00    -0.292 C  
HETATM   22  N   UNL     1     -10.338  13.371  68.046  1.00  0.00    -0.235 N  
HETATM   23  O   UNL     1     -11.992  14.069  66.588  1.00  0.00    -0.402 OA 
HETATM   24  H   UNL     1      -9.482  12.825  68.140  1.00  0.00     0.000 HD 
BRANCH  22  25
HETATM   25  C   UNL     1     -10.903  13.987  69.202  1.00  0.00    -0.206 A  
HETATM   26  C   UNL     1     -10.588  15.302  69.579  1.00  0.00    -0.267 A  
HETATM   27  I   UNL     1      -9.023  16.440  68.716  1.00  0.00    -0.206 I  
HETATM   28  C   UNL     1     -11.192  15.886  70.697  1.00  0.00    -0.402 A  
HETATM   29  C   UNL     1     -12.070  15.149  71.503  1.00  0.00    -0.345 A  
HETATM   30  I   UNL     1     -12.768  16.195  73.203  1.00  0.00    -0.383 I  
HETATM   31  C   UNL     1     -12.370  13.810  71.196  1.00  0.00    -0.428 A  
HETATM   32  C   UNL     1     -13.218  12.980  72.100  1.00  0.00    -0.457 C  
HETATM   33  C   UNL     1     -11.781  13.240  70.035  1.00  0.00    -0.225 A  
HETATM   34  O   UNL     1     -12.912  11.856  72.455  1.00  0.00    -0.183 OA 
HETATM   35  I   UNL     1     -12.282  11.242  69.378  1.00  0.00     0.102 I  
HETATM   36  O   UNL     1     -14.385  13.551  72.470  1.00  0.00    -0.713 OA 
ENDBRANCH  22  25
ENDBRANCH  20  21
ENDBRANCH  19  20
ENDBRANCH  18  19
ENDBRANCH  17  18
ENDBRANCH  15  17
ENDBRANCH   7  13
TORSDOF 7
ENDMDL
MODEL       55
REMARK 921   NORMALIZED FREE ENERGY PREDICTED BY IDOCK:   -5.40 KCAL/MOL
REMARK 922        TOTAL FREE ENERGY PREDICTED BY IDOCK:   -8.53 KCAL/MOL
REMARK 923 INTER-LIGAND FREE ENERGY PREDICTED BY IDOCK:   -7.20 KCAL/MOL
REMARK 924 INTRA-LIGAND FREE ENERGY PREDICTED BY IDOCK:   -1.33 KCAL/MOL
REMARK 927      BINDING AFFINITY PREDICTED BY RF-SCORE:    0.00 PKD
ROOT
HETATM    1  O   UNL     1     -11.881  14.903  66.619  1.00  0.00    -0.291 OA 
HETATM    2  C   UNL     1     -10.846  14.348  65.951  1.00  0.00    -0.304 C  
HETATM    3  C   UNL     1      -9.768  13.804  66.820  1.00  0.00    -0.277 A  
HETATM    4  O   UNL     1     -10.836  14.259  64.736  1.00  0.00    -0.390 OA 
HETATM    5  C   UNL     1      -9.253  12.497  66.605  1.00  0.00    -0.223 A  
HETATM    6  I   UNL     1     -10.130  11.172  65.140  1.00  0.00    -0.383 I  
HETATM    7  C   UNL     1      -8.197  11.970  67.403  1.00  0.00    -0.168 A  
HETATM    8  I   UNL     1      -9.681  16.606  68.221  1.00  0.00    -0.277 I  
HETATM    9  C   UNL     1      -7.651  12.783  68.413  1.00  0.00    -0.133 A  
HETATM   10  C   UNL     1      -9.188  14.586  67.834  1.00  0.00    -0.196 A  
HETATM   11  C   UNL     1      -8.157  14.072  68.631  1.00  0.00    -0.113 A  
HETATM   12  I   UNL     1      -5.911  12.312  69.512  1.00  0.00    -0.135 I  
ENDROOT
BRANCH   7  13
HETATM   13  N   UNL     1      -7.685  10.675  67.091  1.00  0.00    -0.107 N  
HETATM   14  O   UNL     1      -5.955  11.380  65.713  1.00  0.00    -0.063 OA 
HETATM   15  C   UNL     1      -6.580  10.484  66.275  1.00  0.00    -0.118 C  
HETATM   16  H   UNL     1      -8.150   9.857  67.484  1.00  0.00     0.000 HD 
BRANCH  15  17
HETATM   17  C   UNL     1      -6.078   9.047  66.244  1.00  0.00    -0.063 C  
BRANCH  17  18
HETATM   18  C   UNL     1      -6.779   8.271  65.131  1.00  0.00    -0.055 C  
BRANCH  18  19
HETATM   19  C   UNL     1      -7.793   7.228  65.611  1.00  0.00    -0.112 C  
BRANCH  19  20
HETATM   20  C   UNL     1      -9.220   7.750  65.809  1.00  0.00    -0.004 C  
BRANCH  20  21
HETATM   21  C   UNL     1      -9.862   7.104  67.033  1.00  0.00    -0.198 C  
HETATM   22  N   UNL     1      -9.000   6.984  68.113  1.00  0.00    -0.128 N  
HETATM   23  O   UNL     1     -11.007   6.668  67.011  1.00  0.00    -0.376 OA 
HETATM   24  H   UNL     1      -8.041   7.320  68.025  1.00  0.00     0.000 HD 
BRANCH  22  25
HETATM   25  C   UNL     1      -9.423   6.401  69.345  1.00  0.00    -0.140 A  
HETATM   26  C   UNL     1      -9.388   5.016  69.568  1.00  0.00    -0.128 A  
HETATM   27  I   UNL     1      -9.029   3.579  68.054  1.00  0.00    -0.233 I  
HETATM   28  C   UNL     1      -9.773   4.485  70.803  1.00  0.00    -0.267 A  
HETATM   29  C   UNL     1     -10.268   5.316  71.818  1.00  0.00    -0.210 A  
HETATM   30  I   UNL     1     -10.900   4.283  73.551  1.00  0.00    -0.347 I  
HETATM   31  C   UNL     1     -10.374   6.703  71.617  1.00  0.00    -0.227 A  
HETATM   32  C   UNL     1     -10.995   7.589  72.645  1.00  0.00    -0.336 C  
HETATM   33  C   UNL     1      -9.942   7.237  70.373  1.00  0.00    -0.191 A  
HETATM   34  O   UNL     1     -11.840   8.425  72.381  1.00  0.00    -0.372 OA 
HETATM   35  I   UNL     1      -9.918   9.366  70.002  1.00  0.00    -0.325 I  
HETATM   36  O   UNL     1     -10.520   7.426  73.899  1.00  0.00    -0.314 OA 
ENDBRANCH  22  25
ENDBRANCH  20  21
ENDBRANCH  19  20
ENDBRANCH  18  19
ENDBRANCH  17  18
ENDBRANCH  15  17
ENDBRANCH   7  13
TORSDOF 7
ENDMDL
MODEL       56
REMARK 921   NORMALIZED FREE ENERGY PREDICTED BY IDOCK:   -5.34 KCAL/MOL
REMARK 922        TOTAL FREE ENERGY PREDICTED BY IDOCK:   -8.45 KCAL/MOL
REMARK 923 INTER-LIGAND FREE ENERGY PREDICTED BY IDOCK:   -6.98 KCAL/MOL
REMARK 924 INTRA-LIGAND FREE ENERGY PREDICTED BY IDOCK:   -1.47 KCAL/MOL
REMARK 927      BINDING AFFINITY PREDICTED BY RF-SCORE:    0.00 PKD
ROOT
HETATM    1  O   UNL     1     -12.846  12.236  72.639  1.00  0.00     0.127 OA 
HETATM    2  C   UNL     1     -12.972  11.828  71.357  1.00  0.00    -0.306 C  
HETATM    3  C   UNL     1     -12.325  12.720  70.357  1.00  0.00    -0.324 A  
HETATM    4  O   UNL     1     -13.528  10.785  71.064  1.00  0.00    -0.104 OA 
HETATM    5  C   UNL     1     -11.476  12.185  69.350  1.00  0.00    -0.290 A  
HETATM    6  I   UNL     1     -10.937  10.093  69.332  1.00  0.00    -0.289 I  
HETATM    7  C   UNL     1     -10.875  13.016  68.362  1.00  0.00    -0.258 A  
HETATM    8  I   UNL     1     -13.934  15.085  71.637  1.00  0.00    -0.693 I  
HETATM    9  C   UNL     1     -11.151  14.395  68.388  1.00  0.00    -0.255 A  
HETATM   10  C   UNL     1     -12.581  14.102  70.342  1.00  0.00    -0.332 A  
HETATM   11  C   UNL     1     -11.984  14.929  69.381  1.00  0.00    -0.336 A  
HETATM   12  I   UNL     1     -10.599  15.752  66.867  1.00  0.00    -0.220 I  
ENDROOT
BRANCH   7  13
HETATM   13  N   UNL     1     -10.087  12.405  67.342  1.00  0.00    -0.201 N  
HETATM   14  O   UNL     1     -11.816  12.013  65.845  1.00  0.00    -0.499 OA 
HETATM   15  C   UNL     1     -10.626  11.963  66.143  1.00  0.00    -0.258 C  
HETATM   16  H   UNL     1      -9.086  12.289  67.500  1.00  0.00     0.000 HD 
BRANCH  15  17
HETATM   17  C   UNL     1      -9.583  11.538  65.117  1.00  0.00    -0.235 C  
BRANCH  17  18
HETATM   18  C   UNL     1      -8.394  10.885  65.819  1.00  0.00    -0.133 C  
BRANCH  18  19
HETATM   19  C   UNL     1      -8.168   9.411  65.470  1.00  0.00    -0.127 C  
BRANCH  19  20
HETATM   20  C   UNL     1      -6.866   8.808  66.006  1.00  0.00    -0.073 C  
BRANCH  20  21
HETATM   21  C   UNL     1      -7.163   7.716  67.029  1.00  0.00    -0.089 C  
HETATM   22  N   UNL     1      -8.080   8.098  67.998  1.00  0.00    -0.127 N  
HETATM   23  O   UNL     1      -6.574   6.641  67.022  1.00  0.00    -0.044 OA 
HETATM   24  H   UNL     1      -8.478   9.036  67.964  1.00  0.00     0.000 HD 
BRANCH  22  25
HETATM   25  C   UNL     1      -8.479   7.209  69.040  1.00  0.00    -0.129 A  
HETATM   26  C   UNL     1      -9.372   6.148  68.817  1.00  0.00    -0.123 A  
HETATM   27  I   UNL     1     -10.497   5.898  67.040  1.00  0.00    -0.374 I  
HETATM   28  C   UNL     1      -9.709   5.273  69.855  1.00  0.00    -0.260 A  
HETATM   29  C   UNL     1      -9.219   5.477  71.152  1.00  0.00    -0.149 A  
HETATM   30  I   UNL     1      -9.954   4.103  72.581  1.00  0.00    -0.238 I  
HETATM   31  C   UNL     1      -8.367   6.560  71.432  1.00  0.00    -0.125 A  
HETATM   32  C   UNL     1      -7.921   6.853  72.826  1.00  0.00    -0.104 C  
HETATM   33  C   UNL     1      -8.000   7.419  70.362  1.00  0.00    -0.103 A  
HETATM   34  O   UNL     1      -7.968   7.965  73.320  1.00  0.00    -0.133 OA 
HETATM   35  I   UNL     1      -6.582   9.027  70.639  1.00  0.00    -0.087 I  
HETATM   36  O   UNL     1      -7.416   5.795  73.496  1.00  0.00    -0.090 OA 
ENDBRANCH  22  25
ENDBRANCH  20  21
ENDBRANCH  19  20
ENDBRANCH  18  19
ENDBRANCH  17  18
ENDBRANCH  15  17
ENDBRANCH   7  13
TORSDOF 7
ENDMDL
MODEL       57
REMARK 921   NORMALIZED FREE ENERGY PREDICTED BY IDOCK:   -5.33 KCAL/MOL
REMARK 922        TOTAL FREE ENERGY PREDICTED BY IDOCK:   -8.43 KCAL/MOL
REMARK 923 INTER-LIGAND FREE ENERGY PREDICTED BY IDOCK:   -7.63 KCAL/MOL
REMARK 924 INTRA-LIGAND FREE ENERGY PREDICTED BY IDOCK:   -0.80 KCAL/MOL
REMARK 927      BINDING AFFINITY PREDICTED BY RF-SCORE:    0.00 PKD
ROOT
HETATM    1  O   UNL     1      -9.838   1.824  68.010  1.00  0.00    -0.048 OA 
HETATM    2  C   UNL     1      -9.192   2.952  68.376  1.00  0.00    -0.189 C  
HETATM    3  C   UNL     1      -8.913   3.897  67.261  1.00  0.00    -0.151 A  
HETATM    4  O   UNL     1      -8.915   3.188  69.539  1.00  0.00    -0.085 OA 
HETATM    5  C   UNL     1      -9.225   5.278  67.385  1.00  0.00    -0.113 A  
HETATM    6  I   UNL     1     -10.284   6.039  69.107  1.00  0.00    -0.358 I  
HETATM    7  C   UNL     1      -8.934   6.205  66.344  1.00  0.00    -0.150 A  
HETATM    8  I   UNL     1      -7.579   1.495  65.753  1.00  0.00    -0.069 I  
HETATM    9  C   UNL     1      -8.307   5.728  65.178  1.00  0.00    -0.146 A  
HETATM   10  C   UNL     1      -8.278   3.464  66.084  1.00  0.00    -0.097 A  
HETATM   11  C   UNL     1      -7.999   4.366  65.050  1.00  0.00    -0.097 A  
HETATM   12  I   UNL     1      -7.537   6.962  63.647  1.00  0.00    -0.071 I  
ENDROOT
BRANCH   7  13
HETATM   13  N   UNL     1      -9.215   7.587  66.560  1.00  0.00    -0.168 N  
HETATM   14  O   UNL     1      -7.207   8.126  67.591  1.00  0.00    -0.087 OA 
HETATM   15  C   UNL     1      -8.309   8.450  67.158  1.00  0.00    -0.122 C  
HETATM   16  H   UNL     1     -10.118   7.955  66.262  1.00  0.00     0.000 HD 
BRANCH  15  17
HETATM   17  C   UNL     1      -8.723   9.915  67.101  1.00  0.00    -0.136 C  
BRANCH  17  18
HETATM   18  C   UNL     1      -9.975  10.072  66.240  1.00  0.00    -0.310 C  
BRANCH  18  19
HETATM   19  C   UNL     1     -11.246  10.441  67.011  1.00  0.00    -0.015 C  
BRANCH  19  20
HETATM   20  C   UNL     1     -11.022  10.897  68.457  1.00  0.00    -0.278 C  
BRANCH  20  21
HETATM   21  C   UNL     1     -10.504  12.331  68.492  1.00  0.00    -0.232 C  
HETATM   22  N   UNL     1     -11.477  13.279  68.210  1.00  0.00    -0.294 N  
HETATM   23  O   UNL     1      -9.320  12.590  68.676  1.00  0.00    -0.122 OA 
HETATM   24  H   UNL     1     -12.428  12.971  68.008  1.00  0.00     0.000 HD 
BRANCH  22  25
HETATM   25  C   UNL     1     -11.178  14.674  68.194  1.00  0.00    -0.289 A  
HETATM   26  C   UNL     1     -11.237  15.465  69.353  1.00  0.00    -0.296 A  
HETATM   27  I   UNL     1     -12.073  14.818  71.189  1.00  0.00    -0.450 I  
HETATM   28  C   UNL     1     -10.898  16.820  69.306  1.00  0.00    -0.275 A  
HETATM   29  C   UNL     1     -10.560  17.433  68.092  1.00  0.00    -0.376 A  
HETATM   30  I   UNL     1     -10.202  19.512  68.241  1.00  0.00    -0.373 I  
HETATM   31  C   UNL     1     -10.544  16.692  66.897  1.00  0.00    -0.229 A  
HETATM   32  C   UNL     1     -10.290  17.349  65.582  1.00  0.00    -0.149 C  
HETATM   33  C   UNL     1     -10.851  15.306  66.963  1.00  0.00    -0.321 A  
HETATM   34  O   UNL     1     -10.983  17.161  64.598  1.00  0.00    -1.005 OA 
HETATM   35  I   UNL     1     -10.715  14.034  65.221  1.00  0.00    -0.448 I  
HETATM   36  O   UNL     1      -9.200  18.146  65.544  1.00  0.00    -0.077 OA 
ENDBRANCH  22  25
ENDBRANCH  20  21
ENDBRANCH  19  20
ENDBRANCH  18  19
ENDBRANCH  17  18
ENDBRANCH  15  17
ENDBRANCH   7  13
TORSDOF 7
ENDMDL
MODEL       58
REMARK 921   NORMALIZED FREE ENERGY PREDICTED BY IDOCK:   -5.30 KCAL/MOL
REMARK 922        TOTAL FREE ENERGY PREDICTED BY IDOCK:   -8.39 KCAL/MOL
REMARK 923 INTER-LIGAND FREE ENERGY PREDICTED BY IDOCK:   -6.82 KCAL/MOL
REMARK 924 INTRA-LIGAND FREE ENERGY PREDICTED BY IDOCK:   -1.58 KCAL/MOL
REMARK 927      BINDING AFFINITY PREDICTED BY RF-SCORE:    0.00 PKD
ROOT
HETATM    1  O   UNL     1     -12.783  16.305  69.231  1.00  0.00     0.339 OA 
HETATM    2  C   UNL     1     -11.566  15.726  69.313  1.00  0.00    -0.373 C  
HETATM    3  C   UNL     1     -11.594  14.259  69.560  1.00  0.00    -0.353 A  
HETATM    4  O   UNL     1     -10.538  16.357  69.143  1.00  0.00    -0.265 OA 
HETATM    5  C   UNL     1     -10.810  13.375  68.770  1.00  0.00    -0.246 A  
HETATM    6  I   UNL     1      -9.692  14.087  67.063  1.00  0.00    -0.288 I  
HETATM    7  C   UNL     1     -10.794  11.972  69.013  1.00  0.00    -0.177 A  
HETATM    8  I   UNL     1     -13.449  14.853  72.015  1.00  0.00    -0.699 I  
HETATM    9  C   UNL     1     -11.567  11.467  70.074  1.00  0.00    -0.299 A  
HETATM   10  C   UNL     1     -12.344  13.714  70.617  1.00  0.00    -0.368 A  
HETATM   11  C   UNL     1     -12.344  12.334  70.855  1.00  0.00    -0.363 A  
HETATM   12  I   UNL     1     -11.470   9.479  70.780  1.00  0.00    -0.421 I  
ENDROOT
BRANCH   7  13
HETATM   13  N   UNL     1      -9.935  11.150  68.223  1.00  0.00    -0.180 N  
HETATM   14  O   UNL     1     -11.513  10.533  66.638  1.00  0.00    -0.025 OA 
HETATM   15  C   UNL     1     -10.366  10.504  67.075  1.00  0.00    -0.237 C  
HETATM   16  H   UNL     1      -8.965  11.034  68.515  1.00  0.00     0.000 HD 
BRANCH  15  17
HETATM   17  C   UNL     1      -9.244   9.855  66.274  1.00  0.00    -0.208 C  
BRANCH  17  18
HETATM   18  C   UNL     1      -7.955  10.659  66.433  1.00  0.00    -0.142 C  
BRANCH  18  19
HETATM   19  C   UNL     1      -6.870   9.981  67.275  1.00  0.00    -0.082 C  
BRANCH  19  20
HETATM   20  C   UNL     1      -6.500   8.560  66.836  1.00  0.00    -0.057 C  
BRANCH  20  21
HETATM   21  C   UNL     1      -6.972   7.541  67.868  1.00  0.00    -0.076 C  
HETATM   22  N   UNL     1      -7.929   8.038  68.742  1.00  0.00    -0.117 N  
HETATM   23  O   UNL     1      -6.479   6.421  67.949  1.00  0.00    -0.044 OA 
HETATM   24  H   UNL     1      -8.240   9.004  68.641  1.00  0.00     0.000 HD 
BRANCH  22  25
HETATM   25  C   UNL     1      -8.486   7.230  69.776  1.00  0.00    -0.136 A  
HETATM   26  C   UNL     1      -9.536   6.329  69.539  1.00  0.00    -0.147 A  
HETATM   27  I   UNL     1     -10.655   6.260  67.741  1.00  0.00    -0.436 I  
HETATM   28  C   UNL     1     -10.030   5.524  70.570  1.00  0.00    -0.276 A  
HETATM   29  C   UNL     1      -9.536   5.650  71.876  1.00  0.00    -0.152 A  
HETATM   30  I   UNL     1     -10.512   4.420  73.292  1.00  0.00    -0.338 I  
HETATM   31  C   UNL     1      -8.524   6.580  72.171  1.00  0.00    -0.113 A  
HETATM   32  C   UNL     1      -8.061   6.801  73.572  1.00  0.00    -0.105 C  
HETATM   33  C   UNL     1      -8.002   7.364  71.107  1.00  0.00    -0.100 A  
HETATM   34  O   UNL     1      -7.934   7.907  74.065  1.00  0.00    -0.170 OA 
HETATM   35  I   UNL     1      -6.345   8.719  71.409  1.00  0.00    -0.065 I  
HETATM   36  O   UNL     1      -7.748   5.677  74.253  1.00  0.00    -0.095 OA 
ENDBRANCH  22  25
ENDBRANCH  20  21
ENDBRANCH  19  20
ENDBRANCH  18  19
ENDBRANCH  17  18
ENDBRANCH  15  17
ENDBRANCH   7  13
TORSDOF 7
ENDMDL
MODEL       59
REMARK 921   NORMALIZED FREE ENERGY PREDICTED BY IDOCK:   -5.28 KCAL/MOL
REMARK 922        TOTAL FREE ENERGY PREDICTED BY IDOCK:   -8.36 KCAL/MOL
REMARK 923 INTER-LIGAND FREE ENERGY PREDICTED BY IDOCK:   -7.38 KCAL/MOL
REMARK 924 INTRA-LIGAND FREE ENERGY PREDICTED BY IDOCK:   -0.98 KCAL/MOL
REMARK 927      BINDING AFFINITY PREDICTED BY RF-SCORE:    0.00 PKD
ROOT
HETATM    1  O   UNL     1      -6.928  20.060  67.586  1.00  0.00    -0.242 OA 
HETATM    2  C   UNL     1      -7.198  19.261  68.641  1.00  0.00    -0.332 C  
HETATM    3  C   UNL     1      -8.041  18.078  68.322  1.00  0.00    -0.296 A  
HETATM    4  O   UNL     1      -6.737  19.477  69.748  1.00  0.00    -0.303 OA 
HETATM    5  C   UNL     1      -7.667  16.780  68.764  1.00  0.00    -0.242 A  
HETATM    6  I   UNL     1      -5.776  16.433  69.751  1.00  0.00    -0.175 I  
HETATM    7  C   UNL     1      -8.477  15.639  68.501  1.00  0.00    -0.175 A  
HETATM    8  I   UNL     1     -10.088  20.065  67.027  1.00  0.00    -0.514 I  
HETATM    9  C   UNL     1      -9.682  15.821  67.799  1.00  0.00    -0.216 A  
HETATM   10  C   UNL     1      -9.258  18.217  67.632  1.00  0.00    -0.259 A  
HETATM   11  C   UNL     1     -10.055  17.098  67.357  1.00  0.00    -0.301 A  
HETATM   12  I   UNL     1     -11.155  14.329  67.550  1.00  0.00    -0.362 I  
ENDROOT
BRANCH   7  13
HETATM   13  N   UNL     1      -8.073  14.376  69.029  1.00  0.00    -0.299 N  
HETATM   14  O   UNL     1      -6.845  13.679  67.189  1.00  0.00    -0.138 OA 
HETATM   15  C   UNL     1      -7.265  13.495  68.328  1.00  0.00    -0.111 C  
HETATM   16  H   UNL     1      -8.393  14.111  69.961  1.00  0.00     0.000 HD 
BRANCH  15  17
HETATM   17  C   UNL     1      -6.786  12.308  69.153  1.00  0.00    -0.095 C  
BRANCH  17  18
HETATM   18  C   UNL     1      -7.448  11.024  68.656  1.00  0.00    -0.112 C  
BRANCH  18  19
HETATM   19  C   UNL     1      -8.958  10.941  68.899  1.00  0.00    -0.146 C  
BRANCH  19  20
HETATM   20  C   UNL     1      -9.722  10.027  67.936  1.00  0.00    -0.168 C  
BRANCH  20  21
HETATM   21  C   UNL     1     -10.076   8.708  68.617  1.00  0.00    -0.190 C  
HETATM   22  N   UNL     1      -9.709   8.659  69.954  1.00  0.00    -0.171 N  
HETATM   23  O   UNL     1     -10.564   7.768  68.000  1.00  0.00    -0.201 OA 
HETATM   24  H   UNL     1      -9.251   9.467  70.375  1.00  0.00     0.000 HD 
BRANCH  22  25
HETATM   25  C   UNL     1      -9.957   7.504  70.754  1.00  0.00    -0.182 A  
HETATM   26  C   UNL     1     -11.152   7.334  71.472  1.00  0.00    -0.237 A  
HETATM   27  I   UNL     1     -12.597   8.858  71.749  1.00  0.00    -0.505 I  
HETATM   28  C   UNL     1     -11.376   6.170  72.214  1.00  0.00    -0.346 A  
HETATM   29  C   UNL     1     -10.387   5.181  72.312  1.00  0.00    -0.211 A  
HETATM   30  I   UNL     1     -10.899   3.568  73.580  1.00  0.00    -0.262 I  
HETATM   31  C   UNL     1      -9.154   5.336  71.656  1.00  0.00    -0.156 A  
HETATM   32  C   UNL     1      -8.052   4.346  71.834  1.00  0.00    -0.098 C  
HETATM   33  C   UNL     1      -8.952   6.505  70.873  1.00  0.00    -0.147 A  
HETATM   34  O   UNL     1      -6.903   4.664  72.083  1.00  0.00    -0.050 OA 
HETATM   35  I   UNL     1      -7.158   6.785  69.700  1.00  0.00    -0.072 I  
HETATM   36  O   UNL     1      -8.412   3.056  71.658  1.00  0.00    -0.063 OA 
ENDBRANCH  22  25
ENDBRANCH  20  21
ENDBRANCH  19  20
ENDBRANCH  18  19
ENDBRANCH  17  18
ENDBRANCH  15  17
ENDBRANCH   7  13
TORSDOF 7
ENDMDL
MODEL       60
REMARK 921   NORMALIZED FREE ENERGY PREDICTED BY IDOCK:   -5.28 KCAL/MOL
REMARK 922        TOTAL FREE ENERGY PREDICTED BY IDOCK:   -8.36 KCAL/MOL
REMARK 923 INTER-LIGAND FREE ENERGY PREDICTED BY IDOCK:   -7.43 KCAL/MOL
REMARK 924 INTRA-LIGAND FREE ENERGY PREDICTED BY IDOCK:   -0.92 KCAL/MOL
REMARK 927      BINDING AFFINITY PREDICTED BY RF-SCORE:    0.00 PKD
ROOT
HETATM    1  O   UNL     1      -9.762  19.764  69.306  1.00  0.00    -0.348 OA 
HETATM    2  C   UNL     1     -10.033  18.739  68.469  1.00  0.00    -0.400 C  
HETATM    3  C   UNL     1      -9.078  17.601  68.554  1.00  0.00    -0.279 A  
HETATM    4  O   UNL     1     -11.014  18.738  67.747  1.00  0.00    -0.341 OA 
HETATM    5  C   UNL     1      -9.550  16.265  68.668  1.00  0.00    -0.237 A  
HETATM    6  I   UNL     1     -11.654  15.835  68.910  1.00  0.00    -0.219 I  
HETATM    7  C   UNL     1      -8.655  15.159  68.715  1.00  0.00    -0.182 A  
HETATM    8  I   UNL     1      -6.778  19.686  68.127  1.00  0.00    -0.326 I  
HETATM    9  C   UNL     1      -7.274  15.411  68.631  1.00  0.00    -0.121 A  
HETATM   10  C   UNL     1      -7.691  17.808  68.464  1.00  0.00    -0.289 A  
HETATM   11  C   UNL     1      -6.802  16.727  68.522  1.00  0.00    -0.164 A  
HETATM   12  I   UNL     1      -5.800  13.916  68.398  1.00  0.00    -0.136 I  
ENDROOT
BRANCH   7  13
HETATM   13  N   UNL     1      -9.199  13.840  68.764  1.00  0.00    -0.391 N  
HETATM   14  O   UNL     1      -9.467  13.561  66.476  1.00  0.00    -0.268 OA 
HETATM   15  C   UNL     1      -9.548  13.132  67.625  1.00  0.00    -0.210 C  
HETATM   16  H   UNL     1      -9.335  13.401  69.674  1.00  0.00     0.000 HD 
BRANCH  15  17
HETATM   17  C   UNL     1      -9.909  11.676  67.889  1.00  0.00    -0.189 C  
BRANCH  17  18
HETATM   18  C   UNL     1      -9.974  10.906  66.572  1.00  0.00    -0.255 C  
BRANCH  18  19
HETATM   19  C   UNL     1      -8.791   9.967  66.314  1.00  0.00    -0.160 C  
BRANCH  19  20
HETATM   20  C   UNL     1      -9.160   8.605  65.718  1.00  0.00    -0.242 C  
BRANCH  20  21
HETATM   21  C   UNL     1      -9.653   7.658  66.807  1.00  0.00    -0.209 C  
HETATM   22  N   UNL     1      -8.628   7.043  67.513  1.00  0.00    -0.122 N  
HETATM   23  O   UNL     1     -10.844   7.418  66.970  1.00  0.00    -0.354 OA 
HETATM   24  H   UNL     1      -7.661   7.255  67.271  1.00  0.00     0.000 HD 
BRANCH  22  25
HETATM   25  C   UNL     1      -8.897   6.123  68.569  1.00  0.00    -0.113 A  
HETATM   26  C   UNL     1      -9.087   4.751  68.336  1.00  0.00    -0.117 A  
HETATM   27  I   UNL     1      -9.329   3.898  66.413  1.00  0.00    -0.172 I  
HETATM   28  C   UNL     1      -9.308   3.873  69.401  1.00  0.00    -0.246 A  
HETATM   29  C   UNL     1      -9.415   4.351  70.715  1.00  0.00    -0.173 A  
HETATM   30  I   UNL     1      -9.871   2.862  72.144  1.00  0.00    -0.173 I  
HETATM   31  C   UNL     1      -9.289   5.725  70.987  1.00  0.00    -0.183 A  
HETATM   32  C   UNL     1      -9.504   6.264  72.362  1.00  0.00    -0.144 C  
HETATM   33  C   UNL     1      -9.024   6.603  69.902  1.00  0.00    -0.144 A  
HETATM   34  O   UNL     1     -10.207   7.231  72.596  1.00  0.00    -0.188 OA 
HETATM   35  I   UNL     1      -8.663   8.711  70.215  1.00  0.00    -0.213 I  
HETATM   36  O   UNL     1      -8.825   5.623  73.338  1.00  0.00    -0.124 OA 
ENDBRANCH  22  25
ENDBRANCH  20  21
ENDBRANCH  19  20
ENDBRANCH  18  19
ENDBRANCH  17  18
ENDBRANCH  15  17
ENDBRANCH   7  13
TORSDOF 7
ENDMDL
MODEL       61
REMARK 921   NORMALIZED FREE ENERGY PREDICTED BY IDOCK:   -5.25 KCAL/MOL
REMARK 922        TOTAL FREE ENERGY PREDICTED BY IDOCK:   -8.32 KCAL/MOL
REMARK 923 INTER-LIGAND FREE ENERGY PREDICTED BY IDOCK:   -6.77 KCAL/MOL
REMARK 924 INTRA-LIGAND FREE ENERGY PREDICTED BY IDOCK:   -1.55 KCAL/MOL
REMARK 927      BINDING AFFINITY PREDICTED BY RF-SCORE:    0.00 PKD
ROOT
HETATM    1  O   UNL     1     -11.801  12.811  66.845  1.00  0.00    -0.376 OA 
HETATM    2  C   UNL     1     -11.383  11.529  66.936  1.00  0.00    -0.253 C  
HETATM    3  C   UNL     1     -10.343  11.145  65.944  1.00  0.00    -0.314 A  
HETATM    4  O   UNL     1     -11.795  10.777  67.801  1.00  0.00    -0.538 OA 
HETATM    5  C   UNL     1      -9.164  10.465  66.355  1.00  0.00    -0.161 A  
HETATM    6  I   UNL     1      -8.737  10.123  68.445  1.00  0.00    -0.138 I  
HETATM    7  C   UNL     1      -8.173  10.057  65.418  1.00  0.00    -0.149 A  
HETATM    8  I   UNL     1     -12.265  12.234  63.722  1.00  0.00    -0.557 I  
HETATM    9  C   UNL     1      -8.388  10.328  64.055  1.00  0.00    -0.165 A  
HETATM   10  C   UNL     1     -10.523  11.388  64.571  1.00  0.00    -0.322 A  
HETATM   11  C   UNL     1      -9.547  11.001  63.644  1.00  0.00    -0.324 A  
HETATM   12  I   UNL     1      -7.197   9.568  62.485  1.00  0.00    -0.117 I  
ENDROOT
BRANCH   7  13
HETATM   13  N   UNL     1      -7.045   9.321  65.892  1.00  0.00    -0.089 N  
HETATM   14  O   UNL     1      -7.782   7.222  65.233  1.00  0.00    -0.098 OA 
HETATM   15  C   UNL     1      -6.932   7.947  65.742  1.00  0.00    -0.056 C  
HETATM   16  H   UNL     1      -6.292   9.826  66.358  1.00  0.00     0.000 HD 
BRANCH  15  17
HETATM   17  C   UNL     1      -5.565   7.396  66.127  1.00  0.00    -0.028 C  
BRANCH  17  18
HETATM   18  C   UNL     1      -5.593   5.869  66.109  1.00  0.00    -0.013 C  
BRANCH  18  19
HETATM   19  C   UNL     1      -5.497   5.205  67.486  1.00  0.00    -0.012 C  
BRANCH  19  20
HETATM   20  C   UNL     1      -6.393   3.977  67.680  1.00  0.00    -0.037 C  
BRANCH  20  21
HETATM   21  C   UNL     1      -7.623   4.336  68.507  1.00  0.00    -0.063 C  
HETATM   22  N   UNL     1      -7.790   5.702  68.689  1.00  0.00    -0.095 N  
HETATM   23  O   UNL     1      -8.335   3.479  69.020  1.00  0.00    -0.060 OA 
HETATM   24  H   UNL     1      -7.114   6.345  68.277  1.00  0.00     0.000 HD 
BRANCH  22  25
HETATM   25  C   UNL     1      -8.884   6.227  69.439  1.00  0.00    -0.127 A  
HETATM   26  C   UNL     1     -10.183   6.304  68.912  1.00  0.00    -0.181 A  
HETATM   27  I   UNL     1     -10.658   5.976  66.874  1.00  0.00    -0.288 I  
HETATM   28  C   UNL     1     -11.239   6.787  69.692  1.00  0.00    -0.345 A  
HETATM   29  C   UNL     1     -11.011   7.270  70.988  1.00  0.00    -0.251 A  
HETATM   30  I   UNL     1     -12.729   8.061  71.932  1.00  0.00    -0.310 I  
HETATM   31  C   UNL     1      -9.715   7.264  71.534  1.00  0.00    -0.168 A  
HETATM   32  C   UNL     1      -9.436   7.869  72.869  1.00  0.00    -0.257 C  
HETATM   33  C   UNL     1      -8.657   6.734  70.748  1.00  0.00    -0.141 A  
HETATM   34  O   UNL     1      -8.513   8.637  73.073  1.00  0.00    -0.398 OA 
HETATM   35  I   UNL     1      -6.653   6.536  71.535  1.00  0.00    -0.056 I  
HETATM   36  O   UNL     1     -10.263   7.470  73.860  1.00  0.00    -0.280 OA 
ENDBRANCH  22  25
ENDBRANCH  20  21
ENDBRANCH  19  20
ENDBRANCH  18  19
ENDBRANCH  17  18
ENDBRANCH  15  17
ENDBRANCH   7  13
TORSDOF 7
ENDMDL
MODEL       62
REMARK 921   NORMALIZED FREE ENERGY PREDICTED BY IDOCK:   -5.21 KCAL/MOL
REMARK 922        TOTAL FREE ENERGY PREDICTED BY IDOCK:   -8.26 KCAL/MOL
REMARK 923 INTER-LIGAND FREE ENERGY PREDICTED BY IDOCK:   -6.85 KCAL/MOL
REMARK 924 INTRA-LIGAND FREE ENERGY PREDICTED BY IDOCK:   -1.41 KCAL/MOL
REMARK 927      BINDING AFFINITY PREDICTED BY RF-SCORE:    0.00 PKD
ROOT
HETATM    1  O   UNL     1     -12.667  12.165  72.562  1.00  0.00     0.168 OA 
HETATM    2  C   UNL     1     -12.908  11.850  71.270  1.00  0.00    -0.290 C  
HETATM    3  C   UNL     1     -12.329  12.801  70.283  1.00  0.00    -0.277 A  
HETATM    4  O   UNL     1     -13.506  10.837  70.954  1.00  0.00    -0.058 OA 
HETATM    5  C   UNL     1     -11.579  12.327  69.173  1.00  0.00    -0.318 A  
HETATM    6  I   UNL     1     -11.083  10.234  68.965  1.00  0.00    -0.222 I  
HETATM    7  C   UNL     1     -11.047  13.217  68.197  1.00  0.00    -0.255 A  
HETATM    8  I   UNL     1     -13.779  15.092  71.855  1.00  0.00    -0.750 I  
HETATM    9  C   UNL     1     -11.292  14.594  68.341  1.00  0.00    -0.292 A  
HETATM   10  C   UNL     1     -12.559  14.184  70.385  1.00  0.00    -0.332 A  
HETATM   11  C   UNL     1     -12.029  15.068  69.436  1.00  0.00    -0.336 A  
HETATM   12  I   UNL     1     -10.844  16.047  66.876  1.00  0.00     0.050 I  
ENDROOT
BRANCH   7  13
HETATM   13  N   UNL     1     -10.358  12.668  67.074  1.00  0.00    -0.232 N  
HETATM   14  O   UNL     1     -12.219  12.377  65.717  1.00  0.00    -0.620 OA 
HETATM   15  C   UNL     1     -11.007  12.305  65.903  1.00  0.00    -0.302 C  
HETATM   16  H   UNL     1      -9.348  12.538  67.134  1.00  0.00     0.000 HD 
BRANCH  15  17
HETATM   17  C   UNL     1     -10.064  11.941  64.763  1.00  0.00    -0.295 C  
BRANCH  17  18
HETATM   18  C   UNL     1      -8.952  11.028  65.275  1.00  0.00    -0.177 C  
BRANCH  18  19
HETATM   19  C   UNL     1      -9.279   9.531  65.241  1.00  0.00    -0.307 C  
BRANCH  19  20
HETATM   20  C   UNL     1      -8.089   8.613  64.944  1.00  0.00    -0.146 C  
BRANCH  20  21
HETATM   21  C   UNL     1      -7.741   7.775  66.171  1.00  0.00    -0.089 C  
HETATM   22  N   UNL     1      -8.427   8.156  67.315  1.00  0.00    -0.124 N  
HETATM   23  O   UNL     1      -6.874   6.908  66.141  1.00  0.00    -0.060 OA 
HETATM   24  H   UNL     1      -9.088   8.930  67.265  1.00  0.00     0.000 HD 
BRANCH  22  25
HETATM   25  C   UNL     1      -8.229   7.488  68.561  1.00  0.00    -0.125 A  
HETATM   26  C   UNL     1      -7.223   7.870  69.463  1.00  0.00    -0.081 A  
HETATM   27  I   UNL     1      -5.670   9.234  68.999  1.00  0.00    -0.035 I  
HETATM   28  C   UNL     1      -7.085   7.218  70.692  1.00  0.00    -0.065 A  
HETATM   29  C   UNL     1      -7.901   6.126  71.020  1.00  0.00    -0.114 A  
HETATM   30  I   UNL     1      -7.435   5.223  72.873  1.00  0.00    -0.099 I  
HETATM   31  C   UNL     1      -8.884   5.674  70.122  1.00  0.00    -0.144 A  
HETATM   32  C   UNL     1      -9.690   4.451  70.408  1.00  0.00    -0.214 C  
HETATM   33  C   UNL     1      -9.042   6.369  68.893  1.00  0.00    -0.129 A  
HETATM   34  O   UNL     1      -9.863   3.562  69.594  1.00  0.00    -0.110 OA 
HETATM   35  I   UNL     1     -10.614   5.861  67.499  1.00  0.00    -0.287 I  
HETATM   36  O   UNL     1     -10.256   4.416  71.633  1.00  0.00    -0.181 OA 
ENDBRANCH  22  25
ENDBRANCH  20  21
ENDBRANCH  19  20
ENDBRANCH  18  19
ENDBRANCH  17  18
ENDBRANCH  15  17
ENDBRANCH   7  13
TORSDOF 7
ENDMDL
MODEL       63
REMARK 921   NORMALIZED FREE ENERGY PREDICTED BY IDOCK:   -5.21 KCAL/MOL
REMARK 922        TOTAL FREE ENERGY PREDICTED BY IDOCK:   -8.26 KCAL/MOL
REMARK 923 INTER-LIGAND FREE ENERGY PREDICTED BY IDOCK:   -6.78 KCAL/MOL
REMARK 924 INTRA-LIGAND FREE ENERGY PREDICTED BY IDOCK:   -1.47 KCAL/MOL
REMARK 927      BINDING AFFINITY PREDICTED BY RF-SCORE:    0.00 PKD
ROOT
HETATM    1  O   UNL     1     -11.312  15.180  64.947  1.00  0.00    -0.385 OA 
HETATM    2  C   UNL     1     -11.140  14.579  66.145  1.00  0.00    -0.334 C  
HETATM    3  C   UNL     1     -10.209  13.419  66.127  1.00  0.00    -0.301 A  
HETATM    4  O   UNL     1     -11.668  14.998  67.159  1.00  0.00    -0.327 OA 
HETATM    5  C   UNL     1      -9.171  13.306  67.091  1.00  0.00    -0.235 A  
HETATM    6  I   UNL     1      -8.775  14.892  68.504  1.00  0.00    -0.180 I  
HETATM    7  C   UNL     1      -8.292  12.186  67.114  1.00  0.00    -0.183 A  
HETATM    8  I   UNL     1     -11.936  12.253  63.786  1.00  0.00    -0.633 I  
HETATM    9  C   UNL     1      -8.479  11.168  66.162  1.00  0.00    -0.156 A  
HETATM   10  C   UNL     1     -10.367  12.374  65.199  1.00  0.00    -0.287 A  
HETATM   11  C   UNL     1      -9.499  11.275  65.206  1.00  0.00    -0.248 A  
HETATM   12  I   UNL     1      -7.481   9.307  66.193  1.00  0.00    -0.098 I  
ENDROOT
BRANCH   7  13
HETATM   13  N   UNL     1      -7.313  12.106  68.150  1.00  0.00    -0.094 N  
HETATM   14  O   UNL     1      -5.494  12.774  66.872  1.00  0.00    -0.314 OA 
HETATM   15  C   UNL     1      -5.980  12.427  67.946  1.00  0.00    -0.093 C  
HETATM   16  H   UNL     1      -7.606  11.799  69.077  1.00  0.00     0.000 HD 
BRANCH  15  17
HETATM   17  C   UNL     1      -5.154  12.475  69.225  1.00  0.00    -0.069 C  
BRANCH  17  18
HETATM   18  C   UNL     1      -5.872  11.718  70.340  1.00  0.00    -0.156 C  
BRANCH  18  19
HETATM   19  C   UNL     1      -5.242  10.373  70.717  1.00  0.00    -0.069 C  
BRANCH  19  20
HETATM   20  C   UNL     1      -5.272   9.309  69.616  1.00  0.00    -0.034 C  
BRANCH  20  21
HETATM   21  C   UNL     1      -6.197   8.160  70.006  1.00  0.00    -0.032 C  
HETATM   22  N   UNL     1      -6.919   8.399  71.166  1.00  0.00    -0.057 N  
HETATM   23  O   UNL     1      -6.222   7.105  69.382  1.00  0.00    -0.032 OA 
HETATM   24  H   UNL     1      -6.793   9.283  71.658  1.00  0.00     0.000 HD 
BRANCH  22  25
HETATM   25  C   UNL     1      -7.835   7.437  71.687  1.00  0.00    -0.087 A  
HETATM   26  C   UNL     1      -7.448   6.468  72.627  1.00  0.00    -0.094 A  
HETATM   27  I   UNL     1      -5.436   6.070  73.161  1.00  0.00    -0.038 I  
HETATM   28  C   UNL     1      -8.383   5.567  73.145  1.00  0.00    -0.118 A  
HETATM   29  C   UNL     1      -9.707   5.565  72.687  1.00  0.00    -0.150 A  
HETATM   30  I   UNL     1     -10.911   4.040  73.522  1.00  0.00    -0.310 I  
HETATM   31  C   UNL     1     -10.125   6.481  71.705  1.00  0.00    -0.202 A  
HETATM   32  C   UNL     1     -11.501   6.426  71.131  1.00  0.00    -0.323 C  
HETATM   33  C   UNL     1      -9.176   7.418  71.215  1.00  0.00    -0.150 A  
HETATM   34  O   UNL     1     -11.725   6.464  69.934  1.00  0.00    -0.426 OA 
HETATM   35  I   UNL     1      -9.737   8.968  69.816  1.00  0.00    -0.234 I  
HETATM   36  O   UNL     1     -12.497   6.372  72.041  1.00  0.00    -0.333 OA 
ENDBRANCH  22  25
ENDBRANCH  20  21
ENDBRANCH  19  20
ENDBRANCH  18  19
ENDBRANCH  17  18
ENDBRANCH  15  17
ENDBRANCH   7  13
TORSDOF 7
ENDMDL
MODEL       64
REMARK 921   NORMALIZED FREE ENERGY PREDICTED BY IDOCK:   -5.20 KCAL/MOL
REMARK 922        TOTAL FREE ENERGY PREDICTED BY IDOCK:   -8.25 KCAL/MOL
REMARK 923 INTER-LIGAND FREE ENERGY PREDICTED BY IDOCK:   -6.85 KCAL/MOL
REMARK 924 INTRA-LIGAND FREE ENERGY PREDICTED BY IDOCK:   -1.40 KCAL/MOL
REMARK 927      BINDING AFFINITY PREDICTED BY RF-SCORE:    0.00 PKD
ROOT
HETATM    1  O   UNL     1      -9.339   1.970  67.041  1.00  0.00    -0.078 OA 
HETATM    2  C   UNL     1      -8.688   2.852  67.830  1.00  0.00    -0.109 C  
HETATM    3  C   UNL     1      -8.817   4.273  67.409  1.00  0.00    -0.120 A  
HETATM    4  O   UNL     1      -8.092   2.502  68.833  1.00  0.00    -0.052 OA 
HETATM    5  C   UNL     1      -9.167   5.280  68.350  1.00  0.00    -0.113 A  
HETATM    6  I   UNL     1      -9.709   4.778  70.380  1.00  0.00    -0.309 I  
HETATM    7  C   UNL     1      -9.262   6.650  67.976  1.00  0.00    -0.112 A  
HETATM    8  I   UNL     1      -7.843   3.371  64.571  1.00  0.00    -0.082 I  
HETATM    9  C   UNL     1      -8.983   7.002  66.643  1.00  0.00    -0.142 A  
HETATM   10  C   UNL     1      -8.538   4.669  66.089  1.00  0.00    -0.114 A  
HETATM   11  C   UNL     1      -8.641   6.013  65.710  1.00  0.00    -0.155 A  
HETATM   12  I   UNL     1      -8.789   8.986  65.948  1.00  0.00    -0.263 I  
ENDROOT
BRANCH   7  13
HETATM   13  N   UNL     1      -9.555   7.616  68.985  1.00  0.00    -0.150 N  
HETATM   14  O   UNL     1      -7.382   7.892  69.751  1.00  0.00    -0.074 OA 
HETATM   15  C   UNL     1      -8.576   8.179  69.789  1.00  0.00    -0.133 C  
HETATM   16  H   UNL     1     -10.524   7.905  69.120  1.00  0.00     0.000 HD 
BRANCH  15  17
HETATM   17  C   UNL     1      -9.072   9.334  70.650  1.00  0.00    -0.309 C  
BRANCH  17  18
HETATM   18  C   UNL     1     -10.598   9.378  70.636  1.00  0.00    -0.354 C  
BRANCH  18  19
HETATM   19  C   UNL     1     -11.201  10.715  70.192  1.00  0.00    -0.378 C  
BRANCH  19  20
HETATM   20  C   UNL     1     -11.613  10.786  68.718  1.00  0.00    -0.350 C  
BRANCH  20  21
HETATM   21  C   UNL     1     -10.830  11.878  67.996  1.00  0.00    -0.216 C  
HETATM   22  N   UNL     1     -10.037  12.643  68.839  1.00  0.00    -0.425 N  
HETATM   23  O   UNL     1     -10.969  12.091  66.796  1.00  0.00    -0.256 OA 
HETATM   24  H   UNL     1     -10.027  12.435  69.837  1.00  0.00     0.000 HD 
BRANCH  22  25
HETATM   25  C   UNL     1      -9.235  13.713  68.343  1.00  0.00    -0.169 A  
HETATM   26  C   UNL     1      -7.910  13.521  67.919  1.00  0.00    -0.159 A  
HETATM   27  I   UNL     1      -6.806  11.742  68.246  1.00  0.00    -0.092 I  
HETATM   28  C   UNL     1      -7.168  14.586  67.401  1.00  0.00    -0.165 A  
HETATM   29  C   UNL     1      -7.705  15.880  67.357  1.00  0.00    -0.175 A  
HETATM   30  I   UNL     1      -6.363  17.352  66.647  1.00  0.00    -0.269 I  
HETATM   31  C   UNL     1      -9.008  16.129  67.823  1.00  0.00    -0.192 A  
HETATM   32  C   UNL     1      -9.558  17.515  67.882  1.00  0.00    -0.277 C  
HETATM   33  C   UNL     1      -9.767  15.031  68.311  1.00  0.00    -0.215 A  
HETATM   34  O   UNL     1     -10.121  17.967  68.863  1.00  0.00    -0.375 OA 
HETATM   35  I   UNL     1     -11.830  15.263  68.916  1.00  0.00    -0.186 I  
HETATM   36  O   UNL     1      -9.423  18.230  66.744  1.00  0.00    -0.280 OA 
ENDBRANCH  22  25
ENDBRANCH  20  21
ENDBRANCH  19  20
ENDBRANCH  18  19
ENDBRANCH  17  18
ENDBRANCH  15  17
ENDBRANCH   7  13
TORSDOF 7
ENDMDL
MODEL       65
REMARK 921   NORMALIZED FREE ENERGY PREDICTED BY IDOCK:   -5.16 KCAL/MOL
REMARK 922        TOTAL FREE ENERGY PREDICTED BY IDOCK:   -8.20 KCAL/MOL
REMARK 923 INTER-LIGAND FREE ENERGY PREDICTED BY IDOCK:   -6.29 KCAL/MOL
REMARK 924 INTRA-LIGAND FREE ENERGY PREDICTED BY IDOCK:   -1.90 KCAL/MOL
REMARK 927      BINDING AFFINITY PREDICTED BY RF-SCORE:    0.00 PKD
ROOT
HETATM    1  O   UNL     1     -12.636  12.706  65.549  1.00  0.00    -0.634 OA 
HETATM    2  C   UNL     1     -11.348  12.750  65.142  1.00  0.00    -0.311 C  
HETATM    3  C   UNL     1     -10.379  12.131  66.086  1.00  0.00    -0.264 A  
HETATM    4  O   UNL     1     -11.029  13.216  64.063  1.00  0.00    -0.392 OA 
HETATM    5  C   UNL     1      -9.405  11.207  65.622  1.00  0.00    -0.219 A  
HETATM    6  I   UNL     1      -9.400  10.514  63.575  1.00  0.00    -0.379 I  
HETATM    7  C   UNL     1      -8.445  10.629  66.501  1.00  0.00    -0.144 A  
HETATM    8  I   UNL     1     -11.603  13.959  68.318  1.00  0.00    -0.416 I  
HETATM    9  C   UNL     1      -8.466  11.006  67.856  1.00  0.00    -0.128 A  
HETATM   10  C   UNL     1     -10.359  12.487  67.445  1.00  0.00    -0.216 A  
HETATM   11  C   UNL     1      -9.427  11.915  68.320  1.00  0.00    -0.197 A  
HETATM   12  I   UNL     1      -6.973  10.495  69.259  1.00  0.00    -0.127 I  
ENDROOT
BRANCH   7  13
HETATM   13  N   UNL     1      -7.455   9.758  65.956  1.00  0.00    -0.099 N  
HETATM   14  O   UNL     1      -5.867  11.387  65.497  1.00  0.00    -0.018 OA 
HETATM   15  C   UNL     1      -6.223  10.211  65.509  1.00  0.00    -0.101 C  
HETATM   16  H   UNL     1      -7.661   8.761  65.893  1.00  0.00     0.000 HD 
BRANCH  15  17
HETATM   17  C   UNL     1      -5.243   9.097  65.164  1.00  0.00    -0.037 C  
BRANCH  17  18
HETATM   18  C   UNL     1      -6.005   7.842  64.745  1.00  0.00    -0.041 C  
BRANCH  18  19
HETATM   19  C   UNL     1      -5.729   6.603  65.604  1.00  0.00    -0.029 C  
BRANCH  19  20
HETATM   20  C   UNL     1      -6.848   5.556  65.613  1.00  0.00    -0.064 C  
BRANCH  20  21
HETATM   21  C   UNL     1      -7.435   5.411  67.013  1.00  0.00    -0.088 C  
HETATM   22  N   UNL     1      -7.433   6.593  67.740  1.00  0.00    -0.096 N  
HETATM   23  O   UNL     1      -7.792   4.326  67.459  1.00  0.00    -0.087 OA 
HETATM   24  H   UNL     1      -7.059   7.439  67.313  1.00  0.00     0.000 HD 
BRANCH  22  25
HETATM   25  C   UNL     1      -7.940   6.650  69.072  1.00  0.00    -0.112 A  
HETATM   26  C   UNL     1      -7.132   6.402  70.193  1.00  0.00    -0.074 A  
HETATM   27  I   UNL     1      -5.174   5.601  70.089  1.00  0.00    -0.005 I  
HETATM   28  C   UNL     1      -7.656   6.507  71.485  1.00  0.00    -0.094 A  
HETATM   29  C   UNL     1      -9.014   6.794  71.687  1.00  0.00    -0.136 A  
HETATM   30  I   UNL     1      -9.608   6.785  73.716  1.00  0.00    -0.341 I  
HETATM   31  C   UNL     1      -9.872   6.994  70.592  1.00  0.00    -0.187 A  
HETATM   32  C   UNL     1     -11.338   7.195  70.784  1.00  0.00    -0.289 C  
HETATM   33  C   UNL     1      -9.320   6.924  69.284  1.00  0.00    -0.144 A  
HETATM   34  O   UNL     1     -12.183   6.592  70.147  1.00  0.00    -0.253 OA 
HETATM   35  I   UNL     1     -10.507   7.358  67.531  1.00  0.00    -0.310 I  
HETATM   36  O   UNL     1     -11.669   8.134  71.697  1.00  0.00    -0.265 OA 
ENDBRANCH  22  25
ENDBRANCH  20  21
ENDBRANCH  19  20
ENDBRANCH  18  19
ENDBRANCH  17  18
ENDBRANCH  15  17
ENDBRANCH   7  13
TORSDOF 7
ENDMDL
MODEL       66
REMARK 921   NORMALIZED FREE ENERGY PREDICTED BY IDOCK:   -5.06 KCAL/MOL
REMARK 922        TOTAL FREE ENERGY PREDICTED BY IDOCK:   -8.06 KCAL/MOL
REMARK 923 INTER-LIGAND FREE ENERGY PREDICTED BY IDOCK:   -7.17 KCAL/MOL
REMARK 924 INTRA-LIGAND FREE ENERGY PREDICTED BY IDOCK:   -0.89 KCAL/MOL
REMARK 927      BINDING AFFINITY PREDICTED BY RF-SCORE:    0.00 PKD
ROOT
HETATM    1  O   UNL     1     -11.440  16.530  71.038  1.00  0.00    -0.328 OA 
HETATM    2  C   UNL     1     -12.385  15.631  70.685  1.00  0.00    -0.413 C  
HETATM    3  C   UNL     1     -11.873  14.463  69.918  1.00  0.00    -0.382 A  
HETATM    4  O   UNL     1     -13.549  15.753  71.021  1.00  0.00    -0.568 OA 
HETATM    5  C   UNL     1     -12.235  13.139  70.286  1.00  0.00    -0.306 A  
HETATM    6  I   UNL     1     -13.382  12.744  72.074  1.00  0.00    -0.059 I  
HETATM    7  C   UNL     1     -11.785  12.009  69.544  1.00  0.00    -0.342 A  
HETATM    8  I   UNL     1     -10.550  16.516  67.954  1.00  0.00    -0.281 I  
HETATM    9  C   UNL     1     -10.978  12.228  68.414  1.00  0.00    -0.236 A  
HETATM   10  C   UNL     1     -11.072  14.638  68.776  1.00  0.00    -0.260 A  
HETATM   11  C   UNL     1     -10.615  13.532  68.048  1.00  0.00    -0.247 A  
HETATM   12  I   UNL     1     -10.441  10.733  67.023  1.00  0.00    -0.300 I  
ENDROOT
BRANCH   7  13
HETATM   13  N   UNL     1     -12.239  10.712  69.931  1.00  0.00    -0.453 N  
HETATM   14  O   UNL     1     -10.317  10.066  71.060  1.00  0.00    -0.101 OA 
HETATM   15  C   UNL     1     -11.464   9.842  70.682  1.00  0.00    -0.324 C  
HETATM   16  H   UNL     1     -13.170  10.414  69.643  1.00  0.00     0.000 HD 
BRANCH  15  17
HETATM   17  C   UNL     1     -12.213   8.604  71.159  1.00  0.00    -0.272 C  
BRANCH  17  18
HETATM   18  C   UNL     1     -11.638   8.125  72.490  1.00  0.00    -0.468 C  
BRANCH  18  19
HETATM   19  C   UNL     1     -10.879   6.795  72.424  1.00  0.00    -0.270 C  
BRANCH  19  20
HETATM   20  C   UNL     1      -9.404   6.867  72.832  1.00  0.00    -0.156 C  
BRANCH  20  21
HETATM   21  C   UNL     1      -8.505   6.489  71.660  1.00  0.00    -0.124 C  
HETATM   22  N   UNL     1      -9.065   6.765  70.420  1.00  0.00    -0.152 N  
HETATM   23  O   UNL     1      -7.430   5.922  71.821  1.00  0.00    -0.091 OA 
HETATM   24  H   UNL     1      -9.993   7.184  70.375  1.00  0.00     0.000 HD 
BRANCH  22  25
HETATM   25  C   UNL     1      -8.371   6.477  69.207  1.00  0.00    -0.123 A  
HETATM   26  C   UNL     1      -8.408   5.208  68.607  1.00  0.00    -0.088 A  
HETATM   27  I   UNL     1      -9.196   3.477  69.541  1.00  0.00    -0.200 I  
HETATM   28  C   UNL     1      -7.748   4.975  67.397  1.00  0.00    -0.092 A  
HETATM   29  C   UNL     1      -6.980   5.980  66.793  1.00  0.00    -0.068 A  
HETATM   30  I   UNL     1      -5.977   5.366  65.036  1.00  0.00    -0.023 I  
HETATM   31  C   UNL     1      -6.869   7.249  67.389  1.00  0.00    -0.077 A  
HETATM   32  C   UNL     1      -5.973   8.296  66.817  1.00  0.00    -0.053 C  
HETATM   33  C   UNL     1      -7.576   7.487  68.598  1.00  0.00    -0.110 A  
HETATM   34  O   UNL     1      -5.186   8.939  67.489  1.00  0.00    -0.033 OA 
HETATM   35  I   UNL     1      -7.602   9.438  69.527  1.00  0.00    -0.124 I  
HETATM   36  O   UNL     1      -6.124   8.514  65.493  1.00  0.00    -0.048 OA 
ENDBRANCH  22  25
ENDBRANCH  20  21
ENDBRANCH  19  20
ENDBRANCH  18  19
ENDBRANCH  17  18
ENDBRANCH  15  17
ENDBRANCH   7  13
TORSDOF 7
ENDMDL
MODEL       67
REMARK 921   NORMALIZED FREE ENERGY PREDICTED BY IDOCK:   -5.00 KCAL/MOL
REMARK 922        TOTAL FREE ENERGY PREDICTED BY IDOCK:   -7.97 KCAL/MOL
REMARK 923 INTER-LIGAND FREE ENERGY PREDICTED BY IDOCK:   -6.48 KCAL/MOL
REMARK 924 INTRA-LIGAND FREE ENERGY PREDICTED BY IDOCK:   -1.50 KCAL/MOL
REMARK 927      BINDING AFFINITY PREDICTED BY RF-SCORE:    0.00 PKD
ROOT
HETATM    1  O   UNL     1     -10.538   4.067  64.755  1.00  0.00    -0.243 OA 
HETATM    2  C   UNL     1      -9.811   4.446  65.828  1.00  0.00    -0.225 C  
HETATM    3  C   UNL     1      -9.128   5.759  65.681  1.00  0.00    -0.085 A  
HETATM    4  O   UNL     1      -9.772   3.780  66.848  1.00  0.00    -0.210 OA 
HETATM    5  C   UNL     1      -9.220   6.744  66.702  1.00  0.00    -0.159 A  
HETATM    6  I   UNL     1     -10.499   6.462  68.420  1.00  0.00    -0.391 I  
HETATM    7  C   UNL     1      -8.545   7.993  66.598  1.00  0.00    -0.136 A  
HETATM    8  I   UNL     1      -7.913   4.665  63.008  1.00  0.00    -0.095 I  
HETATM    9  C   UNL     1      -7.759   8.236  65.457  1.00  0.00    -0.101 A  
HETATM   10  C   UNL     1      -8.324   6.039  64.562  1.00  0.00    -0.045 A  
HETATM   11  C   UNL     1      -7.666   7.270  64.445  1.00  0.00    -0.120 A  
HETATM   12  I   UNL     1      -6.461   9.887  65.232  1.00  0.00    -0.119 I  
ENDROOT
BRANCH   7  13
HETATM   13  N   UNL     1      -8.629   8.910  67.688  1.00  0.00    -0.124 N  
HETATM   14  O   UNL     1      -6.746   8.168  68.825  1.00  0.00    -0.055 OA 
HETATM   15  C   UNL     1      -7.700   8.934  68.718  1.00  0.00    -0.096 C  
HETATM   16  H   UNL     1      -9.403   9.573  67.711  1.00  0.00     0.000 HD 
BRANCH  15  17
HETATM   17  C   UNL     1      -7.857  10.119  69.662  1.00  0.00    -0.181 C  
BRANCH  17  18
HETATM   18  C   UNL     1      -6.555  10.358  70.423  1.00  0.00    -0.121 C  
BRANCH  18  19
HETATM   19  C   UNL     1      -5.903  11.722  70.175  1.00  0.00    -0.156 C  
BRANCH  19  20
HETATM   20  C   UNL     1      -5.242  11.888  68.804  1.00  0.00    -0.050 C  
BRANCH  20  21
HETATM   21  C   UNL     1      -5.762  13.140  68.105  1.00  0.00    -0.097 C  
HETATM   22  N   UNL     1      -6.910  13.661  68.684  1.00  0.00    -0.090 N  
HETATM   23  O   UNL     1      -5.245  13.577  67.083  1.00  0.00    -0.291 OA 
HETATM   24  H   UNL     1      -7.311  13.198  69.500  1.00  0.00     0.000 HD 
BRANCH  22  25
HETATM   25  C   UNL     1      -7.543  14.830  68.166  1.00  0.00    -0.119 A  
HETATM   26  C   UNL     1      -7.082  16.123  68.458  1.00  0.00    -0.139 A  
HETATM   27  I   UNL     1      -5.625  16.557  69.934  1.00  0.00    -0.183 I  
HETATM   28  C   UNL     1      -7.704  17.244  67.899  1.00  0.00    -0.196 A  
HETATM   29  C   UNL     1      -8.842  17.104  67.093  1.00  0.00    -0.220 A  
HETATM   30  I   UNL     1      -9.683  18.937  66.457  1.00  0.00    -0.423 I  
HETATM   31  C   UNL     1      -9.372  15.831  66.820  1.00  0.00    -0.264 A  
HETATM   32  C   UNL     1     -10.641  15.669  66.052  1.00  0.00    -0.328 C  
HETATM   33  C   UNL     1      -8.709  14.697  67.361  1.00  0.00    -0.197 A  
HETATM   34  O   UNL     1     -11.553  14.948  66.415  1.00  0.00    -0.330 OA 
HETATM   35  I   UNL     1      -9.342  12.684  66.890  1.00  0.00    -0.213 I  
HETATM   36  O   UNL     1     -10.695  16.355  64.890  1.00  0.00    -0.675 OA 
ENDBRANCH  22  25
ENDBRANCH  20  21
ENDBRANCH  19  20
ENDBRANCH  18  19
ENDBRANCH  17  18
ENDBRANCH  15  17
ENDBRANCH   7  13
TORSDOF 7
ENDMDL
MODEL       68
REMARK 921   NORMALIZED FREE ENERGY PREDICTED BY IDOCK:   -4.98 KCAL/MOL
REMARK 922        TOTAL FREE ENERGY PREDICTED BY IDOCK:   -7.93 KCAL/MOL
REMARK 923 INTER-LIGAND FREE ENERGY PREDICTED BY IDOCK:   -6.96 KCAL/MOL
REMARK 924 INTRA-LIGAND FREE ENERGY PREDICTED BY IDOCK:   -0.97 KCAL/MOL
REMARK 927      BINDING AFFINITY PREDICTED BY RF-SCORE:    0.00 PKD
ROOT
HETATM    1  O   UNL     1     -10.836  18.021  65.947  1.00  0.00    -0.236 OA 
HETATM    2  C   UNL     1     -10.697  16.863  65.267  1.00  0.00    -0.134 C  
HETATM    3  C   UNL     1      -9.868  15.836  65.955  1.00  0.00    -0.381 A  
HETATM    4  O   UNL     1     -11.256  16.669  64.202  1.00  0.00    -1.103 OA 
HETATM    5  C   UNL     1     -10.328  14.497  66.080  1.00  0.00    -0.297 A  
HETATM    6  I   UNL     1     -12.316  13.930  65.452  1.00  0.00    -0.489 I  
HETATM    7  C   UNL     1      -9.536  13.491  66.703  1.00  0.00    -0.265 A  
HETATM    8  I   UNL     1      -7.638  18.022  66.218  1.00  0.00    -0.215 I  
HETATM    9  C   UNL     1      -8.262  13.845  67.186  1.00  0.00    -0.109 A  
HETATM   10  C   UNL     1      -8.586  16.145  66.443  1.00  0.00    -0.330 A  
HETATM   11  C   UNL     1      -7.805  15.165  67.068  1.00  0.00    -0.197 A  
HETATM   12  I   UNL     1      -6.824  12.464  67.881  1.00  0.00    -0.152 I  
ENDROOT
BRANCH   7  13
HETATM   13  N   UNL     1     -10.031  12.154  66.738  1.00  0.00    -0.201 N  
HETATM   14  O   UNL     1      -9.240  11.506  64.654  1.00  0.00    -0.094 OA 
HETATM   15  C   UNL     1      -9.825  11.252  65.704  1.00  0.00    -0.234 C  
HETATM   16  H   UNL     1     -10.558  11.848  67.556  1.00  0.00     0.000 HD 
BRANCH  15  17
HETATM   17  C   UNL     1     -10.253   9.828  66.034  1.00  0.00    -0.263 C  
BRANCH  17  18
HETATM   18  C   UNL     1      -9.059   9.030  66.554  1.00  0.00    -0.202 C  
BRANCH  18  19
HETATM   19  C   UNL     1      -9.147   7.517  66.330  1.00  0.00    -0.210 C  
BRANCH  19  20
HETATM   20  C   UNL     1      -7.799   6.799  66.206  1.00  0.00    -0.104 C  
BRANCH  20  21
HETATM   21  C   UNL     1      -7.339   6.285  67.566  1.00  0.00    -0.080 C  
HETATM   22  N   UNL     1      -8.306   6.390  68.555  1.00  0.00    -0.113 N  
HETATM   23  O   UNL     1      -6.192   5.895  67.759  1.00  0.00    -0.030 OA 
HETATM   24  H   UNL     1      -9.216   6.784  68.321  1.00  0.00     0.000 HD 
BRANCH  22  25
HETATM   25  C   UNL     1      -8.055   5.962  69.893  1.00  0.00    -0.116 A  
HETATM   26  C   UNL     1      -8.083   4.608  70.263  1.00  0.00    -0.067 A  
HETATM   27  I   UNL     1      -8.806   3.054  69.018  1.00  0.00    -0.205 I  
HETATM   28  C   UNL     1      -7.793   4.223  71.575  1.00  0.00    -0.081 A  
HETATM   29  C   UNL     1      -7.536   5.183  72.564  1.00  0.00    -0.095 A  
HETATM   30  I   UNL     1      -7.242   4.379  74.497  1.00  0.00    -0.074 I  
HETATM   31  C   UNL     1      -7.553   6.554  72.250  1.00  0.00    -0.096 A  
HETATM   32  C   UNL     1      -7.386   7.592  73.309  1.00  0.00    -0.084 C  
HETATM   33  C   UNL     1      -7.810   6.932  70.905  1.00  0.00    -0.097 A  
HETATM   34  O   UNL     1      -8.120   8.558  73.416  1.00  0.00    -0.373 OA 
HETATM   35  I   UNL     1      -7.716   8.996  70.272  1.00  0.00    -0.160 I  
HETATM   36  O   UNL     1      -6.327   7.407  74.126  1.00  0.00    -0.076 OA 
ENDBRANCH  22  25
ENDBRANCH  20  21
ENDBRANCH  19  20
ENDBRANCH  18  19
ENDBRANCH  17  18
ENDBRANCH  15  17
ENDBRANCH   7  13
TORSDOF 7
ENDMDL
MODEL       69
REMARK 921   NORMALIZED FREE ENERGY PREDICTED BY IDOCK:   -4.98 KCAL/MOL
REMARK 922        TOTAL FREE ENERGY PREDICTED BY IDOCK:   -7.93 KCAL/MOL
REMARK 923 INTER-LIGAND FREE ENERGY PREDICTED BY IDOCK:   -6.98 KCAL/MOL
REMARK 924 INTRA-LIGAND FREE ENERGY PREDICTED BY IDOCK:   -0.95 KCAL/MOL
REMARK 927      BINDING AFFINITY PREDICTED BY RF-SCORE:    0.00 PKD
ROOT
HETATM    1  O   UNL     1      -7.168   4.072  66.378  1.00  0.00    -0.066 OA 
HETATM    2  C   UNL     1      -8.128   3.866  67.306  1.00  0.00    -0.091 C  
HETATM    3  C   UNL     1      -7.704   4.137  68.706  1.00  0.00    -0.058 A  
HETATM    4  O   UNL     1      -9.260   3.538  67.000  1.00  0.00    -0.163 OA 
HETATM    5  C   UNL     1      -8.505   4.937  69.565  1.00  0.00    -0.083 A  
HETATM    6  I   UNL     1     -10.269   5.949  68.834  1.00  0.00    -0.332 I  
HETATM    7  C   UNL     1      -8.136   5.179  70.918  1.00  0.00    -0.105 A  
HETATM    8  I   UNL     1      -5.286   2.210  68.193  1.00  0.00    -0.014 I  
HETATM    9  C   UNL     1      -6.955   4.591  71.406  1.00  0.00    -0.042 A  
HETATM   10  C   UNL     1      -6.536   3.561  69.236  1.00  0.00    -0.034 A  
HETATM   11  C   UNL     1      -6.159   3.803  70.563  1.00  0.00    -0.018 A  
HETATM   12  I   UNL     1      -6.375   4.586  73.437  1.00  0.00    -0.051 I  
ENDROOT
BRANCH   7  13
HETATM   13  N   UNL     1      -9.019   5.938  71.743  1.00  0.00    -0.139 N  
HETATM   14  O   UNL     1     -10.208   4.144  72.610  1.00  0.00    -0.159 OA 
HETATM   15  C   UNL     1      -9.984   5.350  72.546  1.00  0.00    -0.168 C  
HETATM   16  H   UNL     1      -8.937   6.955  71.743  1.00  0.00     0.000 HD 
BRANCH  15  17
HETATM   17  C   UNL     1     -10.672   6.321  73.497  1.00  0.00    -0.262 C  
BRANCH  17  18
HETATM   18  C   UNL     1     -10.558   7.747  72.961  1.00  0.00    -0.441 C  
BRANCH  18  19
HETATM   19  C   UNL     1     -11.894   8.424  72.639  1.00  0.00    -0.360 C  
BRANCH  19  20
HETATM   20  C   UNL     1     -12.228   8.526  71.148  1.00  0.00    -0.260 C  
BRANCH  20  21
HETATM   21  C   UNL     1     -11.478   9.690  70.509  1.00  0.00    -0.285 C  
HETATM   22  N   UNL     1     -12.289  10.526  69.755  1.00  0.00    -0.536 N  
HETATM   23  O   UNL     1     -10.261   9.808  70.600  1.00  0.00    -0.279 OA 
HETATM   24  H   UNL     1     -13.285  10.320  69.682  1.00  0.00     0.000 HD 
BRANCH  22  25
HETATM   25  C   UNL     1     -11.763  11.667  69.080  1.00  0.00    -0.324 A  
HETATM   26  C   UNL     1     -11.146  11.575  67.822  1.00  0.00    -0.260 A  
HETATM   27  I   UNL     1     -10.610   9.746  66.897  1.00  0.00    -0.032 I  
HETATM   28  C   UNL     1     -10.677  12.721  67.173  1.00  0.00    -0.264 A  
HETATM   29  C   UNL     1     -10.751  13.976  67.793  1.00  0.00    -0.243 A  
HETATM   30  I   UNL     1      -9.875  15.545  66.679  1.00  0.00    -0.337 I  
HETATM   31  C   UNL     1     -11.310  14.107  69.077  1.00  0.00    -0.310 A  
HETATM   32  C   UNL     1     -11.302  15.416  69.794  1.00  0.00    -0.306 C  
HETATM   33  C   UNL     1     -11.819  12.942  69.710  1.00  0.00    -0.310 A  
HETATM   34  O   UNL     1     -10.945  15.538  70.952  1.00  0.00    -0.329 OA 
HETATM   35  I   UNL     1     -12.833  13.041  71.616  1.00  0.00    -0.074 I  
HETATM   36  O   UNL     1     -11.761  16.463  69.075  1.00  0.00    -0.240 OA 
ENDBRANCH  22  25
ENDBRANCH  20  21
ENDBRANCH  19  20
ENDBRANCH  18  19
ENDBRANCH  17  18
ENDBRANCH  15  17
ENDBRANCH   7  13
TORSDOF 7
ENDMDL
MODEL       70
REMARK 921   NORMALIZED FREE ENERGY PREDICTED BY IDOCK:   -4.96 KCAL/MOL
REMARK 922        TOTAL FREE ENERGY PREDICTED BY IDOCK:   -7.91 KCAL/MOL
REMARK 923 INTER-LIGAND FREE ENERGY PREDICTED BY IDOCK:   -7.02 KCAL/MOL
REMARK 924 INTRA-LIGAND FREE ENERGY PREDICTED BY IDOCK:   -0.90 KCAL/MOL
REMARK 927      BINDING AFFINITY PREDICTED BY RF-SCORE:    0.00 PKD
ROOT
HETATM    1  O   UNL     1      -9.896  14.146  66.009  1.00  0.00    -0.304 OA 
HETATM    2  C   UNL     1      -9.608  13.214  66.944  1.00  0.00    -0.248 C  
HETATM    3  C   UNL     1     -10.559  13.166  68.086  1.00  0.00    -0.257 A  
HETATM    4  O   UNL     1      -8.671  12.445  66.820  1.00  0.00    -0.200 OA 
HETATM    5  C   UNL     1     -11.108  11.930  68.523  1.00  0.00    -0.243 A  
HETATM    6  I   UNL     1     -10.740  10.095  67.442  1.00  0.00    -0.201 I  
HETATM    7  C   UNL     1     -11.993  11.858  69.636  1.00  0.00    -0.298 A  
HETATM    8  I   UNL     1     -10.070  16.242  68.434  1.00  0.00    -0.278 I  
HETATM    9  C   UNL     1     -12.309  13.046  70.319  1.00  0.00    -0.241 A  
HETATM   10  C   UNL     1     -10.893  14.329  68.802  1.00  0.00    -0.253 A  
HETATM   11  C   UNL     1     -11.773  14.269  69.891  1.00  0.00    -0.373 A  
HETATM   12  I   UNL     1     -13.362  13.128  72.147  1.00  0.00    -0.327 I  
ENDROOT
BRANCH   7  13
HETATM   13  N   UNL     1     -12.456  10.576  70.060  1.00  0.00    -0.508 N  
HETATM   14  O   UNL     1     -10.553   9.964  71.238  1.00  0.00    -0.194 OA 
HETATM   15  C   UNL     1     -11.695   9.730  70.852  1.00  0.00    -0.347 C  
HETATM   16  H   UNL     1     -13.385  10.271  69.769  1.00  0.00     0.000 HD 
BRANCH  15  17
HETATM   17  C   UNL     1     -12.454   8.512  71.361  1.00  0.00    -0.327 C  
BRANCH  17  18
HETATM   18  C   UNL     1     -11.840   7.236  70.789  1.00  0.00    -0.324 C  
BRANCH  18  19
HETATM   19  C   UNL     1     -10.545   6.782  71.469  1.00  0.00    -0.245 C  
BRANCH  19  20
HETATM   20  C   UNL     1     -10.479   5.290  71.813  1.00  0.00    -0.278 C  
BRANCH  20  21
HETATM   21  C   UNL     1      -9.701   4.529  70.745  1.00  0.00    -0.197 C  
HETATM   22  N   UNL     1      -8.872   5.337  69.980  1.00  0.00    -0.118 N  
HETATM   23  O   UNL     1      -9.870   3.331  70.548  1.00  0.00    -0.127 OA 
HETATM   24  H   UNL     1      -8.837   6.338  70.172  1.00  0.00     0.000 HD 
BRANCH  22  25
HETATM   25  C   UNL     1      -8.068   4.801  68.930  1.00  0.00    -0.082 A  
HETATM   26  C   UNL     1      -6.838   4.172  69.177  1.00  0.00    -0.046 A  
HETATM   27  I   UNL     1      -5.842   4.206  71.046  1.00  0.00    -0.015 I  
HETATM   28  C   UNL     1      -6.096   3.623  68.126  1.00  0.00    -0.031 A  
HETATM   29  C   UNL     1      -6.531   3.750  66.799  1.00  0.00    -0.041 A  
HETATM   30  I   UNL     1      -5.194   2.950  65.370  1.00  0.00    -0.010 I  
HETATM   31  C   UNL     1      -7.729   4.423  66.501  1.00  0.00    -0.094 A  
HETATM   32  C   UNL     1      -8.154   4.659  65.090  1.00  0.00    -0.104 C  
HETATM   33  C   UNL     1      -8.494   4.942  67.580  1.00  0.00    -0.104 A  
HETATM   34  O   UNL     1      -8.532   5.742  64.681  1.00  0.00    -0.133 OA 
HETATM   35  I   UNL     1     -10.423   5.863  67.259  1.00  0.00    -0.383 I  
HETATM   36  O   UNL     1      -8.129   3.566  64.297  1.00  0.00    -0.085 OA 
ENDBRANCH  22  25
ENDBRANCH  20  21
ENDBRANCH  19  20
ENDBRANCH  18  19
ENDBRANCH  17  18
ENDBRANCH  15  17
ENDBRANCH   7  13
TORSDOF 7
ENDMDL
MODEL       71
REMARK 921   NORMALIZED FREE ENERGY PREDICTED BY IDOCK:   -4.96 KCAL/MOL
REMARK 922        TOTAL FREE ENERGY PREDICTED BY IDOCK:   -7.91 KCAL/MOL
REMARK 923 INTER-LIGAND FREE ENERGY PREDICTED BY IDOCK:   -7.22 KCAL/MOL
REMARK 924 INTRA-LIGAND FREE ENERGY PREDICTED BY IDOCK:   -0.68 KCAL/MOL
REMARK 927      BINDING AFFINITY PREDICTED BY RF-SCORE:    0.00 PKD
ROOT
HETATM    1  O   UNL     1      -7.576   4.722  66.874  1.00  0.00    -0.085 OA 
HETATM    2  C   UNL     1      -8.882   5.060  66.956  1.00  0.00    -0.106 C  
HETATM    3  C   UNL     1      -9.387   5.250  68.342  1.00  0.00    -0.146 A  
HETATM    4  O   UNL     1      -9.564   5.243  65.963  1.00  0.00    -0.157 OA 
HETATM    5  C   UNL     1     -10.141   6.405  68.688  1.00  0.00    -0.158 A  
HETATM    6  I   UNL     1     -10.428   8.019  67.280  1.00  0.00    -0.192 I  
HETATM    7  C   UNL     1     -10.664   6.590  69.999  1.00  0.00    -0.249 A  
HETATM    8  I   UNL     1      -8.244   2.407  68.995  1.00  0.00    -0.095 I  
HETATM    9  C   UNL     1     -10.434   5.588  70.959  1.00  0.00    -0.244 A  
HETATM   10  C   UNL     1      -9.188   4.269  69.329  1.00  0.00    -0.145 A  
HETATM   11  C   UNL     1      -9.689   4.449  70.625  1.00  0.00    -0.283 A  
HETATM   12  I   UNL     1     -11.349   5.527  72.861  1.00  0.00    -0.111 I  
ENDROOT
BRANCH   7  13
HETATM   13  N   UNL     1     -11.466   7.741  70.259  1.00  0.00    -0.456 N  
HETATM   14  O   UNL     1      -9.977   8.805  71.686  1.00  0.00    -0.254 OA 
HETATM   15  C   UNL     1     -11.044   8.777  71.079  1.00  0.00    -0.270 C  
HETATM   16  H   UNL     1     -12.387   7.805  69.825  1.00  0.00     0.000 HD 
BRANCH  15  17
HETATM   17  C   UNL     1     -11.958   9.995  71.053  1.00  0.00    -0.469 C  
BRANCH  17  18
HETATM   18  C   UNL     1     -12.103  10.510  69.623  1.00  0.00    -0.241 C  
BRANCH  18  19
HETATM   19  C   UNL     1     -11.354  11.813  69.326  1.00  0.00    -0.348 C  
BRANCH  19  20
HETATM   20  C   UNL     1     -11.449  12.303  67.878  1.00  0.00    -0.390 C  
BRANCH  20  21
HETATM   21  C   UNL     1     -11.150  13.797  67.796  1.00  0.00    -0.268 C  
HETATM   22  N   UNL     1      -9.899  14.084  67.270  1.00  0.00    -0.238 N  
HETATM   23  O   UNL     1     -11.925  14.639  68.236  1.00  0.00    -0.310 OA 
HETATM   24  H   UNL     1      -9.291  13.317  66.984  1.00  0.00     0.000 HD 
BRANCH  22  25
HETATM   25  C   UNL     1      -9.444  15.428  67.119  1.00  0.00    -0.213 A  
HETATM   26  C   UNL     1      -9.998  16.305  66.173  1.00  0.00    -0.334 A  
HETATM   27  I   UNL     1     -11.327  15.705  64.636  1.00  0.00     0.067 I  
HETATM   28  C   UNL     1      -9.553  17.627  66.082  1.00  0.00    -0.206 A  
HETATM   29  C   UNL     1      -8.498  18.085  66.884  1.00  0.00    -0.249 A  
HETATM   30  I   UNL     1      -7.915  20.079  66.491  1.00  0.00    -0.280 I  
HETATM   31  C   UNL     1      -7.875  17.225  67.805  1.00  0.00    -0.194 A  
HETATM   32  C   UNL     1      -6.685  17.663  68.590  1.00  0.00    -0.217 C  
HETATM   33  C   UNL     1      -8.362  15.894  67.917  1.00  0.00    -0.153 A  
HETATM   34  O   UNL     1      -5.673  16.993  68.696  1.00  0.00    -0.136 OA 
HETATM   35  I   UNL     1      -7.585  14.527  69.399  1.00  0.00     0.211 I  
HETATM   36  O   UNL     1      -6.822  18.850  69.219  1.00  0.00    -0.301 OA 
ENDBRANCH  22  25
ENDBRANCH  20  21
ENDBRANCH  19  20
ENDBRANCH  18  19
ENDBRANCH  17  18
ENDBRANCH  15  17
ENDBRANCH   7  13
TORSDOF 7
ENDMDL
MODEL       72
REMARK 921   NORMALIZED FREE ENERGY PREDICTED BY IDOCK:   -4.95 KCAL/MOL
REMARK 922        TOTAL FREE ENERGY PREDICTED BY IDOCK:   -7.90 KCAL/MOL
REMARK 923 INTER-LIGAND FREE ENERGY PREDICTED BY IDOCK:   -7.06 KCAL/MOL
REMARK 924 INTRA-LIGAND FREE ENERGY PREDICTED BY IDOCK:   -0.83 KCAL/MOL
REMARK 927      BINDING AFFINITY PREDICTED BY RF-SCORE:    0.00 PKD
ROOT
HETATM    1  O   UNL     1     -10.900  18.076  65.202  1.00  0.00    -0.665 OA 
HETATM    2  C   UNL     1     -10.506  16.854  65.622  1.00  0.00    -0.238 C  
HETATM    3  C   UNL     1     -10.885  16.530  67.024  1.00  0.00    -0.113 A  
HETATM    4  O   UNL     1      -9.935  16.071  64.884  1.00  0.00    -0.328 OA 
HETATM    5  C   UNL     1     -11.506  15.291  67.340  1.00  0.00    -0.241 A  
HETATM    6  I   UNL     1     -12.099  13.906  65.791  1.00  0.00    -0.511 I  
HETATM    7  C   UNL     1     -11.845  14.946  68.679  1.00  0.00    -0.300 A  
HETATM    8  I   UNL     1      -9.521  19.223  67.863  1.00  0.00    -0.482 I  
HETATM    9  C   UNL     1     -11.535  15.857  69.705  1.00  0.00    -0.346 A  
HETATM   10  C   UNL     1     -10.585  17.408  68.080  1.00  0.00    -0.389 A  
HETATM   11  C   UNL     1     -10.925  17.082  69.399  1.00  0.00     0.031 A  
HETATM   12  I   UNL     1     -11.689  15.431  71.767  1.00  0.00    -0.549 I  
ENDROOT
BRANCH   7  13
HETATM   13  N   UNL     1     -12.407  13.659  68.933  1.00  0.00    -0.319 N  
HETATM   14  O   UNL     1     -10.412  12.562  69.383  1.00  0.00     0.121 OA 
HETATM   15  C   UNL     1     -11.637  12.562  69.286  1.00  0.00    -0.319 C  
HETATM   16  H   UNL     1     -13.417  13.542  68.852  1.00  0.00     0.000 HD 
BRANCH  15  17
HETATM   17  C   UNL     1     -12.451  11.348  69.714  1.00  0.00    -0.161 C  
BRANCH  17  18
HETATM   18  C   UNL     1     -11.715  10.064  69.337  1.00  0.00    -0.012 C  
BRANCH  18  19
HETATM   19  C   UNL     1     -11.396   9.134  70.512  1.00  0.00    -0.300 C  
BRANCH  19  20
HETATM   20  C   UNL     1     -10.075   9.425  71.231  1.00  0.00    -0.309 C  
BRANCH  20  21
HETATM   21  C   UNL     1      -9.155   8.210  71.175  1.00  0.00    -0.154 C  
HETATM   22  N   UNL     1      -9.790   7.018  71.495  1.00  0.00    -0.173 N  
HETATM   23  O   UNL     1      -7.955   8.313  70.945  1.00  0.00    -0.088 OA 
HETATM   24  H   UNL     1     -10.781   7.031  71.733  1.00  0.00     0.000 HD 
BRANCH  22  25
HETATM   25  C   UNL     1      -9.088   5.776  71.498  1.00  0.00    -0.140 A  
HETATM   26  C   UNL     1      -8.393   5.312  72.625  1.00  0.00    -0.114 A  
HETATM   27  I   UNL     1      -7.999   6.489  74.343  1.00  0.00    -0.143 I  
HETATM   28  C   UNL     1      -7.750   4.070  72.604  1.00  0.00    -0.075 A  
HETATM   29  C   UNL     1      -7.728   3.295  71.436  1.00  0.00    -0.051 A  
HETATM   30  I   UNL     1      -6.599   1.515  71.600  1.00  0.00    -0.019 I  
HETATM   31  C   UNL     1      -8.364   3.747  70.266  1.00  0.00    -0.081 A  
HETATM   32  C   UNL     1      -8.262   2.986  68.987  1.00  0.00    -0.059 C  
HETATM   33  C   UNL     1      -9.048   4.992  70.312  1.00  0.00    -0.121 A  
HETATM   34  O   UNL     1      -7.982   3.507  67.922  1.00  0.00    -0.078 OA 
HETATM   35  I   UNL     1     -10.185   5.720  68.624  1.00  0.00    -0.286 I  
HETATM   36  O   UNL     1      -8.545   1.669  69.083  1.00  0.00    -0.052 OA 
ENDBRANCH  22  25
ENDBRANCH  20  21
ENDBRANCH  19  20
ENDBRANCH  18  19
ENDBRANCH  17  18
ENDBRANCH  15  17
ENDBRANCH   7  13
TORSDOF 7
ENDMDL
MODEL       73
REMARK 921   NORMALIZED FREE ENERGY PREDICTED BY IDOCK:   -4.91 KCAL/MOL
REMARK 922        TOTAL FREE ENERGY PREDICTED BY IDOCK:   -7.84 KCAL/MOL
REMARK 923 INTER-LIGAND FREE ENERGY PREDICTED BY IDOCK:   -6.70 KCAL/MOL
REMARK 924 INTRA-LIGAND FREE ENERGY PREDICTED BY IDOCK:   -1.14 KCAL/MOL
REMARK 927      BINDING AFFINITY PREDICTED BY RF-SCORE:    0.00 PKD
ROOT
HETATM    1  O   UNL     1      -7.684   4.121  73.970  1.00  0.00    -0.078 OA 
HETATM    2  C   UNL     1      -7.552   3.601  72.730  1.00  0.00    -0.061 C  
HETATM    3  C   UNL     1      -8.268   4.351  71.664  1.00  0.00    -0.097 A  
HETATM    4  O   UNL     1      -6.855   2.626  72.511  1.00  0.00    -0.022 OA 
HETATM    5  C   UNL     1      -7.608   4.703  70.456  1.00  0.00    -0.054 A  
HETATM    6  I   UNL     1      -5.496   4.337  70.183  1.00  0.00    -0.013 I  
HETATM    7  C   UNL     1      -8.284   5.391  69.408  1.00  0.00    -0.096 A  
HETATM    8  I   UNL     1     -10.847   4.111  73.428  1.00  0.00    -0.318 I  
HETATM    9  C   UNL     1      -9.644   5.707  69.583  1.00  0.00    -0.151 A  
HETATM   10  C   UNL     1      -9.629   4.678  71.794  1.00  0.00    -0.158 A  
HETATM   11  C   UNL     1     -10.299   5.365  70.774  1.00  0.00    -0.322 A  
HETATM   12  I   UNL     1     -10.899   6.461  68.062  1.00  0.00    -0.284 I  
ENDROOT
BRANCH   7  13
HETATM   13  N   UNL     1      -7.579   5.656  68.196  1.00  0.00    -0.081 N  
HETATM   14  O   UNL     1      -8.166   3.700  67.094  1.00  0.00    -0.090 OA 
HETATM   15  C   UNL     1      -7.592   4.786  67.117  1.00  0.00    -0.087 C  
HETATM   16  H   UNL     1      -7.043   6.521  68.121  1.00  0.00     0.000 HD 
BRANCH  15  17
HETATM   17  C   UNL     1      -6.952   5.355  65.858  1.00  0.00    -0.066 C  
BRANCH  17  18
HETATM   18  C   UNL     1      -6.675   6.846  66.039  1.00  0.00    -0.052 C  
BRANCH  18  19
HETATM   19  C   UNL     1      -7.355   7.758  65.013  1.00  0.00    -0.073 C  
BRANCH  19  20
HETATM   20  C   UNL     1      -8.805   8.135  65.337  1.00  0.00    -0.086 C  
BRANCH  20  21
HETATM   21  C   UNL     1      -8.878   9.554  65.891  1.00  0.00    -0.164 C  
HETATM   22  N   UNL     1     -10.175  10.002  66.097  1.00  0.00    -0.238 N  
HETATM   23  O   UNL     1      -7.876  10.242  66.052  1.00  0.00    -0.121 OA 
HETATM   24  H   UNL     1     -10.956   9.384  65.879  1.00  0.00     0.000 HD 
BRANCH  22  25
HETATM   25  C   UNL     1     -10.442  11.307  66.608  1.00  0.00    -0.247 A  
HETATM   26  C   UNL     1     -10.382  11.601  67.980  1.00  0.00    -0.192 A  
HETATM   27  I   UNL     1     -10.219  10.134  69.500  1.00  0.00    -0.258 I  
HETATM   28  C   UNL     1     -10.610  12.901  68.440  1.00  0.00    -0.267 A  
HETATM   29  C   UNL     1     -10.971  13.923  67.551  1.00  0.00    -0.276 A  
HETATM   30  I   UNL     1     -11.383  15.776  68.482  1.00  0.00    -0.305 I  
HETATM   31  C   UNL     1     -11.099  13.661  66.175  1.00  0.00    -0.299 A  
HETATM   32  C   UNL     1     -11.584  14.708  65.230  1.00  0.00    -0.354 C  
HETATM   33  C   UNL     1     -10.826  12.345  65.714  1.00  0.00    -0.276 A  
HETATM   34  O   UNL     1     -12.454  14.507  64.401  1.00  0.00    -0.633 OA 
HETATM   35  I   UNL     1     -10.844  11.858  63.608  1.00  0.00    -0.518 I  
HETATM   36  O   UNL     1     -10.956  15.900  65.328  1.00  0.00    -0.361 OA 
ENDBRANCH  22  25
ENDBRANCH  20  21
ENDBRANCH  19  20
ENDBRANCH  18  19
ENDBRANCH  17  18
ENDBRANCH  15  17
ENDBRANCH   7  13
TORSDOF 7
ENDMDL
MODEL       74
REMARK 921   NORMALIZED FREE ENERGY PREDICTED BY IDOCK:   -4.88 KCAL/MOL
REMARK 922        TOTAL FREE ENERGY PREDICTED BY IDOCK:   -7.79 KCAL/MOL
REMARK 923 INTER-LIGAND FREE ENERGY PREDICTED BY IDOCK:   -6.78 KCAL/MOL
REMARK 924 INTRA-LIGAND FREE ENERGY PREDICTED BY IDOCK:   -1.01 KCAL/MOL
REMARK 927      BINDING AFFINITY PREDICTED BY RF-SCORE:    0.00 PKD
ROOT
HETATM    1  O   UNL     1      -9.998   1.473  68.645  1.00  0.00    -0.024 OA 
HETATM    2  C   UNL     1      -9.213   2.425  69.195  1.00  0.00    -0.132 C  
HETATM    3  C   UNL     1      -9.266   3.744  68.509  1.00  0.00    -0.214 A  
HETATM    4  O   UNL     1      -8.561   2.220  70.204  1.00  0.00    -0.045 OA 
HETATM    5  C   UNL     1      -9.453   4.942  69.251  1.00  0.00    -0.142 A  
HETATM    6  I   UNL     1      -9.855   4.894  71.374  1.00  0.00    -0.259 I  
HETATM    7  C   UNL     1      -9.472   6.217  68.619  1.00  0.00    -0.121 A  
HETATM    8  I   UNL     1      -8.616   2.224  65.847  1.00  0.00    -0.112 I  
HETATM    9  C   UNL     1      -9.283   6.277  67.226  1.00  0.00    -0.118 A  
HETATM   10  C   UNL     1      -9.072   3.850  67.120  1.00  0.00    -0.156 A  
HETATM   11  C   UNL     1      -9.101   5.099  66.488  1.00  0.00    -0.127 A  
HETATM   12  I   UNL     1      -8.994   8.063  66.137  1.00  0.00    -0.149 I  
ENDROOT
BRANCH   7  13
HETATM   13  N   UNL     1      -9.599   7.383  69.433  1.00  0.00    -0.155 N  
HETATM   14  O   UNL     1      -7.332   7.729  69.786  1.00  0.00    -0.076 OA 
HETATM   15  C   UNL     1      -8.504   8.063  69.942  1.00  0.00    -0.126 C  
HETATM   16  H   UNL     1     -10.534   7.730  69.648  1.00  0.00     0.000 HD 
BRANCH  15  17
HETATM   17  C   UNL     1      -8.854   9.390  70.603  1.00  0.00    -0.275 C  
BRANCH  17  18
HETATM   18  C   UNL     1     -10.222   9.869  70.123  1.00  0.00    -0.326 C  
BRANCH  18  19
HETATM   19  C   UNL     1     -10.183  10.957  69.044  1.00  0.00    -0.219 C  
BRANCH  19  20
HETATM   20  C   UNL     1      -8.787  11.295  68.512  1.00  0.00    -0.159 C  
BRANCH  20  21
HETATM   21  C   UNL     1      -8.777  12.683  67.879  1.00  0.00    -0.181 C  
HETATM   22  N   UNL     1      -9.332  13.665  68.686  1.00  0.00    -0.373 N  
HETATM   23  O   UNL     1      -8.385  12.871  66.733  1.00  0.00    -0.098 OA 
HETATM   24  H   UNL     1      -9.692  13.409  69.605  1.00  0.00     0.000 HD 
BRANCH  22  25
HETATM   25  C   UNL     1      -9.413  15.024  68.260  1.00  0.00    -0.196 A  
HETATM   26  C   UNL     1     -10.511  15.520  67.540  1.00  0.00    -0.282 A  
HETATM   27  I   UNL     1     -12.029  14.300  66.704  1.00  0.00    -0.258 I  
HETATM   28  C   UNL     1     -10.573  16.868  67.175  1.00  0.00    -0.249 A  
HETATM   29  C   UNL     1      -9.510  17.736  67.457  1.00  0.00    -0.257 A  
HETATM   30  I   UNL     1      -9.769  19.696  66.706  1.00  0.00    -0.620 I  
HETATM   31  C   UNL     1      -8.364  17.270  68.126  1.00  0.00    -0.233 A  
HETATM   32  C   UNL     1      -7.181  18.152  68.341  1.00  0.00    -0.260 C  
HETATM   33  C   UNL     1      -8.330  15.907  68.528  1.00  0.00    -0.182 A  
HETATM   34  O   UNL     1      -6.039  17.808  68.094  1.00  0.00    -0.167 OA 
HETATM   35  I   UNL     1      -6.690  15.112  69.691  1.00  0.00    -0.141 I  
HETATM   36  O   UNL     1      -7.461  19.361  68.875  1.00  0.00    -0.348 OA 
ENDBRANCH  22  25
ENDBRANCH  20  21
ENDBRANCH  19  20
ENDBRANCH  18  19
ENDBRANCH  17  18
ENDBRANCH  15  17
ENDBRANCH   7  13
TORSDOF 7
ENDMDL
MODEL       75
REMARK 921   NORMALIZED FREE ENERGY PREDICTED BY IDOCK:   -4.85 KCAL/MOL
REMARK 922        TOTAL FREE ENERGY PREDICTED BY IDOCK:   -7.75 KCAL/MOL
REMARK 923 INTER-LIGAND FREE ENERGY PREDICTED BY IDOCK:   -6.58 KCAL/MOL
REMARK 924 INTRA-LIGAND FREE ENERGY PREDICTED BY IDOCK:   -1.17 KCAL/MOL
REMARK 927      BINDING AFFINITY PREDICTED BY RF-SCORE:    0.00 PKD
ROOT
HETATM    1  O   UNL     1      -8.509   7.851  63.345  1.00  0.00     0.010 OA 
HETATM    2  C   UNL     1      -8.348   8.308  64.606  1.00  0.00    -0.105 C  
HETATM    3  C   UNL     1      -9.249   9.433  64.976  1.00  0.00    -0.280 A  
HETATM    4  O   UNL     1      -7.562   7.796  65.382  1.00  0.00    -0.080 OA 
HETATM    5  C   UNL     1      -9.983   9.404  66.192  1.00  0.00    -0.281 A  
HETATM    6  I   UNL     1      -9.977   7.659  67.465  1.00  0.00    -0.315 I  
HETATM    7  C   UNL     1     -10.824  10.486  66.582  1.00  0.00    -0.096 A  
HETATM    8  I   UNL     1      -8.228  10.907  62.406  1.00  0.00    -0.143 I  
HETATM    9  C   UNL     1     -10.904  11.609  65.740  1.00  0.00    -0.281 A  
HETATM   10  C   UNL     1      -9.351  10.579  64.167  1.00  0.00    -0.267 A  
HETATM   11  C   UNL     1     -10.184  11.642  64.538  1.00  0.00    -0.337 A  
HETATM   12  I   UNL     1     -11.856  13.422  66.256  1.00  0.00    -0.477 I  
ENDROOT
BRANCH   7  13
HETATM   13  N   UNL     1     -11.482  10.419  67.847  1.00  0.00    -0.454 N  
HETATM   14  O   UNL     1      -9.751  11.304  69.114  1.00  0.00    -0.112 OA 
HETATM   15  C   UNL     1     -10.891  10.855  69.022  1.00  0.00    -0.230 C  
HETATM   16  H   UNL     1     -12.426  10.034  67.887  1.00  0.00     0.000 HD 
BRANCH  15  17
HETATM   17  C   UNL     1     -11.838  10.889  70.214  1.00  0.00    -0.450 C  
BRANCH  17  18
HETATM   18  C   UNL     1     -11.290  10.019  71.344  1.00  0.00    -0.251 C  
BRANCH  18  19
HETATM   19  C   UNL     1     -12.215   8.882  71.790  1.00  0.00    -0.429 C  
BRANCH  19  20
HETATM   20  C   UNL     1     -12.045   7.567  71.024  1.00  0.00    -0.305 C  
BRANCH  20  21
HETATM   21  C   UNL     1     -11.100   6.630  71.771  1.00  0.00    -0.249 C  
HETATM   22  N   UNL     1      -9.796   6.668  71.298  1.00  0.00    -0.177 N  
HETATM   23  O   UNL     1     -11.496   5.869  72.646  1.00  0.00    -0.291 OA 
HETATM   24  H   UNL     1      -9.565   7.288  70.523  1.00  0.00     0.000 HD 
BRANCH  22  25
HETATM   25  C   UNL     1      -8.771   5.858  71.872  1.00  0.00    -0.138 A  
HETATM   26  C   UNL     1      -8.147   6.188  73.086  1.00  0.00    -0.111 A  
HETATM   27  I   UNL     1      -8.377   8.050  74.069  1.00  0.00    -0.119 I  
HETATM   28  C   UNL     1      -7.175   5.348  73.637  1.00  0.00    -0.087 A  
HETATM   29  C   UNL     1      -6.753   4.197  72.958  1.00  0.00    -0.047 A  
HETATM   30  I   UNL     1      -5.191   3.147  73.921  1.00  0.00     0.000 I  
HETATM   31  C   UNL     1      -7.309   3.859  71.712  1.00  0.00    -0.055 A  
HETATM   32  C   UNL     1      -6.799   2.698  70.926  1.00  0.00    -0.032 C  
HETATM   33  C   UNL     1      -8.325   4.698  71.180  1.00  0.00    -0.103 A  
HETATM   34  O   UNL     1      -6.527   2.763  69.740  1.00  0.00    -0.028 OA 
HETATM   35  I   UNL     1      -9.358   4.200  69.347  1.00  0.00    -0.243 I  
HETATM   36  O   UNL     1      -6.696   1.542  71.618  1.00  0.00    -0.018 OA 
ENDBRANCH  22  25
ENDBRANCH  20  21
ENDBRANCH  19  20
ENDBRANCH  18  19
ENDBRANCH  17  18
ENDBRANCH  15  17
ENDBRANCH   7  13
TORSDOF 7
ENDMDL
MODEL       76
REMARK 921   NORMALIZED FREE ENERGY PREDICTED BY IDOCK:   -4.83 KCAL/MOL
REMARK 922        TOTAL FREE ENERGY PREDICTED BY IDOCK:   -7.73 KCAL/MOL
REMARK 923 INTER-LIGAND FREE ENERGY PREDICTED BY IDOCK:   -6.04 KCAL/MOL
REMARK 924 INTRA-LIGAND FREE ENERGY PREDICTED BY IDOCK:   -1.69 KCAL/MOL
REMARK 927      BINDING AFFINITY PREDICTED BY RF-SCORE:    0.00 PKD
ROOT
HETATM    1  O   UNL     1     -12.654  13.043  65.658  1.00  0.00    -0.505 OA 
HETATM    2  C   UNL     1     -11.349  12.968  65.315  1.00  0.00    -0.295 C  
HETATM    3  C   UNL     1     -10.544  12.029  66.142  1.00  0.00    -0.298 A  
HETATM    4  O   UNL     1     -10.894  13.586  64.369  1.00  0.00    -0.392 OA 
HETATM    5  C   UNL     1      -9.685  11.077  65.529  1.00  0.00    -0.229 A  
HETATM    6  I   UNL     1      -9.644  10.819  63.384  1.00  0.00    -0.415 I  
HETATM    7  C   UNL     1      -8.880  10.192  66.302  1.00  0.00    -0.148 A  
HETATM    8  I   UNL     1     -11.637  13.537  68.662  1.00  0.00    -0.422 I  
HETATM    9  C   UNL     1      -8.936  10.287  67.704  1.00  0.00    -0.134 A  
HETATM   10  C   UNL     1     -10.564  12.096  67.546  1.00  0.00    -0.214 A  
HETATM   11  C   UNL     1      -9.784  11.222  68.314  1.00  0.00    -0.199 A  
HETATM   12  I   UNL     1      -7.630   9.279  69.021  1.00  0.00    -0.079 I  
ENDROOT
BRANCH   7  13
HETATM   13  N   UNL     1      -7.992   9.305  65.622  1.00  0.00    -0.101 N  
HETATM   14  O   UNL     1      -6.158  10.727  65.570  1.00  0.00    -0.124 OA 
HETATM   15  C   UNL     1      -6.680   9.643  65.324  1.00  0.00    -0.088 C  
HETATM   16  H   UNL     1      -8.335   8.386  65.345  1.00  0.00     0.000 HD 
BRANCH  15  17
HETATM   17  C   UNL     1      -5.851   8.483  64.788  1.00  0.00    -0.055 C  
BRANCH  17  18
HETATM   18  C   UNL     1      -6.695   7.210  64.750  1.00  0.00    -0.046 C  
BRANCH  18  19
HETATM   19  C   UNL     1      -6.142   6.045  65.578  1.00  0.00    -0.029 C  
BRANCH  19  20
HETATM   20  C   UNL     1      -6.906   4.725  65.432  1.00  0.00    -0.061 C  
BRANCH  20  21
HETATM   21  C   UNL     1      -7.759   4.460  66.669  1.00  0.00    -0.094 C  
HETATM   22  N   UNL     1      -7.641   5.440  67.644  1.00  0.00    -0.087 N  
HETATM   23  O   UNL     1      -8.415   3.433  66.798  1.00  0.00    -0.102 OA 
HETATM   24  H   UNL     1      -7.023   6.235  67.479  1.00  0.00     0.000 HD 
BRANCH  22  25
HETATM   25  C   UNL     1      -8.362   5.362  68.872  1.00  0.00    -0.100 A  
HETATM   26  C   UNL     1      -9.714   5.726  68.971  1.00  0.00    -0.140 A  
HETATM   27  I   UNL     1     -10.784   6.735  67.446  1.00  0.00    -0.407 I  
HETATM   28  C   UNL     1     -10.399   5.598  70.183  1.00  0.00    -0.341 A  
HETATM   29  C   UNL     1      -9.734   5.169  71.340  1.00  0.00    -0.168 A  
HETATM   30  I   UNL     1     -10.937   5.166  73.079  1.00  0.00    -0.363 I  
HETATM   31  C   UNL     1      -8.366   4.848  71.300  1.00  0.00    -0.115 A  
HETATM   32  C   UNL     1      -7.618   4.492  72.541  1.00  0.00    -0.085 C  
HETATM   33  C   UNL     1      -7.689   4.944  70.054  1.00  0.00    -0.059 A  
HETATM   34  O   UNL     1      -6.542   4.981  72.835  1.00  0.00    -0.056 OA 
HETATM   35  I   UNL     1      -5.627   4.336  69.837  1.00  0.00    -0.014 I  
HETATM   36  O   UNL     1      -8.204   3.547  73.308  1.00  0.00    -0.074 OA 
ENDBRANCH  22  25
ENDBRANCH  20  21
ENDBRANCH  19  20
ENDBRANCH  18  19
ENDBRANCH  17  18
ENDBRANCH  15  17
ENDBRANCH   7  13
TORSDOF 7
ENDMDL
MODEL       77
REMARK 921   NORMALIZED FREE ENERGY PREDICTED BY IDOCK:   -4.81 KCAL/MOL
REMARK 922        TOTAL FREE ENERGY PREDICTED BY IDOCK:   -7.70 KCAL/MOL
REMARK 923 INTER-LIGAND FREE ENERGY PREDICTED BY IDOCK:   -6.68 KCAL/MOL
REMARK 924 INTRA-LIGAND FREE ENERGY PREDICTED BY IDOCK:   -1.02 KCAL/MOL
REMARK 927      BINDING AFFINITY PREDICTED BY RF-SCORE:    0.00 PKD
ROOT
HETATM    1  O   UNL     1      -7.326  18.660  67.275  1.00  0.00    -0.215 OA 
HETATM    2  C   UNL     1      -7.810  17.529  67.834  1.00  0.00    -0.218 C  
HETATM    3  C   UNL     1      -8.685  16.723  66.941  1.00  0.00    -0.242 A  
HETATM    4  O   UNL     1      -7.502  17.184  68.961  1.00  0.00    -0.245 OA 
HETATM    5  C   UNL     1      -8.481  15.324  66.795  1.00  0.00    -0.255 A  
HETATM    6  I   UNL     1      -6.789  14.336  67.706  1.00  0.00    -0.095 I  
HETATM    7  C   UNL     1      -9.328  14.528  65.973  1.00  0.00    -0.160 A  
HETATM    8  I   UNL     1     -10.359  19.329  66.467  1.00  0.00    -0.595 I  
HETATM    9  C   UNL     1     -10.399  15.154  65.309  1.00  0.00    -0.396 A  
HETATM   10  C   UNL     1      -9.772  17.307  66.267  1.00  0.00    -0.266 A  
HETATM   11  C   UNL     1     -10.603  16.534  65.447  1.00  0.00    -0.293 A  
HETATM   12  I   UNL     1     -11.929  14.126  64.279  1.00  0.00    -0.221 I  
ENDROOT
BRANCH   7  13
HETATM   13  N   UNL     1      -9.105  13.119  65.923  1.00  0.00    -0.395 N  
HETATM   14  O   UNL     1     -10.288  12.578  67.845  1.00  0.00    -0.206 OA 
HETATM   15  C   UNL     1      -9.625  12.245  66.865  1.00  0.00    -0.213 C  
HETATM   16  H   UNL     1      -8.541  12.739  65.162  1.00  0.00     0.000 HD 
BRANCH  15  17
HETATM   17  C   UNL     1      -9.445  10.775  66.509  1.00  0.00    -0.197 C  
BRANCH  17  18
HETATM   18  C   UNL     1      -8.558  10.641  65.274  1.00  0.00    -0.175 C  
BRANCH  18  19
HETATM   19  C   UNL     1      -7.619   9.430  65.282  1.00  0.00    -0.107 C  
BRANCH  19  20
HETATM   20  C   UNL     1      -8.311   8.071  65.436  1.00  0.00    -0.161 C  
BRANCH  20  21
HETATM   21  C   UNL     1      -7.819   7.360  66.693  1.00  0.00    -0.109 C  
HETATM   22  N   UNL     1      -8.756   7.331  67.716  1.00  0.00    -0.126 N  
HETATM   23  O   UNL     1      -6.674   6.935  66.793  1.00  0.00    -0.043 OA 
HETATM   24  H   UNL     1      -9.668   7.763  67.569  1.00  0.00     0.000 HD 
BRANCH  22  25
HETATM   25  C   UNL     1      -8.474   6.710  68.969  1.00  0.00    -0.130 A  
HETATM   26  C   UNL     1      -8.497   5.316  69.136  1.00  0.00    -0.098 A  
HETATM   27  I   UNL     1      -9.254   3.962  67.693  1.00  0.00    -0.221 I  
HETATM   28  C   UNL     1      -8.176   4.742  70.369  1.00  0.00    -0.083 A  
HETATM   29  C   UNL     1      -7.892   5.545  71.482  1.00  0.00    -0.111 A  
HETATM   30  I   UNL     1      -7.553   4.464  73.267  1.00  0.00    -0.084 I  
HETATM   31  C   UNL     1      -7.914   6.947  71.375  1.00  0.00    -0.108 A  
HETATM   32  C   UNL     1      -7.718   7.818  72.571  1.00  0.00    -0.106 C  
HETATM   33  C   UNL     1      -8.203   7.519  70.107  1.00  0.00    -0.132 A  
HETATM   34  O   UNL     1      -8.447   8.757  72.838  1.00  0.00    -0.409 OA 
HETATM   35  I   UNL     1      -8.119   9.655  69.784  1.00  0.00    -0.200 I  
HETATM   36  O   UNL     1      -6.640   7.515  73.326  1.00  0.00    -0.063 OA 
ENDBRANCH  22  25
ENDBRANCH  20  21
ENDBRANCH  19  20
ENDBRANCH  18  19
ENDBRANCH  17  18
ENDBRANCH  15  17
ENDBRANCH   7  13
TORSDOF 7
ENDMDL
MODEL       78
REMARK 921   NORMALIZED FREE ENERGY PREDICTED BY IDOCK:   -4.81 KCAL/MOL
REMARK 922        TOTAL FREE ENERGY PREDICTED BY IDOCK:   -7.70 KCAL/MOL
REMARK 923 INTER-LIGAND FREE ENERGY PREDICTED BY IDOCK:   -6.72 KCAL/MOL
REMARK 924 INTRA-LIGAND FREE ENERGY PREDICTED BY IDOCK:   -0.98 KCAL/MOL
REMARK 927      BINDING AFFINITY PREDICTED BY RF-SCORE:    0.00 PKD
ROOT
HETATM    1  O   UNL     1     -10.803  16.677  66.796  1.00  0.00    -0.193 OA 
HETATM    2  C   UNL     1     -10.472  15.726  65.896  1.00  0.00    -0.352 C  
HETATM    3  C   UNL     1      -9.493  14.720  66.390  1.00  0.00    -0.328 A  
HETATM    4  O   UNL     1     -10.983  15.678  64.791  1.00  0.00    -0.436 OA 
HETATM    5  C   UNL     1      -9.730  13.330  66.215  1.00  0.00    -0.268 A  
HETATM    6  I   UNL     1     -11.595  12.604  65.399  1.00  0.00    -0.469 I  
HETATM    7  C   UNL     1      -8.790  12.352  66.648  1.00  0.00    -0.156 A  
HETATM    8  I   UNL     1      -7.650  17.123  67.197  1.00  0.00    -0.266 I  
HETATM    9  C   UNL     1      -7.596  12.790  67.247  1.00  0.00    -0.112 A  
HETATM   10  C   UNL     1      -8.283  15.116  66.986  1.00  0.00    -0.228 A  
HETATM   11  C   UNL     1      -7.358  14.160  67.426  1.00  0.00    -0.143 A  
HETATM   12  I   UNL     1      -5.958  11.537  67.700  1.00  0.00    -0.093 I  
ENDROOT
BRANCH   7  13
HETATM   13  N   UNL     1      -9.063  10.976  66.382  1.00  0.00    -0.172 N  
HETATM   14  O   UNL     1      -7.895  10.839  64.382  1.00  0.00     0.046 OA 
HETATM   15  C   UNL     1      -8.571  10.318  65.265  1.00  0.00    -0.165 C  
HETATM   16  H   UNL     1      -9.642  10.456  67.041  1.00  0.00     0.000 HD 
BRANCH  15  17
HETATM   17  C   UNL     1      -8.804   8.813  65.284  1.00  0.00    -0.205 C  
BRANCH  17  18
HETATM   18  C   UNL     1      -9.929   8.469  66.256  1.00  0.00    -0.251 C  
BRANCH  18  19
HETATM   19  C   UNL     1     -10.077   6.977  66.572  1.00  0.00    -0.149 C  
BRANCH  19  20
HETATM   20  C   UNL     1      -8.768   6.181  66.575  1.00  0.00    -0.133 C  
BRANCH  20  21
HETATM   21  C   UNL     1      -8.569   5.484  67.917  1.00  0.00    -0.104 C  
HETATM   22  N   UNL     1      -9.730   4.922  68.428  1.00  0.00    -0.149 N  
HETATM   23  O   UNL     1      -7.494   5.502  68.506  1.00  0.00    -0.074 OA 
HETATM   24  H   UNL     1     -10.598   5.005  67.899  1.00  0.00     0.000 HD 
BRANCH  22  25
HETATM   25  C   UNL     1      -9.739   4.230  69.676  1.00  0.00    -0.214 A  
HETATM   26  C   UNL     1      -9.243   2.923  69.810  1.00  0.00    -0.142 A  
HETATM   27  I   UNL     1      -8.726   1.677  68.177  1.00  0.00    -0.168 I  
HETATM   28  C   UNL     1      -9.231   2.292  71.058  1.00  0.00    -0.190 A  
HETATM   29  C   UNL     1      -9.776   2.922  72.185  1.00  0.00    -0.157 A  
HETATM   30  I   UNL     1      -9.757   1.735  73.934  1.00  0.00    -0.134 I  
HETATM   31  C   UNL     1     -10.334   4.208  72.085  1.00  0.00    -0.172 A  
HETATM   32  C   UNL     1     -11.012   4.851  73.249  1.00  0.00    -0.320 C  
HETATM   33  C   UNL     1     -10.305   4.856  70.820  1.00  0.00    -0.158 A  
HETATM   34  O   UNL     1     -12.104   5.384  73.173  1.00  0.00    -0.042 OA 
HETATM   35  I   UNL     1     -10.998   6.889  70.575  1.00  0.00    -0.382 I  
HETATM   36  O   UNL     1     -10.304   4.838  74.398  1.00  0.00    -0.236 OA 
ENDBRANCH  22  25
ENDBRANCH  20  21
ENDBRANCH  19  20
ENDBRANCH  18  19
ENDBRANCH  17  18
ENDBRANCH  15  17
ENDBRANCH   7  13
TORSDOF 7
ENDMDL
MODEL       79
REMARK 921   NORMALIZED FREE ENERGY PREDICTED BY IDOCK:   -4.81 KCAL/MOL
REMARK 922        TOTAL FREE ENERGY PREDICTED BY IDOCK:   -7.70 KCAL/MOL
REMARK 923 INTER-LIGAND FREE ENERGY PREDICTED BY IDOCK:   -6.98 KCAL/MOL
REMARK 924 INTRA-LIGAND FREE ENERGY PREDICTED BY IDOCK:   -0.72 KCAL/MOL
REMARK 927      BINDING AFFINITY PREDICTED BY RF-SCORE:    0.00 PKD
ROOT
HETATM    1  O   UNL     1     -10.993  19.173  66.882  1.00  0.00    -0.394 OA 
HETATM    2  C   UNL     1     -10.487  18.240  66.046  1.00  0.00    -0.361 C  
HETATM    3  C   UNL     1      -9.417  17.393  66.639  1.00  0.00    -0.285 A  
HETATM    4  O   UNL     1     -10.920  18.081  64.919  1.00  0.00    -0.776 OA 
HETATM    5  C   UNL     1      -9.459  15.978  66.516  1.00  0.00    -0.271 A  
HETATM    6  I   UNL     1     -11.160  14.979  65.634  1.00  0.00    -0.290 I  
HETATM    7  C   UNL     1      -8.427  15.151  67.044  1.00  0.00    -0.229 A  
HETATM    8  I   UNL     1      -7.955  20.049  67.433  1.00  0.00    -0.349 I  
HETATM    9  C   UNL     1      -7.338  15.767  67.687  1.00  0.00    -0.164 A  
HETATM   10  C   UNL     1      -8.306  17.969  67.281  1.00  0.00    -0.229 A  
HETATM   11  C   UNL     1      -7.293  17.163  67.815  1.00  0.00    -0.179 A  
HETATM   12  I   UNL     1      -5.581  14.762  68.286  1.00  0.00    -0.126 I  
ENDROOT
BRANCH   7  13
HETATM   13  N   UNL     1      -8.501  13.743  66.828  1.00  0.00    -0.439 N  
HETATM   14  O   UNL     1      -9.677  13.222  68.760  1.00  0.00    -0.114 OA 
HETATM   15  C   UNL     1      -9.144  12.883  67.707  1.00  0.00    -0.197 C  
HETATM   16  H   UNL     1      -8.063  13.352  65.994  1.00  0.00     0.000 HD 
BRANCH  15  17
HETATM   17  C   UNL     1      -9.286  11.460  67.184  1.00  0.00    -0.170 C  
BRANCH  17  18
HETATM   18  C   UNL     1      -7.980  10.695  67.386  1.00  0.00    -0.111 C  
BRANCH  18  19
HETATM   19  C   UNL     1      -7.681  10.298  68.835  1.00  0.00    -0.098 C  
BRANCH  19  20
HETATM   20  C   UNL     1      -8.914  10.069  69.714  1.00  0.00    -0.209 C  
BRANCH  20  21
HETATM   21  C   UNL     1      -8.795   8.750  70.471  1.00  0.00    -0.176 C  
HETATM   22  N   UNL     1      -9.167   7.644  69.720  1.00  0.00    -0.147 N  
HETATM   23  O   UNL     1      -8.477   8.706  71.654  1.00  0.00    -0.157 OA 
HETATM   24  H   UNL     1      -9.478   7.778  68.758  1.00  0.00     0.000 HD 
BRANCH  22  25
HETATM   25  C   UNL     1      -9.124   6.325  70.261  1.00  0.00    -0.154 A  
HETATM   26  C   UNL     1     -10.207   5.766  70.957  1.00  0.00    -0.217 A  
HETATM   27  I   UNL     1     -11.905   6.864  71.589  1.00  0.00    -0.419 I  
HETATM   28  C   UNL     1     -10.142   4.455  71.439  1.00  0.00    -0.210 A  
HETATM   29  C   UNL     1      -8.972   3.696  71.299  1.00  0.00    -0.101 A  
HETATM   30  I   UNL     1      -9.061   1.789  72.207  1.00  0.00    -0.144 I  
HETATM   31  C   UNL     1      -7.843   4.237  70.659  1.00  0.00    -0.056 A  
HETATM   32  C   UNL     1      -6.555   3.485  70.594  1.00  0.00    -0.032 C  
HETATM   33  C   UNL     1      -7.933   5.556  70.138  1.00  0.00    -0.090 A  
HETATM   34  O   UNL     1      -5.479   3.981  70.875  1.00  0.00    -0.007 OA 
HETATM   35  I   UNL     1      -6.317   6.439  69.006  1.00  0.00    -0.042 I  
HETATM   36  O   UNL     1      -6.661   2.212  70.156  1.00  0.00    -0.032 OA 
ENDBRANCH  22  25
ENDBRANCH  20  21
ENDBRANCH  19  20
ENDBRANCH  18  19
ENDBRANCH  17  18
ENDBRANCH  15  17
ENDBRANCH   7  13
TORSDOF 7
ENDMDL
MODEL       80
REMARK 921   NORMALIZED FREE ENERGY PREDICTED BY IDOCK:   -4.80 KCAL/MOL
REMARK 922        TOTAL FREE ENERGY PREDICTED BY IDOCK:   -7.69 KCAL/MOL
REMARK 923 INTER-LIGAND FREE ENERGY PREDICTED BY IDOCK:   -6.82 KCAL/MOL
REMARK 924 INTRA-LIGAND FREE ENERGY PREDICTED BY IDOCK:   -0.87 KCAL/MOL
REMARK 927      BINDING AFFINITY PREDICTED BY RF-SCORE:    0.00 PKD
ROOT
HETATM    1  O   UNL     1     -10.713  15.990  64.743  1.00  0.00    -0.611 OA 
HETATM    2  C   UNL     1     -10.620  15.452  65.979  1.00  0.00    -0.322 C  
HETATM    3  C   UNL     1     -10.083  14.065  66.011  1.00  0.00    -0.327 A  
HETATM    4  O   UNL     1     -10.905  16.083  66.980  1.00  0.00    -0.309 OA 
HETATM    5  C   UNL     1      -9.044  13.709  66.912  1.00  0.00    -0.240 A  
HETATM    6  I   UNL     1      -8.066  15.195  68.140  1.00  0.00    -0.176 I  
HETATM    7  C   UNL     1      -8.540  12.379  66.985  1.00  0.00    -0.191 A  
HETATM    8  I   UNL     1     -12.284  13.319  63.908  1.00  0.00    -0.307 I  
HETATM    9  C   UNL     1      -9.108  11.402  66.148  1.00  0.00    -0.207 A  
HETATM   10  C   UNL     1     -10.629  13.055  65.198  1.00  0.00    -0.312 A  
HETATM   11  C   UNL     1     -10.132  11.747  65.254  1.00  0.00    -0.300 A  
HETATM   12  I   UNL     1      -8.713   9.332  66.291  1.00  0.00    -0.205 I  
ENDROOT
BRANCH   7  13
HETATM   13  N   UNL     1      -7.541  12.078  67.958  1.00  0.00    -0.111 N  
HETATM   14  O   UNL     1      -5.744  11.972  66.493  1.00  0.00    -0.272 OA 
HETATM   15  C   UNL     1      -6.203  11.914  67.630  1.00  0.00    -0.083 C  
HETATM   16  H   UNL     1      -7.821  11.979  68.933  1.00  0.00     0.000 HD 
BRANCH  15  17
HETATM   17  C   UNL     1      -5.281  11.807  68.838  1.00  0.00    -0.050 C  
BRANCH  17  18
HETATM   18  C   UNL     1      -5.205  10.357  69.311  1.00  0.00    -0.038 C  
BRANCH  18  19
HETATM   19  C   UNL     1      -6.024  10.044  70.568  1.00  0.00    -0.092 C  
BRANCH  19  20
HETATM   20  C   UNL     1      -7.522   9.827  70.330  1.00  0.00    -0.173 C  
BRANCH  20  21
HETATM   21  C   UNL     1      -8.055   8.725  71.240  1.00  0.00    -0.154 C  
HETATM   22  N   UNL     1      -8.589   7.646  70.550  1.00  0.00    -0.136 N  
HETATM   23  O   UNL     1      -8.074   8.842  72.460  1.00  0.00    -0.381 OA 
HETATM   24  H   UNL     1      -8.588   7.658  69.530  1.00  0.00     0.000 HD 
BRANCH  22  25
HETATM   25  C   UNL     1      -9.137   6.520  71.233  1.00  0.00    -0.148 A  
HETATM   26  C   UNL     1     -10.463   6.499  71.696  1.00  0.00    -0.213 A  
HETATM   27  I   UNL     1     -11.727   8.198  71.752  1.00  0.00    -0.447 I  
HETATM   28  C   UNL     1     -10.977   5.362  72.326  1.00  0.00    -0.277 A  
HETATM   29  C   UNL     1     -10.163   4.248  72.572  1.00  0.00    -0.174 A  
HETATM   30  I   UNL     1     -11.119   2.695  73.643  1.00  0.00    -0.132 I  
HETATM   31  C   UNL     1      -8.814   4.248  72.177  1.00  0.00    -0.130 A  
HETATM   32  C   UNL     1      -7.906   3.116  72.523  1.00  0.00    -0.059 C  
HETATM   33  C   UNL     1      -8.312   5.393  71.501  1.00  0.00    -0.122 A  
HETATM   34  O   UNL     1      -6.799   3.273  73.005  1.00  0.00    -0.035 OA 
HETATM   35  I   UNL     1      -6.299   5.451  70.716  1.00  0.00    -0.033 I  
HETATM   36  O   UNL     1      -8.385   1.889  72.223  1.00  0.00    -0.052 OA 
ENDBRANCH  22  25
ENDBRANCH  20  21
ENDBRANCH  19  20
ENDBRANCH  18  19
ENDBRANCH  17  18
ENDBRANCH  15  17
ENDBRANCH   7  13
TORSDOF 7
ENDMDL
MODEL       81
REMARK 921   NORMALIZED FREE ENERGY PREDICTED BY IDOCK:   -4.80 KCAL/MOL
REMARK 922        TOTAL FREE ENERGY PREDICTED BY IDOCK:   -7.68 KCAL/MOL
REMARK 923 INTER-LIGAND FREE ENERGY PREDICTED BY IDOCK:   -6.43 KCAL/MOL
REMARK 924 INTRA-LIGAND FREE ENERGY PREDICTED BY IDOCK:   -1.25 KCAL/MOL
REMARK 927      BINDING AFFINITY PREDICTED BY RF-SCORE:    0.00 PKD
ROOT
HETATM    1  O   UNL     1     -12.926   7.662  72.073  1.00  0.00    -0.278 OA 
HETATM    2  C   UNL     1     -12.010   8.618  71.801  1.00  0.00    -0.336 C  
HETATM    3  C   UNL     1     -10.838   8.146  71.016  1.00  0.00    -0.265 A  
HETATM    4  O   UNL     1     -12.172   9.779  72.132  1.00  0.00    -0.286 OA 
HETATM    5  C   UNL     1     -10.394   8.863  69.872  1.00  0.00    -0.206 A  
HETATM    6  I   UNL     1     -11.503  10.553  69.108  1.00  0.00    -0.220 I  
HETATM    7  C   UNL     1      -9.254   8.449  69.127  1.00  0.00    -0.150 A  
HETATM    8  I   UNL     1     -10.478   5.902  73.173  1.00  0.00    -0.313 I  
HETATM    9  C   UNL     1      -8.550   7.310  69.558  1.00  0.00    -0.134 A  
HETATM   10  C   UNL     1     -10.100   7.018  71.417  1.00  0.00    -0.189 A  
HETATM   11  C   UNL     1      -8.984   6.597  70.684  1.00  0.00    -0.151 A  
HETATM   12  I   UNL     1      -6.687   6.692  68.778  1.00  0.00    -0.062 I  
ENDROOT
BRANCH   7  13
HETATM   13  N   UNL     1      -8.826   9.252  68.027  1.00  0.00    -0.128 N  
HETATM   14  O   UNL     1      -9.517   7.813  66.342  1.00  0.00    -0.199 OA 
HETATM   15  C   UNL     1      -9.011   8.872  66.707  1.00  0.00    -0.130 C  
HETATM   16  H   UNL     1      -8.366  10.141  68.220  1.00  0.00     0.000 HD 
BRANCH  15  17
HETATM   17  C   UNL     1      -8.674   9.962  65.698  1.00  0.00    -0.168 C  
BRANCH  17  18
HETATM   18  C   UNL     1      -9.836  10.153  64.726  1.00  0.00    -0.382 C  
BRANCH  18  19
HETATM   19  C   UNL     1     -10.258  11.610  64.503  1.00  0.00    -0.337 C  
BRANCH  19  20
HETATM   20  C   UNL     1     -11.430  12.087  65.366  1.00  0.00    -0.361 C  
BRANCH  20  21
HETATM   21  C   UNL     1     -11.024  13.300  66.198  1.00  0.00    -0.279 C  
HETATM   22  N   UNL     1      -9.812  13.855  65.814  1.00  0.00    -0.451 N  
HETATM   23  O   UNL     1     -11.684  13.679  67.159  1.00  0.00    -0.340 OA 
HETATM   24  H   UNL     1      -9.297  13.438  65.039  1.00  0.00     0.000 HD 
BRANCH  22  25
HETATM   25  C   UNL     1      -9.269  14.994  66.478  1.00  0.00    -0.290 A  
HETATM   26  C   UNL     1      -9.806  16.281  66.317  1.00  0.00    -0.313 A  
HETATM   27  I   UNL     1     -11.251  16.788  64.853  1.00  0.00     1.124 I  
HETATM   28  C   UNL     1      -9.272  17.368  67.016  1.00  0.00    -0.252 A  
HETATM   29  C   UNL     1      -8.147  17.209  67.838  1.00  0.00    -0.201 A  
HETATM   30  I   UNL     1      -7.443  19.006  68.699  1.00  0.00    -0.337 I  
HETATM   31  C   UNL     1      -7.543  15.948  67.984  1.00  0.00    -0.137 A  
HETATM   32  C   UNL     1      -6.285  15.780  68.770  1.00  0.00    -0.105 C  
HETATM   33  C   UNL     1      -8.118  14.843  67.301  1.00  0.00    -0.208 A  
HETATM   34  O   UNL     1      -5.320  15.161  68.358  1.00  0.00    -0.094 OA 
HETATM   35  I   UNL     1      -7.367  12.834  67.565  1.00  0.00    -0.074 I  
HETATM   36  O   UNL     1      -6.305  16.333  70.002  1.00  0.00    -0.177 OA 
ENDBRANCH  22  25
ENDBRANCH  20  21
ENDBRANCH  19  20
ENDBRANCH  18  19
ENDBRANCH  17  18
ENDBRANCH  15  17
ENDBRANCH   7  13
TORSDOF 7
ENDMDL
MODEL       82
REMARK 921   NORMALIZED FREE ENERGY PREDICTED BY IDOCK:   -4.78 KCAL/MOL
REMARK 922        TOTAL FREE ENERGY PREDICTED BY IDOCK:   -7.66 KCAL/MOL
REMARK 923 INTER-LIGAND FREE ENERGY PREDICTED BY IDOCK:   -6.72 KCAL/MOL
REMARK 924 INTRA-LIGAND FREE ENERGY PREDICTED BY IDOCK:   -0.94 KCAL/MOL
REMARK 927      BINDING AFFINITY PREDICTED BY RF-SCORE:    0.00 PKD
ROOT
HETATM    1  O   UNL     1      -9.198   2.138  67.813  1.00  0.00    -0.161 OA 
HETATM    2  C   UNL     1      -8.753   3.175  68.556  1.00  0.00    -0.104 C  
HETATM    3  C   UNL     1      -8.990   4.515  67.954  1.00  0.00    -0.133 A  
HETATM    4  O   UNL     1      -8.249   3.013  69.653  1.00  0.00    -0.047 OA 
HETATM    5  C   UNL     1      -9.564   5.564  68.721  1.00  0.00    -0.135 A  
HETATM    6  I   UNL     1     -10.291   5.219  70.726  1.00  0.00    -0.186 I  
HETATM    7  C   UNL     1      -9.767   6.864  68.175  1.00  0.00    -0.131 A  
HETATM    8  I   UNL     1      -7.578   3.443  65.369  1.00  0.00    -0.078 I  
HETATM    9  C   UNL     1      -9.368   7.102  66.847  1.00  0.00    -0.155 A  
HETATM   10  C   UNL     1      -8.597   4.798  66.634  1.00  0.00    -0.108 A  
HETATM   11  C   UNL     1      -8.803   6.070  66.085  1.00  0.00    -0.152 A  
HETATM   12  I   UNL     1      -9.315   9.009  65.941  1.00  0.00    -0.227 I  
ENDROOT
BRANCH   7  13
HETATM   13  N   UNL     1     -10.288   7.888  69.021  1.00  0.00    -0.213 N  
HETATM   14  O   UNL     1      -8.252   8.649  69.833  1.00  0.00    -0.113 OA 
HETATM   15  C   UNL     1      -9.477   8.720  69.777  1.00  0.00    -0.167 C  
HETATM   16  H   UNL     1     -11.299   8.013  69.071  1.00  0.00     0.000 HD 
BRANCH  15  17
HETATM   17  C   UNL     1     -10.221   9.871  70.441  1.00  0.00    -0.299 C  
BRANCH  17  18
HETATM   18  C   UNL     1     -11.265  10.441  69.483  1.00  0.00    -0.325 C  
BRANCH  18  19
HETATM   19  C   UNL     1     -10.804  11.657  68.674  1.00  0.00    -0.253 C  
BRANCH  19  20
HETATM   20  C   UNL     1      -9.285  11.823  68.556  1.00  0.00    -0.152 C  
BRANCH  20  21
HETATM   21  C   UNL     1      -8.943  13.043  67.708  1.00  0.00    -0.191 C  
HETATM   22  N   UNL     1      -8.551  14.145  68.454  1.00  0.00    -0.173 N  
HETATM   23  O   UNL     1      -9.087  13.049  66.490  1.00  0.00    -0.214 OA 
HETATM   24  H   UNL     1      -8.517  14.071  69.470  1.00  0.00     0.000 HD 
BRANCH  22  25
HETATM   25  C   UNL     1      -8.195  15.379  67.833  1.00  0.00    -0.144 A  
HETATM   26  C   UNL     1      -6.880  15.663  67.433  1.00  0.00    -0.197 A  
HETATM   27  I   UNL     1      -5.198  14.490  67.967  1.00  0.00     0.033 I  
HETATM   28  C   UNL     1      -6.576  16.867  66.790  1.00  0.00    -0.260 A  
HETATM   29  C   UNL     1      -7.563  17.844  66.594  1.00  0.00    -0.232 A  
HETATM   30  I   UNL     1      -6.851  19.629  65.712  1.00  0.00    -0.325 I  
HETATM   31  C   UNL     1      -8.881  17.625  67.030  1.00  0.00    -0.256 A  
HETATM   32  C   UNL     1      -9.919  18.692  66.925  1.00  0.00    -0.345 C  
HETATM   33  C   UNL     1      -9.187  16.381  67.646  1.00  0.00    -0.199 A  
HETATM   34  O   UNL     1     -10.654  19.000  67.846  1.00  0.00    -0.399 OA 
HETATM   35  I   UNL     1     -11.207  15.871  68.222  1.00  0.00    -0.241 I  
HETATM   36  O   UNL     1     -10.016  19.274  65.710  1.00  0.00    -0.443 OA 
ENDBRANCH  22  25
ENDBRANCH  20  21
ENDBRANCH  19  20
ENDBRANCH  18  19
ENDBRANCH  17  18
ENDBRANCH  15  17
ENDBRANCH   7  13
TORSDOF 7
ENDMDL
MODEL       83
REMARK 921   NORMALIZED FREE ENERGY PREDICTED BY IDOCK:   -4.78 KCAL/MOL
REMARK 922        TOTAL FREE ENERGY PREDICTED BY IDOCK:   -7.65 KCAL/MOL
REMARK 923 INTER-LIGAND FREE ENERGY PREDICTED BY IDOCK:   -6.65 KCAL/MOL
REMARK 924 INTRA-LIGAND FREE ENERGY PREDICTED BY IDOCK:   -1.00 KCAL/MOL
REMARK 927      BINDING AFFINITY PREDICTED BY RF-SCORE:    0.00 PKD
ROOT
HETATM    1  O   UNL     1      -6.949  19.249  67.519  1.00  0.00    -0.207 OA 
HETATM    2  C   UNL     1      -7.241  18.110  68.184  1.00  0.00    -0.245 C  
HETATM    3  C   UNL     1      -8.100  17.156  67.432  1.00  0.00    -0.193 A  
HETATM    4  O   UNL     1      -6.786  17.874  69.289  1.00  0.00    -0.250 OA 
HETATM    5  C   UNL     1      -7.750  15.782  67.339  1.00  0.00    -0.183 A  
HETATM    6  I   UNL     1      -5.873  15.047  68.119  1.00  0.00    -0.142 I  
HETATM    7  C   UNL     1      -8.575  14.846  66.654  1.00  0.00    -0.172 A  
HETATM    8  I   UNL     1     -10.105  19.526  66.999  1.00  0.00    -0.652 I  
HETATM    9  C   UNL     1      -9.771  15.306  66.074  1.00  0.00    -0.335 A  
HETATM   10  C   UNL     1      -9.308  17.573  66.846  1.00  0.00    -0.269 A  
HETATM   11  C   UNL     1     -10.120  16.661  66.159  1.00  0.00    -0.361 A  
HETATM   12  I   UNL     1     -11.266  14.052  65.266  1.00  0.00    -0.393 I  
ENDROOT
BRANCH   7  13
HETATM   13  N   UNL     1      -8.197  13.470  66.656  1.00  0.00    -0.358 N  
HETATM   14  O   UNL     1      -9.521  12.814  68.445  1.00  0.00    -0.214 OA 
HETATM   15  C   UNL     1      -8.721  12.550  67.551  1.00  0.00    -0.182 C  
HETATM   16  H   UNL     1      -7.513  13.150  65.970  1.00  0.00     0.000 HD 
BRANCH  15  17
HETATM   17  C   UNL     1      -8.343  11.107  67.245  1.00  0.00    -0.135 C  
BRANCH  17  18
HETATM   18  C   UNL     1      -9.082  10.625  65.999  1.00  0.00    -0.201 C  
BRANCH  18  19
HETATM   19  C   UNL     1     -10.075   9.483  66.238  1.00  0.00    -0.327 C  
BRANCH  19  20
HETATM   20  C   UNL     1     -10.658   9.414  67.652  1.00  0.00    -0.333 C  
BRANCH  20  21
HETATM   21  C   UNL     1     -10.292   8.092  68.319  1.00  0.00    -0.197 C  
HETATM   22  N   UNL     1      -8.952   7.756  68.187  1.00  0.00    -0.128 N  
HETATM   23  O   UNL     1     -11.135   7.373  68.844  1.00  0.00    -0.046 OA 
HETATM   24  H   UNL     1      -8.330   8.385  67.680  1.00  0.00     0.000 HD 
BRANCH  22  25
HETATM   25  C   UNL     1      -8.426   6.553  68.744  1.00  0.00    -0.122 A  
HETATM   26  C   UNL     1      -8.402   5.345  68.029  1.00  0.00    -0.098 A  
HETATM   27  I   UNL     1      -9.412   5.034  66.193  1.00  0.00    -0.198 I  
HETATM   28  C   UNL     1      -7.841   4.196  68.594  1.00  0.00    -0.072 A  
HETATM   29  C   UNL     1      -7.354   4.207  69.908  1.00  0.00    -0.049 A  
HETATM   30  I   UNL     1      -6.663   2.329  70.592  1.00  0.00    -0.033 I  
HETATM   31  C   UNL     1      -7.410   5.380  70.680  1.00  0.00    -0.071 A  
HETATM   32  C   UNL     1      -6.994   5.384  72.114  1.00  0.00    -0.080 C  
HETATM   33  C   UNL     1      -7.945   6.553  70.083  1.00  0.00    -0.112 A  
HETATM   34  O   UNL     1      -7.665   5.879  73.001  1.00  0.00    -0.101 OA 
HETATM   35  I   UNL     1      -7.947   8.450  71.118  1.00  0.00    -0.183 I  
HETATM   36  O   UNL     1      -5.786   4.830  72.358  1.00  0.00    -0.011 OA 
ENDBRANCH  22  25
ENDBRANCH  20  21
ENDBRANCH  19  20
ENDBRANCH  18  19
ENDBRANCH  17  18
ENDBRANCH  15  17
ENDBRANCH   7  13
TORSDOF 7
ENDMDL
MODEL       84
REMARK 921   NORMALIZED FREE ENERGY PREDICTED BY IDOCK:   -4.76 KCAL/MOL
REMARK 922        TOTAL FREE ENERGY PREDICTED BY IDOCK:   -7.63 KCAL/MOL
REMARK 923 INTER-LIGAND FREE ENERGY PREDICTED BY IDOCK:   -6.43 KCAL/MOL
REMARK 924 INTRA-LIGAND FREE ENERGY PREDICTED BY IDOCK:   -1.20 KCAL/MOL
REMARK 927      BINDING AFFINITY PREDICTED BY RF-SCORE:    0.00 PKD
ROOT
HETATM    1  O   UNL     1     -13.352   9.866  70.165  1.00  0.00     0.176 OA 
HETATM    2  C   UNL     1     -12.199   9.821  70.869  1.00  0.00    -0.302 C  
HETATM    3  C   UNL     1     -11.602   8.465  70.994  1.00  0.00    -0.307 A  
HETATM    4  O   UNL     1     -11.676  10.827  71.313  1.00  0.00    -0.210 OA 
HETATM    5  C   UNL     1     -10.224   8.250  70.717  1.00  0.00    -0.192 A  
HETATM    6  I   UNL     1      -8.980   9.829  69.926  1.00  0.00    -0.120 I  
HETATM    7  C   UNL     1      -9.624   6.967  70.864  1.00  0.00    -0.167 A  
HETATM    8  I   UNL     1     -14.381   7.497  72.071  1.00  0.00    -0.295 I  
HETATM    9  C   UNL     1     -10.425   5.900  71.311  1.00  0.00    -0.233 A  
HETATM   10  C   UNL     1     -12.364   7.374  71.446  1.00  0.00    -0.361 A  
HETATM   11  C   UNL     1     -11.785   6.105  71.583  1.00  0.00    -0.290 A  
HETATM   12  I   UNL     1      -9.684   4.002  71.865  1.00  0.00    -0.222 I  
ENDROOT
BRANCH   7  13
HETATM   13  N   UNL     1      -8.222   6.836  70.632  1.00  0.00    -0.119 N  
HETATM   14  O   UNL     1      -8.373   5.926  68.502  1.00  0.00    -0.108 OA 
HETATM   15  C   UNL     1      -7.704   6.336  69.447  1.00  0.00    -0.100 C  
HETATM   16  H   UNL     1      -7.575   7.123  71.366  1.00  0.00     0.000 HD 
BRANCH  15  17
HETATM   17  C   UNL     1      -6.192   6.478  69.327  1.00  0.00    -0.034 C  
BRANCH  17  18
HETATM   18  C   UNL     1      -5.830   7.910  68.939  1.00  0.00    -0.035 C  
BRANCH  18  19
HETATM   19  C   UNL     1      -6.334   8.354  67.562  1.00  0.00    -0.057 C  
BRANCH  19  20
HETATM   20  C   UNL     1      -5.383   9.270  66.785  1.00  0.00    -0.039 C  
BRANCH  20  21
HETATM   21  C   UNL     1      -6.057  10.602  66.473  1.00  0.00    -0.088 C  
HETATM   22  N   UNL     1      -7.235  10.806  67.178  1.00  0.00    -0.095 N  
HETATM   23  O   UNL     1      -5.624  11.365  65.617  1.00  0.00    -0.177 OA 
HETATM   24  H   UNL     1      -7.556  10.089  67.828  1.00  0.00     0.000 HD 
BRANCH  22  25
HETATM   25  C   UNL     1      -8.006  11.995  67.015  1.00  0.00    -0.150 A  
HETATM   26  C   UNL     1      -7.655  13.205  67.633  1.00  0.00    -0.171 A  
HETATM   27  I   UNL     1      -6.164  13.386  69.127  1.00  0.00    -0.107 I  
HETATM   28  C   UNL     1      -8.414  14.360  67.417  1.00  0.00    -0.216 A  
HETATM   29  C   UNL     1      -9.577  14.318  66.637  1.00  0.00    -0.289 A  
HETATM   30  I   UNL     1     -10.627  16.151  66.547  1.00  0.00    -0.099 I  
HETATM   31  C   UNL     1      -9.998  13.114  66.045  1.00  0.00    -0.283 A  
HETATM   32  C   UNL     1     -11.288  13.026  65.300  1.00  0.00    -0.295 C  
HETATM   33  C   UNL     1      -9.198  11.955  66.239  1.00  0.00    -0.214 A  
HETATM   34  O   UNL     1     -12.103  12.140  65.481  1.00  0.00    -0.517 OA 
HETATM   35  I   UNL     1      -9.660  10.085  65.260  1.00  0.00    -0.333 I  
HETATM   36  O   UNL     1     -11.474  13.987  64.369  1.00  0.00    -0.376 OA 
ENDBRANCH  22  25
ENDBRANCH  20  21
ENDBRANCH  19  20
ENDBRANCH  18  19
ENDBRANCH  17  18
ENDBRANCH  15  17
ENDBRANCH   7  13
TORSDOF 7
ENDMDL
MODEL       85
REMARK 921   NORMALIZED FREE ENERGY PREDICTED BY IDOCK:   -4.76 KCAL/MOL
REMARK 922        TOTAL FREE ENERGY PREDICTED BY IDOCK:   -7.62 KCAL/MOL
REMARK 923 INTER-LIGAND FREE ENERGY PREDICTED BY IDOCK:   -7.18 KCAL/MOL
REMARK 924 INTRA-LIGAND FREE ENERGY PREDICTED BY IDOCK:   -0.44 KCAL/MOL
REMARK 927      BINDING AFFINITY PREDICTED BY RF-SCORE:    0.00 PKD
ROOT
HETATM    1  O   UNL     1      -6.349  19.331  67.870  1.00  0.00    -0.213 OA 
HETATM    2  C   UNL     1      -6.788  18.530  68.866  1.00  0.00    -0.278 C  
HETATM    3  C   UNL     1      -7.847  17.567  68.465  1.00  0.00    -0.274 A  
HETATM    4  O   UNL     1      -6.306  18.570  69.984  1.00  0.00    -0.153 OA 
HETATM    5  C   UNL     1      -7.748  16.192  68.812  1.00  0.00    -0.200 A  
HETATM    6  I   UNL     1      -5.977  15.402  69.767  1.00  0.00    -0.149 I  
HETATM    7  C   UNL     1      -8.767  15.259  68.469  1.00  0.00    -0.176 A  
HETATM    8  I   UNL     1      -9.437  20.013  67.320  1.00  0.00    -0.579 I  
HETATM    9  C   UNL     1      -9.903  15.730  67.785  1.00  0.00    -0.224 A  
HETATM   10  C   UNL     1      -9.003  17.997  67.789  1.00  0.00    -0.255 A  
HETATM   11  C   UNL     1     -10.005  17.084  67.437  1.00  0.00    -0.278 A  
HETATM   12  I   UNL     1     -11.643  14.587  67.433  1.00  0.00    -0.353 I  
ENDROOT
BRANCH   7  13
HETATM   13  N   UNL     1      -8.633  13.907  68.905  1.00  0.00    -0.364 N  
HETATM   14  O   UNL     1      -8.530  12.940  66.798  1.00  0.00    -0.137 OA 
HETATM   15  C   UNL     1      -8.505  12.845  68.023  1.00  0.00    -0.178 C  
HETATM   16  H   UNL     1      -8.630  13.714  69.907  1.00  0.00     0.000 HD 
BRANCH  15  17
HETATM   17  C   UNL     1      -8.165  11.522  68.695  1.00  0.00    -0.124 C  
BRANCH  17  18
HETATM   18  C   UNL     1      -9.357  10.571  68.612  1.00  0.00    -0.172 C  
BRANCH  18  19
HETATM   19  C   UNL     1     -10.036  10.268  69.952  1.00  0.00    -0.183 C  
BRANCH  19  20
HETATM   20  C   UNL     1     -11.348   9.484  69.854  1.00  0.00    -0.161 C  
BRANCH  20  21
HETATM   21  C   UNL     1     -11.145   8.041  70.307  1.00  0.00    -0.224 C  
HETATM   22  N   UNL     1      -9.990   7.460  69.804  1.00  0.00    -0.186 N  
HETATM   23  O   UNL     1     -11.978   7.449  70.983  1.00  0.00    -0.304 OA 
HETATM   24  H   UNL     1      -9.381   8.007  69.196  1.00  0.00     0.000 HD 
BRANCH  22  25
HETATM   25  C   UNL     1      -9.635   6.114  70.116  1.00  0.00    -0.162 A  
HETATM   26  C   UNL     1      -9.206   5.732  71.397  1.00  0.00    -0.143 A  
HETATM   27  I   UNL     1      -8.710   7.098  72.939  1.00  0.00    -0.181 I  
HETATM   28  C   UNL     1      -8.905   4.395  71.677  1.00  0.00    -0.147 A  
HETATM   29  C   UNL     1      -8.958   3.422  70.669  1.00  0.00    -0.097 A  
HETATM   30  I   UNL     1      -8.346   1.496  71.292  1.00  0.00    -0.080 I  
HETATM   31  C   UNL     1      -9.327   3.771  69.358  1.00  0.00    -0.245 A  
HETATM   32  C   UNL     1      -9.288   2.772  68.251  1.00  0.00    -0.200 C  
HETATM   33  C   UNL     1      -9.670   5.125  69.095  1.00  0.00    -0.163 A  
HETATM   34  O   UNL     1      -8.772   2.994  67.171  1.00  0.00    -0.107 OA 
HETATM   35  I   UNL     1     -10.395   5.751  67.157  1.00  0.00    -0.377 I  
HETATM   36  O   UNL     1      -9.907   1.601  68.518  1.00  0.00    -0.110 OA 
ENDBRANCH  22  25
ENDBRANCH  20  21
ENDBRANCH  19  20
ENDBRANCH  18  19
ENDBRANCH  17  18
ENDBRANCH  15  17
ENDBRANCH   7  13
TORSDOF 7
ENDMDL
MODEL       86
REMARK 921   NORMALIZED FREE ENERGY PREDICTED BY IDOCK:   -4.75 KCAL/MOL
REMARK 922        TOTAL FREE ENERGY PREDICTED BY IDOCK:   -7.61 KCAL/MOL
REMARK 923 INTER-LIGAND FREE ENERGY PREDICTED BY IDOCK:   -6.64 KCAL/MOL
REMARK 924 INTRA-LIGAND FREE ENERGY PREDICTED BY IDOCK:   -0.97 KCAL/MOL
REMARK 927      BINDING AFFINITY PREDICTED BY RF-SCORE:    0.00 PKD
ROOT
HETATM    1  O   UNL     1      -7.265  17.240  67.808  1.00  0.00    -0.155 OA 
HETATM    2  C   UNL     1      -7.926  16.176  68.314  1.00  0.00    -0.152 C  
HETATM    3  C   UNL     1      -8.948  15.592  67.405  1.00  0.00    -0.205 A  
HETATM    4  O   UNL     1      -7.656  15.710  69.407  1.00  0.00    -0.209 OA 
HETATM    5  C   UNL     1      -8.995  14.192  67.169  1.00  0.00    -0.225 A  
HETATM    6  I   UNL     1      -7.480  12.869  67.960  1.00  0.00    -0.176 I  
HETATM    7  C   UNL     1      -9.987  13.608  66.330  1.00  0.00    -0.296 A  
HETATM    8  I   UNL     1     -10.153  18.473  67.146  1.00  0.00    -0.475 I  
HETATM    9  C   UNL     1     -10.947  14.451  65.742  1.00  0.00    -0.314 A  
HETATM   10  C   UNL     1      -9.932  16.398  66.805  1.00  0.00    -0.272 A  
HETATM   11  C   UNL     1     -10.904  15.834  65.969  1.00  0.00    -0.256 A  
HETATM   12  I   UNL     1     -12.657  13.773  64.706  1.00  0.00    -0.116 I  
ENDROOT
BRANCH   7  13
HETATM   13  N   UNL     1     -10.015  12.188  66.188  1.00  0.00    -0.228 N  
HETATM   14  O   UNL     1      -9.601  12.125  63.905  1.00  0.00    -0.137 OA 
HETATM   15  C   UNL     1      -9.799  11.554  64.975  1.00  0.00    -0.257 C  
HETATM   16  H   UNL     1     -10.200  11.618  67.013  1.00  0.00     0.000 HD 
BRANCH  15  17
HETATM   17  C   UNL     1      -9.664  10.040  65.085  1.00  0.00    -0.380 C  
BRANCH  17  18
HETATM   18  C   UNL     1      -8.494   9.555  64.233  1.00  0.00    -0.193 C  
BRANCH  18  19
HETATM   19  C   UNL     1      -7.179   9.356  64.994  1.00  0.00    -0.105 C  
BRANCH  19  20
HETATM   20  C   UNL     1      -6.770   7.896  65.215  1.00  0.00    -0.051 C  
BRANCH  20  21
HETATM   21  C   UNL     1      -7.008   7.487  66.665  1.00  0.00    -0.074 C  
HETATM   22  N   UNL     1      -7.770   8.399  67.381  1.00  0.00    -0.097 N  
HETATM   23  O   UNL     1      -6.496   6.484  67.150  1.00  0.00    -0.039 OA 
HETATM   24  H   UNL     1      -8.107   9.241  66.915  1.00  0.00     0.000 HD 
BRANCH  22  25
HETATM   25  C   UNL     1      -8.094   8.187  68.754  1.00  0.00    -0.120 A  
HETATM   26  C   UNL     1      -7.284   8.665  69.797  1.00  0.00    -0.051 A  
HETATM   27  I   UNL     1      -5.342   9.464  69.519  1.00  0.00    -0.034 I  
HETATM   28  C   UNL     1      -7.655   8.472  71.131  1.00  0.00    -0.104 A  
HETATM   29  C   UNL     1      -8.804   7.738  71.457  1.00  0.00    -0.129 A  
HETATM   30  I   UNL     1      -9.102   7.472  73.533  1.00  0.00    -0.341 I  
HETATM   31  C   UNL     1      -9.614   7.192  70.445  1.00  0.00    -0.169 A  
HETATM   32  C   UNL     1     -10.780   6.321  70.773  1.00  0.00    -0.256 C  
HETATM   33  C   UNL     1      -9.249   7.428  69.092  1.00  0.00    -0.147 A  
HETATM   34  O   UNL     1     -10.987   5.252  70.228  1.00  0.00    -0.166 OA 
HETATM   35  I   UNL     1     -10.494   6.767  67.453  1.00  0.00    -0.445 I  
HETATM   36  O   UNL     1     -11.624   6.824  71.699  1.00  0.00    -0.264 OA 
ENDBRANCH  22  25
ENDBRANCH  20  21
ENDBRANCH  19  20
ENDBRANCH  18  19
ENDBRANCH  17  18
ENDBRANCH  15  17
ENDBRANCH   7  13
TORSDOF 7
ENDMDL
MODEL       87
REMARK 921   NORMALIZED FREE ENERGY PREDICTED BY IDOCK:   -4.74 KCAL/MOL
REMARK 922        TOTAL FREE ENERGY PREDICTED BY IDOCK:   -7.60 KCAL/MOL
REMARK 923 INTER-LIGAND FREE ENERGY PREDICTED BY IDOCK:   -6.73 KCAL/MOL
REMARK 924 INTRA-LIGAND FREE ENERGY PREDICTED BY IDOCK:   -0.87 KCAL/MOL
REMARK 927      BINDING AFFINITY PREDICTED BY RF-SCORE:    0.00 PKD
ROOT
HETATM    1  O   UNL     1     -10.060   2.740  72.622  1.00  0.00    -0.142 OA 
HETATM    2  C   UNL     1      -9.568   3.984  72.433  1.00  0.00    -0.140 C  
HETATM    3  C   UNL     1      -8.866   4.182  71.136  1.00  0.00    -0.149 A  
HETATM    4  O   UNL     1      -9.741   4.876  73.245  1.00  0.00    -0.136 OA 
HETATM    5  C   UNL     1      -9.164   5.302  70.313  1.00  0.00    -0.143 A  
HETATM    6  I   UNL     1     -10.770   6.661  70.806  1.00  0.00    -0.340 I  
HETATM    7  C   UNL     1      -8.479   5.530  69.086  1.00  0.00    -0.104 A  
HETATM    8  I   UNL     1      -7.130   1.675  71.858  1.00  0.00    -0.028 I  
HETATM    9  C   UNL     1      -7.475   4.623  68.701  1.00  0.00    -0.065 A  
HETATM   10  C   UNL     1      -7.849   3.305  70.719  1.00  0.00    -0.046 A  
HETATM   11  C   UNL     1      -7.179   3.515  69.507  1.00  0.00    -0.045 A  
HETATM   12  I   UNL     1      -6.154   4.922  67.080  1.00  0.00    -0.033 I  
ENDROOT
BRANCH   7  13
HETATM   13  N   UNL     1      -8.783   6.708  68.341  1.00  0.00    -0.123 N  
HETATM   14  O   UNL     1     -10.347   5.749  66.920  1.00  0.00    -0.197 OA 
HETATM   15  C   UNL     1      -9.718   6.726  67.317  1.00  0.00    -0.140 C  
HETATM   16  H   UNL     1      -8.293   7.573  68.571  1.00  0.00     0.000 HD 
BRANCH  15  17
HETATM   17  C   UNL     1     -10.039   8.122  66.799  1.00  0.00    -0.365 C  
BRANCH  17  18
HETATM   18  C   UNL     1      -8.832   8.697  66.060  1.00  0.00    -0.213 C  
BRANCH  18  19
HETATM   19  C   UNL     1      -8.897  10.204  65.792  1.00  0.00    -0.177 C  
BRANCH  19  20
HETATM   20  C   UNL     1     -10.218  10.702  65.197  1.00  0.00    -0.368 C  
BRANCH  20  21
HETATM   21  C   UNL     1     -10.934  11.623  66.179  1.00  0.00    -0.288 C  
HETATM   22  N   UNL     1     -10.190  11.910  67.314  1.00  0.00    -0.199 N  
HETATM   23  O   UNL     1     -12.088  11.995  65.997  1.00  0.00    -0.561 OA 
HETATM   24  H   UNL     1      -9.259  11.508  67.413  1.00  0.00     0.000 HD 
BRANCH  22  25
HETATM   25  C   UNL     1     -10.698  12.753  68.347  1.00  0.00    -0.250 A  
HETATM   26  C   UNL     1     -11.371  12.242  69.468  1.00  0.00    -0.187 A  
HETATM   27  I   UNL     1     -12.017  10.233  69.649  1.00  0.00     0.137 I  
HETATM   28  C   UNL     1     -11.819  13.097  70.479  1.00  0.00    -0.184 A  
HETATM   29  C   UNL     1     -11.669  14.486  70.362  1.00  0.00    -0.290 A  
HETATM   30  I   UNL     1     -12.528  15.586  71.951  1.00  0.00    -0.633 I  
HETATM   31  C   UNL     1     -11.053  15.045  69.229  1.00  0.00    -0.280 A  
HETATM   32  C   UNL     1     -10.979  16.523  69.039  1.00  0.00    -0.306 C  
HETATM   33  C   UNL     1     -10.565  14.164  68.227  1.00  0.00    -0.251 A  
HETATM   34  O   UNL     1     -11.281  17.077  67.997  1.00  0.00    -0.251 OA 
HETATM   35  I   UNL     1      -9.469  14.897  66.514  1.00  0.00    -0.319 I  
HETATM   36  O   UNL     1     -10.508  17.212  70.101  1.00  0.00     0.087 OA 
ENDBRANCH  22  25
ENDBRANCH  20  21
ENDBRANCH  19  20
ENDBRANCH  18  19
ENDBRANCH  17  18
ENDBRANCH  15  17
ENDBRANCH   7  13
TORSDOF 7
ENDMDL
MODEL       88
REMARK 921   NORMALIZED FREE ENERGY PREDICTED BY IDOCK:   -4.73 KCAL/MOL
REMARK 922        TOTAL FREE ENERGY PREDICTED BY IDOCK:   -7.59 KCAL/MOL
REMARK 923 INTER-LIGAND FREE ENERGY PREDICTED BY IDOCK:   -6.86 KCAL/MOL
REMARK 924 INTRA-LIGAND FREE ENERGY PREDICTED BY IDOCK:   -0.73 KCAL/MOL
REMARK 927      BINDING AFFINITY PREDICTED BY RF-SCORE:    0.00 PKD
ROOT
HETATM    1  O   UNL     1      -6.151   3.751  63.950  1.00  0.00    -0.014 OA 
HETATM    2  C   UNL     1      -6.843   4.904  64.088  1.00  0.00    -0.048 C  
HETATM    3  C   UNL     1      -7.574   5.037  65.376  1.00  0.00    -0.085 A  
HETATM    4  O   UNL     1      -6.816   5.777  63.239  1.00  0.00    -0.035 OA 
HETATM    5  C   UNL     1      -7.470   6.224  66.151  1.00  0.00    -0.085 A  
HETATM    6  I   UNL     1      -6.109   7.808  65.598  1.00  0.00    -0.038 I  
HETATM    7  C   UNL     1      -8.189   6.386  67.369  1.00  0.00    -0.116 A  
HETATM    8  I   UNL     1      -8.868   2.249  64.764  1.00  0.00    -0.126 I  
HETATM    9  C   UNL     1      -9.032   5.343  67.794  1.00  0.00    -0.108 A  
HETATM   10  C   UNL     1      -8.434   4.022  65.832  1.00  0.00    -0.109 A  
HETATM   11  C   UNL     1      -9.136   4.168  67.035  1.00  0.00    -0.155 A  
HETATM   12  I   UNL     1     -10.392   5.487  69.402  1.00  0.00    -0.273 I  
ENDROOT
BRANCH   7  13
HETATM   13  N   UNL     1      -8.088   7.629  68.063  1.00  0.00    -0.122 N  
HETATM   14  O   UNL     1     -10.057   8.560  67.262  1.00  0.00    -0.204 OA 
HETATM   15  C   UNL     1      -9.052   8.621  67.966  1.00  0.00    -0.140 C  
HETATM   16  H   UNL     1      -7.274   7.794  68.655  1.00  0.00     0.000 HD 
BRANCH  15  17
HETATM   17  C   UNL     1      -8.855   9.771  68.944  1.00  0.00    -0.140 C  
BRANCH  17  18
HETATM   18  C   UNL     1      -9.729   9.563  70.179  1.00  0.00    -0.289 C  
BRANCH  18  19
HETATM   19  C   UNL     1     -10.804  10.633  70.397  1.00  0.00    -0.061 C  
BRANCH  19  20
HETATM   20  C   UNL     1     -11.735  10.872  69.204  1.00  0.00    -0.397 C  
BRANCH  20  21
HETATM   21  C   UNL     1     -11.655  12.323  68.744  1.00  0.00    -0.330 C  
HETATM   22  N   UNL     1     -10.727  13.078  69.447  1.00  0.00    -0.431 N  
HETATM   23  O   UNL     1     -12.406  12.776  67.886  1.00  0.00    -0.181 OA 
HETATM   24  H   UNL     1     -10.185  12.636  70.189  1.00  0.00     0.000 HD 
BRANCH  22  25
HETATM   25  C   UNL     1     -10.514  14.459  69.158  1.00  0.00    -0.189 A  
HETATM   26  C   UNL     1     -11.027  15.482  69.971  1.00  0.00    -0.319 A  
HETATM   27  I   UNL     1     -12.435  15.170  71.523  1.00  0.00    -0.589 I  
HETATM   28  C   UNL     1     -10.763  16.823  69.677  1.00  0.00    -0.229 A  
HETATM   29  C   UNL     1     -10.042  17.177  68.529  1.00  0.00    -0.329 A  
HETATM   30  I   UNL     1      -9.869  19.262  68.224  1.00  0.00    -0.565 I  
HETATM   31  C   UNL     1      -9.558  16.187  67.656  1.00  0.00    -0.222 A  
HETATM   32  C   UNL     1      -8.881  16.548  66.376  1.00  0.00    -0.310 C  
HETATM   33  C   UNL     1      -9.798  14.826  67.985  1.00  0.00    -0.218 A  
HETATM   34  O   UNL     1      -9.162  16.038  65.306  1.00  0.00    -0.179 OA 
HETATM   35  I   UNL     1      -8.978  13.215  66.801  1.00  0.00     0.015 I  
HETATM   36  O   UNL     1      -7.893  17.462  66.492  1.00  0.00    -0.235 OA 
ENDBRANCH  22  25
ENDBRANCH  20  21
ENDBRANCH  19  20
ENDBRANCH  18  19
ENDBRANCH  17  18
ENDBRANCH  15  17
ENDBRANCH   7  13
TORSDOF 7
ENDMDL
MODEL       89
REMARK 921   NORMALIZED FREE ENERGY PREDICTED BY IDOCK:   -4.71 KCAL/MOL
REMARK 922        TOTAL FREE ENERGY PREDICTED BY IDOCK:   -7.56 KCAL/MOL
REMARK 923 INTER-LIGAND FREE ENERGY PREDICTED BY IDOCK:   -6.66 KCAL/MOL
REMARK 924 INTRA-LIGAND FREE ENERGY PREDICTED BY IDOCK:   -0.90 KCAL/MOL
REMARK 927      BINDING AFFINITY PREDICTED BY RF-SCORE:    0.00 PKD
ROOT
HETATM    1  O   UNL     1      -7.580   3.637  66.942  1.00  0.00    -0.078 OA 
HETATM    2  C   UNL     1      -8.797   4.008  67.396  1.00  0.00    -0.119 C  
HETATM    3  C   UNL     1      -8.806   4.519  68.793  1.00  0.00    -0.132 A  
HETATM    4  O   UNL     1      -9.788   3.971  66.689  1.00  0.00    -0.215 OA 
HETATM    5  C   UNL     1      -9.468   5.735  69.116  1.00  0.00    -0.128 A  
HETATM    6  I   UNL     1     -10.324   6.989  67.579  1.00  0.00    -0.382 I  
HETATM    7  C   UNL     1      -9.520   6.225  70.453  1.00  0.00    -0.161 A  
HETATM    8  I   UNL     1      -7.328   1.882  69.617  1.00  0.00    -0.039 I  
HETATM    9  C   UNL     1      -8.910   5.466  71.468  1.00  0.00    -0.135 A  
HETATM   10  C   UNL     1      -8.218   3.787  69.839  1.00  0.00    -0.053 A  
HETATM   11  C   UNL     1      -8.254   4.267  71.155  1.00  0.00    -0.079 A  
HETATM   12  I   UNL     1      -9.111   5.857  73.533  1.00  0.00    -0.134 I  
ENDROOT
BRANCH   7  13
HETATM   13  N   UNL     1     -10.256   7.419  70.716  1.00  0.00    -0.197 N  
HETATM   14  O   UNL     1     -12.193   6.394  71.479  1.00  0.00    -0.312 OA 
HETATM   15  C   UNL     1     -11.543   7.406  71.231  1.00  0.00    -0.280 C  
HETATM   16  H   UNL     1      -9.817   8.318  70.517  1.00  0.00     0.000 HD 
BRANCH  15  17
HETATM   17  C   UNL     1     -12.061   8.782  71.631  1.00  0.00    -0.401 C  
BRANCH  17  18
HETATM   18  C   UNL     1     -11.439   9.854  70.739  1.00  0.00    -0.433 C  
BRANCH  18  19
HETATM   19  C   UNL     1     -12.439  10.831  70.111  1.00  0.00    -0.357 C  
BRANCH  19  20
HETATM   20  C   UNL     1     -12.158  11.200  68.651  1.00  0.00    -0.180 C  
BRANCH  20  21
HETATM   21  C   UNL     1     -11.372  12.504  68.570  1.00  0.00    -0.297 C  
HETATM   22  N   UNL     1     -10.596  12.614  67.424  1.00  0.00    -0.223 N  
HETATM   23  O   UNL     1     -11.379  13.325  69.480  1.00  0.00    -0.240 OA 
HETATM   24  H   UNL     1     -10.602  11.854  66.745  1.00  0.00     0.000 HD 
BRANCH  22  25
HETATM   25  C   UNL     1      -9.790  13.764  67.176  1.00  0.00    -0.242 A  
HETATM   26  C   UNL     1     -10.280  14.889  66.494  1.00  0.00    -0.275 A  
HETATM   27  I   UNL     1     -12.129  14.936  65.461  1.00  0.00     0.265 I  
HETATM   28  C   UNL     1      -9.472  16.014  66.305  1.00  0.00    -0.347 A  
HETATM   29  C   UNL     1      -8.136  16.017  66.730  1.00  0.00    -0.267 A  
HETATM   30  I   UNL     1      -7.073  17.775  66.232  1.00  0.00    -0.305 I  
HETATM   31  C   UNL     1      -7.587  14.890  67.367  1.00  0.00    -0.232 A  
HETATM   32  C   UNL     1      -6.141  14.836  67.731  1.00  0.00    -0.125 C  
HETATM   33  C   UNL     1      -8.428  13.767  67.590  1.00  0.00    -0.183 A  
HETATM   34  O   UNL     1      -5.425  13.884  67.476  1.00  0.00    -0.339 OA 
HETATM   35  I   UNL     1      -7.740  12.038  68.689  1.00  0.00     0.066 I  
HETATM   36  O   UNL     1      -5.683  15.911  68.408  1.00  0.00    -0.100 OA 
ENDBRANCH  22  25
ENDBRANCH  20  21
ENDBRANCH  19  20
ENDBRANCH  18  19
ENDBRANCH  17  18
ENDBRANCH  15  17
ENDBRANCH   7  13
TORSDOF 7
ENDMDL
MODEL       90
REMARK 921   NORMALIZED FREE ENERGY PREDICTED BY IDOCK:   -4.70 KCAL/MOL
REMARK 922        TOTAL FREE ENERGY PREDICTED BY IDOCK:   -7.55 KCAL/MOL
REMARK 923 INTER-LIGAND FREE ENERGY PREDICTED BY IDOCK:   -6.73 KCAL/MOL
REMARK 924 INTRA-LIGAND FREE ENERGY PREDICTED BY IDOCK:   -0.81 KCAL/MOL
REMARK 927      BINDING AFFINITY PREDICTED BY RF-SCORE:    0.00 PKD
ROOT
HETATM    1  O   UNL     1      -6.785  16.664  68.136  1.00  0.00    -0.137 OA 
HETATM    2  C   UNL     1      -7.369  15.506  68.514  1.00  0.00    -0.120 C  
HETATM    3  C   UNL     1      -8.521  15.089  67.670  1.00  0.00    -0.170 A  
HETATM    4  O   UNL     1      -6.942  14.841  69.440  1.00  0.00    -0.144 OA 
HETATM    5  C   UNL     1      -8.612  13.761  67.171  1.00  0.00    -0.198 A  
HETATM    6  I   UNL     1      -7.004  12.345  67.451  1.00  0.00    -0.041 I  
HETATM    7  C   UNL     1      -9.723  13.331  66.391  1.00  0.00    -0.276 A  
HETATM    8  I   UNL     1      -9.733  17.936  68.168  1.00  0.00    -0.387 I  
HETATM    9  C   UNL     1     -10.755  14.250  66.131  1.00  0.00    -0.295 A  
HETATM   10  C   UNL     1      -9.579  15.973  67.395  1.00  0.00    -0.225 A  
HETATM   11  C   UNL     1     -10.670  15.562  66.618  1.00  0.00    -0.306 A  
HETATM   12  I   UNL     1     -12.606  13.748  65.248  1.00  0.00    -0.312 I  
ENDROOT
BRANCH   7  13
HETATM   13  N   UNL     1      -9.781  11.966  65.977  1.00  0.00    -0.234 N  
HETATM   14  O   UNL     1      -9.693  12.361  63.692  1.00  0.00    -0.261 OA 
HETATM   15  C   UNL     1      -9.743  11.587  64.644  1.00  0.00    -0.212 C  
HETATM   16  H   UNL     1      -9.853  11.241  66.690  1.00  0.00     0.000 HD 
BRANCH  15  17
HETATM   17  C   UNL     1      -9.605  10.085  64.434  1.00  0.00    -0.325 C  
BRANCH  17  18
HETATM   18  C   UNL     1      -9.634   9.363  65.779  1.00  0.00    -0.340 C  
BRANCH  18  19
HETATM   19  C   UNL     1      -9.015   7.961  65.774  1.00  0.00    -0.125 C  
BRANCH  19  20
HETATM   20  C   UNL     1      -7.688   7.834  66.528  1.00  0.00    -0.097 C  
BRANCH  20  21
HETATM   21  C   UNL     1      -7.919   7.281  67.930  1.00  0.00    -0.119 C  
HETATM   22  N   UNL     1      -9.133   6.626  68.075  1.00  0.00    -0.116 N  
HETATM   23  O   UNL     1      -7.128   7.480  68.846  1.00  0.00    -0.075 OA 
HETATM   24  H   UNL     1      -9.761   6.559  67.275  1.00  0.00     0.000 HD 
BRANCH  22  25
HETATM   25  C   UNL     1      -9.525   6.045  69.318  1.00  0.00    -0.132 A  
HETATM   26  C   UNL     1     -10.173   6.785  70.319  1.00  0.00    -0.195 A  
HETATM   27  I   UNL     1     -10.374   8.894  70.292  1.00  0.00    -0.301 I  
HETATM   28  C   UNL     1     -10.577   6.171  71.509  1.00  0.00    -0.288 A  
HETATM   29  C   UNL     1     -10.283   4.823  71.755  1.00  0.00    -0.188 A  
HETATM   30  I   UNL     1     -10.884   4.141  73.665  1.00  0.00    -0.307 I  
HETATM   31  C   UNL     1      -9.585   4.059  70.804  1.00  0.00    -0.263 A  
HETATM   32  C   UNL     1      -9.172   2.654  71.093  1.00  0.00    -0.126 C  
HETATM   33  C   UNL     1      -9.214   4.682  69.582  1.00  0.00    -0.124 A  
HETATM   34  O   UNL     1      -8.047   2.235  70.885  1.00  0.00    -0.048 OA 
HETATM   35  I   UNL     1      -8.271   3.571  67.986  1.00  0.00    -0.107 I  
HETATM   36  O   UNL     1     -10.153   1.858  71.568  1.00  0.00    -0.139 OA 
ENDBRANCH  22  25
ENDBRANCH  20  21
ENDBRANCH  19  20
ENDBRANCH  18  19
ENDBRANCH  17  18
ENDBRANCH  15  17
ENDBRANCH   7  13
TORSDOF 7
ENDMDL
MODEL       91
REMARK 921   NORMALIZED FREE ENERGY PREDICTED BY IDOCK:   -4.70 KCAL/MOL
REMARK 922        TOTAL FREE ENERGY PREDICTED BY IDOCK:   -7.54 KCAL/MOL
REMARK 923 INTER-LIGAND FREE ENERGY PREDICTED BY IDOCK:   -6.66 KCAL/MOL
REMARK 924 INTRA-LIGAND FREE ENERGY PREDICTED BY IDOCK:   -0.87 KCAL/MOL
REMARK 927      BINDING AFFINITY PREDICTED BY RF-SCORE:    0.00 PKD
ROOT
HETATM    1  O   UNL     1      -6.826  19.351  67.803  1.00  0.00    -0.223 OA 
HETATM    2  C   UNL     1      -7.457  18.357  68.466  1.00  0.00    -0.293 C  
HETATM    3  C   UNL     1      -8.335  17.508  67.618  1.00  0.00    -0.215 A  
HETATM    4  O   UNL     1      -7.270  18.153  69.652  1.00  0.00     0.056 OA 
HETATM    5  C   UNL     1      -8.256  16.090  67.683  1.00  0.00    -0.148 A  
HETATM    6  I   UNL     1      -6.740  15.104  68.866  1.00  0.00    -0.142 I  
HETATM    7  C   UNL     1      -9.112  15.258  66.906  1.00  0.00    -0.240 A  
HETATM    8  I   UNL     1      -9.712  20.150  66.647  1.00  0.00    -0.455 I  
HETATM    9  C   UNL     1     -10.064  15.870  66.072  1.00  0.00    -0.337 A  
HETATM   10  C   UNL     1      -9.307  18.078  66.778  1.00  0.00    -0.284 A  
HETATM   11  C   UNL     1     -10.145  17.268  66.001  1.00  0.00    -0.275 A  
HETATM   12  I   UNL     1     -11.604  14.838  65.061  1.00  0.00    -0.286 I  
ENDROOT
BRANCH   7  13
HETATM   13  N   UNL     1      -9.022  13.843  67.069  1.00  0.00    -0.237 N  
HETATM   14  O   UNL     1     -10.768  13.621  68.581  1.00  0.00    -0.247 OA 
HETATM   15  C   UNL     1      -9.881  13.128  67.890  1.00  0.00    -0.231 C  
HETATM   16  H   UNL     1      -8.297  13.337  66.560  1.00  0.00     0.000 HD 
BRANCH  15  17
HETATM   17  C   UNL     1      -9.747  11.617  67.757  1.00  0.00    -0.177 C  
BRANCH  17  18
HETATM   18  C   UNL     1     -10.883  10.923  68.504  1.00  0.00    -0.262 C  
BRANCH  18  19
HETATM   19  C   UNL     1     -10.457  10.161  69.764  1.00  0.00    -0.301 C  
BRANCH  19  20
HETATM   20  C   UNL     1      -8.951   9.905  69.891  1.00  0.00    -0.231 C  
BRANCH  20  21
HETATM   21  C   UNL     1      -8.640   8.427  69.677  1.00  0.00    -0.132 C  
HETATM   22  N   UNL     1      -9.675   7.723  69.078  1.00  0.00    -0.156 N  
HETATM   23  O   UNL     1      -7.600   7.917  70.079  1.00  0.00    -0.080 OA 
HETATM   24  H   UNL     1     -10.533   8.214  68.830  1.00  0.00     0.000 HD 
BRANCH  22  25
HETATM   25  C   UNL     1      -9.567   6.328  68.801  1.00  0.00    -0.121 A  
HETATM   26  C   UNL     1      -9.928   5.348  69.740  1.00  0.00    -0.224 A  
HETATM   27  I   UNL     1     -10.363   5.756  71.772  1.00  0.00    -0.301 I  
HETATM   28  C   UNL     1      -9.846   3.990  69.417  1.00  0.00    -0.115 A  
HETATM   29  C   UNL     1      -9.336   3.576  68.179  1.00  0.00    -0.180 A  
HETATM   30  I   UNL     1      -9.193   1.479  67.958  1.00  0.00    -0.153 I  
HETATM   31  C   UNL     1      -8.909   4.523  67.230  1.00  0.00    -0.111 A  
HETATM   32  C   UNL     1      -8.268   4.100  65.951  1.00  0.00    -0.109 C  
HETATM   33  C   UNL     1      -9.034   5.901  67.553  1.00  0.00    -0.107 A  
HETATM   34  O   UNL     1      -7.235   4.590  65.530  1.00  0.00    -0.066 OA 
HETATM   35  I   UNL     1      -8.551   7.446  66.121  1.00  0.00    -0.149 I  
HETATM   36  O   UNL     1      -8.941   3.154  65.261  1.00  0.00    -0.132 OA 
ENDBRANCH  22  25
ENDBRANCH  20  21
ENDBRANCH  19  20
ENDBRANCH  18  19
ENDBRANCH  17  18
ENDBRANCH  15  17
ENDBRANCH   7  13
TORSDOF 7
ENDMDL
MODEL       92
REMARK 921   NORMALIZED FREE ENERGY PREDICTED BY IDOCK:   -4.68 KCAL/MOL
REMARK 922        TOTAL FREE ENERGY PREDICTED BY IDOCK:   -7.51 KCAL/MOL
REMARK 923 INTER-LIGAND FREE ENERGY PREDICTED BY IDOCK:   -5.91 KCAL/MOL
REMARK 924 INTRA-LIGAND FREE ENERGY PREDICTED BY IDOCK:   -1.61 KCAL/MOL
REMARK 927      BINDING AFFINITY PREDICTED BY RF-SCORE:    0.00 PKD
ROOT
HETATM    1  O   UNL     1     -12.893  16.124  69.652  1.00  0.00     0.166 OA 
HETATM    2  C   UNL     1     -11.645  15.611  69.728  1.00  0.00    -0.352 C  
HETATM    3  C   UNL     1     -11.585  14.125  69.707  1.00  0.00    -0.351 A  
HETATM    4  O   UNL     1     -10.656  16.322  69.757  1.00  0.00    -0.308 OA 
HETATM    5  C   UNL     1     -10.686  13.447  68.839  1.00  0.00    -0.190 A  
HETATM    6  I   UNL     1      -9.507  14.523  67.383  1.00  0.00    -0.230 I  
HETATM    7  C   UNL     1     -10.587  12.027  68.829  1.00  0.00    -0.209 A  
HETATM    8  I   UNL     1     -13.644  14.151  72.070  1.00  0.00    -0.675 I  
HETATM    9  C   UNL     1     -11.393  11.292  69.717  1.00  0.00    -0.271 A  
HETATM   10  C   UNL     1     -12.366  13.353  70.586  1.00  0.00    -0.348 A  
HETATM   11  C   UNL     1     -12.283  11.955  70.573  1.00  0.00    -0.426 A  
HETATM   12  I   UNL     1     -11.203   9.218  70.064  1.00  0.00    -0.022 I  
ENDROOT
BRANCH   7  13
HETATM   13  N   UNL     1      -9.618  11.415  67.978  1.00  0.00    -0.177 N  
HETATM   14  O   UNL     1     -11.024  11.044  66.170  1.00  0.00    -0.205 OA 
HETATM   15  C   UNL     1      -9.915  10.984  66.694  1.00  0.00    -0.209 C  
HETATM   16  H   UNL     1      -8.668  11.290  68.329  1.00  0.00     0.000 HD 
BRANCH  15  17
HETATM   17  C   UNL     1      -8.695  10.556  65.889  1.00  0.00    -0.178 C  
BRANCH  17  18
HETATM   18  C   UNL     1      -7.437  11.207  66.459  1.00  0.00    -0.131 C  
BRANCH  18  19
HETATM   19  C   UNL     1      -6.346  10.227  66.902  1.00  0.00    -0.069 C  
BRANCH  19  20
HETATM   20  C   UNL     1      -6.115  10.150  68.415  1.00  0.00    -0.044 C  
BRANCH  20  21
HETATM   21  C   UNL     1      -6.283   8.717  68.910  1.00  0.00    -0.044 C  
HETATM   22  N   UNL     1      -7.608   8.320  69.021  1.00  0.00    -0.088 N  
HETATM   23  O   UNL     1      -5.326   8.031  69.250  1.00  0.00    -0.028 OA 
HETATM   24  H   UNL     1      -8.347   8.978  68.774  1.00  0.00     0.000 HD 
BRANCH  22  25
HETATM   25  C   UNL     1      -7.961   7.014  69.471  1.00  0.00    -0.125 A  
HETATM   26  C   UNL     1      -8.119   6.708  70.832  1.00  0.00    -0.119 A  
HETATM   27  I   UNL     1      -7.554   8.003  72.411  1.00  0.00    -0.159 I  
HETATM   28  C   UNL     1      -8.504   5.426  71.233  1.00  0.00    -0.126 A  
HETATM   29  C   UNL     1      -8.674   4.401  70.292  1.00  0.00    -0.081 A  
HETATM   30  I   UNL     1      -9.140   2.519  71.135  1.00  0.00    -0.215 I  
HETATM   31  C   UNL     1      -8.470   4.648  68.923  1.00  0.00    -0.088 A  
HETATM   32  C   UNL     1      -8.542   3.546  67.919  1.00  0.00    -0.099 C  
HETATM   33  C   UNL     1      -8.117   5.965  68.523  1.00  0.00    -0.106 A  
HETATM   34  O   UNL     1      -7.696   3.370  67.061  1.00  0.00    -0.078 OA 
HETATM   35  I   UNL     1      -7.923   6.500  66.438  1.00  0.00    -0.122 I  
HETATM   36  O   UNL     1      -9.646   2.772  68.001  1.00  0.00    -0.198 OA 
ENDBRANCH  22  25
ENDBRANCH  20  21
ENDBRANCH  19  20
ENDBRANCH  18  19
ENDBRANCH  17  18
ENDBRANCH  15  17
ENDBRANCH   7  13
TORSDOF 7
ENDMDL
MODEL       93
REMARK 921   NORMALIZED FREE ENERGY PREDICTED BY IDOCK:   -4.68 KCAL/MOL
REMARK 922        TOTAL FREE ENERGY PREDICTED BY IDOCK:   -7.51 KCAL/MOL
REMARK 923 INTER-LIGAND FREE ENERGY PREDICTED BY IDOCK:   -6.44 KCAL/MOL
REMARK 924 INTRA-LIGAND FREE ENERGY PREDICTED BY IDOCK:   -1.07 KCAL/MOL
REMARK 927      BINDING AFFINITY PREDICTED BY RF-SCORE:    0.00 PKD
ROOT
HETATM    1  O   UNL     1      -8.001   1.578  66.900  1.00  0.00    -0.064 OA 
HETATM    2  C   UNL     1      -7.326   2.560  67.538  1.00  0.00    -0.056 C  
HETATM    3  C   UNL     1      -7.683   3.938  67.107  1.00  0.00    -0.084 A  
HETATM    4  O   UNL     1      -6.530   2.321  68.428  1.00  0.00    -0.028 OA 
HETATM    5  C   UNL     1      -7.975   4.945  68.066  1.00  0.00    -0.086 A  
HETATM    6  I   UNL     1      -8.099   4.485  70.174  1.00  0.00    -0.078 I  
HETATM    7  C   UNL     1      -8.284   6.280  67.678  1.00  0.00    -0.117 A  
HETATM    8  I   UNL     1      -7.119   3.011  64.167  1.00  0.00    -0.059 I  
HETATM    9  C   UNL     1      -8.281   6.596  66.307  1.00  0.00    -0.120 A  
HETATM   10  C   UNL     1      -7.681   4.298  65.748  1.00  0.00    -0.090 A  
HETATM   11  C   UNL     1      -7.997   5.606  65.356  1.00  0.00    -0.112 A  
HETATM   12  I   UNL     1      -8.431   8.555  65.534  1.00  0.00    -0.176 I  
ENDROOT
BRANCH   7  13
HETATM   13  N   UNL     1      -8.504   7.256  68.695  1.00  0.00    -0.129 N  
HETATM   14  O   UNL     1     -10.823   7.233  68.613  1.00  0.00    -0.170 OA 
HETATM   15  C   UNL     1      -9.772   7.645  69.098  1.00  0.00    -0.164 C  
HETATM   16  H   UNL     1      -7.695   7.684  69.145  1.00  0.00     0.000 HD 
BRANCH  15  17
HETATM   17  C   UNL     1      -9.781   8.536  70.333  1.00  0.00    -0.193 C  
BRANCH  17  18
HETATM   18  C   UNL     1     -10.411   9.886  70.000  1.00  0.00    -0.331 C  
BRANCH  18  19
HETATM   19  C   UNL     1      -9.589  10.766  69.053  1.00  0.00    -0.193 C  
BRANCH  19  20
HETATM   20  C   UNL     1     -10.319  11.213  67.782  1.00  0.00    -0.215 C  
BRANCH  20  21
HETATM   21  C   UNL     1     -10.529  12.724  67.789  1.00  0.00    -0.223 C  
HETATM   22  N   UNL     1      -9.642  13.411  66.972  1.00  0.00    -0.236 N  
HETATM   23  O   UNL     1     -11.355  13.262  68.518  1.00  0.00    -0.247 OA 
HETATM   24  H   UNL     1      -8.944  12.888  66.445  1.00  0.00     0.000 HD 
BRANCH  22  25
HETATM   25  C   UNL     1      -9.685  14.832  66.852  1.00  0.00    -0.240 A  
HETATM   26  C   UNL     1     -10.621  15.486  66.035  1.00  0.00    -0.325 A  
HETATM   27  I   UNL     1     -11.865  14.500  64.632  1.00  0.00    -0.358 I  
HETATM   28  C   UNL     1     -10.658  16.883  65.974  1.00  0.00    -0.221 A  
HETATM   29  C   UNL     1      -9.720  17.656  66.672  1.00  0.00    -0.301 A  
HETATM   30  I   UNL     1      -9.893  19.737  66.338  1.00  0.00    -0.592 I  
HETATM   31  C   UNL     1      -8.730  17.041  67.458  1.00  0.00    -0.215 A  
HETATM   32  C   UNL     1      -7.661  17.842  68.122  1.00  0.00    -0.250 C  
HETATM   33  C   UNL     1      -8.726  15.622  67.544  1.00  0.00    -0.177 A  
HETATM   34  O   UNL     1      -6.479  17.553  68.065  1.00  0.00    -0.165 OA 
HETATM   35  I   UNL     1      -7.348  14.571  68.836  1.00  0.00    -0.103 I  
HETATM   36  O   UNL     1      -8.102  18.901  68.835  1.00  0.00    -0.321 OA 
ENDBRANCH  22  25
ENDBRANCH  20  21
ENDBRANCH  19  20
ENDBRANCH  18  19
ENDBRANCH  17  18
ENDBRANCH  15  17
ENDBRANCH   7  13
TORSDOF 7
ENDMDL
MODEL       94
REMARK 921   NORMALIZED FREE ENERGY PREDICTED BY IDOCK:   -4.65 KCAL/MOL
REMARK 922        TOTAL FREE ENERGY PREDICTED BY IDOCK:   -7.47 KCAL/MOL
REMARK 923 INTER-LIGAND FREE ENERGY PREDICTED BY IDOCK:   -6.62 KCAL/MOL
REMARK 924 INTRA-LIGAND FREE ENERGY PREDICTED BY IDOCK:   -0.86 KCAL/MOL
REMARK 927      BINDING AFFINITY PREDICTED BY RF-SCORE:    0.00 PKD
ROOT
HETATM    1  O   UNL     1     -10.785  18.327  65.631  1.00  0.00    -0.546 OA 
HETATM    2  C   UNL     1     -10.630  17.079  65.138  1.00  0.00    -0.015 C  
HETATM    3  C   UNL     1      -9.814  16.172  65.990  1.00  0.00    -0.375 A  
HETATM    4  O   UNL     1     -11.165  16.724  64.103  1.00  0.00    -1.155 OA 
HETATM    5  C   UNL     1     -10.275  14.866  66.308  1.00  0.00    -0.294 A  
HETATM    6  I   UNL     1     -12.249  14.201  65.732  1.00  0.00    -0.380 I  
HETATM    7  C   UNL     1      -9.495  13.969  67.093  1.00  0.00    -0.241 A  
HETATM    8  I   UNL     1      -7.593  18.382  65.965  1.00  0.00     0.019 I  
HETATM    9  C   UNL     1      -8.233  14.397  67.543  1.00  0.00    -0.188 A  
HETATM   10  C   UNL     1      -8.544  16.557  66.452  1.00  0.00    -0.312 A  
HETATM   11  C   UNL     1      -7.775  15.686  67.235  1.00  0.00    -0.239 A  
HETATM   12  I   UNL     1      -6.808  13.144  68.468  1.00  0.00    -0.128 I  
ENDROOT
BRANCH   7  13
HETATM   13  N   UNL     1      -9.990  12.650  67.319  1.00  0.00    -0.210 N  
HETATM   14  O   UNL     1      -9.184  11.705  65.359  1.00  0.00    -0.178 OA 
HETATM   15  C   UNL     1      -9.776  11.607  66.431  1.00  0.00    -0.214 C  
HETATM   16  H   UNL     1     -10.523  12.467  68.170  1.00  0.00     0.000 HD 
BRANCH  15  17
HETATM   17  C   UNL     1     -10.205  10.246  66.962  1.00  0.00    -0.282 C  
BRANCH  17  18
HETATM   18  C   UNL     1     -10.387  10.309  68.477  1.00  0.00    -0.200 C  
BRANCH  18  19
HETATM   19  C   UNL     1     -10.765   8.980  69.138  1.00  0.00    -0.176 C  
BRANCH  19  20
HETATM   20  C   UNL     1     -10.381   7.727  68.345  1.00  0.00    -0.231 C  
BRANCH  20  21
HETATM   21  C   UNL     1      -9.262   6.968  69.052  1.00  0.00    -0.137 C  
HETATM   22  N   UNL     1      -9.517   5.611  69.195  1.00  0.00    -0.123 N  
HETATM   23  O   UNL     1      -8.280   7.538  69.512  1.00  0.00    -0.126 OA 
HETATM   24  H   UNL     1     -10.391   5.228  68.834  1.00  0.00     0.000 HD 
BRANCH  22  25
HETATM   25  C   UNL     1      -8.585   4.740  69.833  1.00  0.00    -0.074 A  
HETATM   26  C   UNL     1      -7.471   4.213  69.161  1.00  0.00    -0.054 A  
HETATM   27  I   UNL     1      -7.177   4.347  67.067  1.00  0.00    -0.070 I  
HETATM   28  C   UNL     1      -6.557   3.394  69.832  1.00  0.00    -0.033 A  
HETATM   29  C   UNL     1      -6.771   3.026  71.168  1.00  0.00    -0.031 A  
HETATM   30  I   UNL     1      -5.326   1.689  71.938  1.00  0.00    -0.004 I  
HETATM   31  C   UNL     1      -7.903   3.485  71.863  1.00  0.00    -0.062 A  
HETATM   32  C   UNL     1      -8.201   3.020  73.249  1.00  0.00    -0.072 C  
HETATM   33  C   UNL     1      -8.804   4.349  71.183  1.00  0.00    -0.115 A  
HETATM   34  O   UNL     1      -9.299   2.624  73.598  1.00  0.00    -0.083 OA 
HETATM   35  I   UNL     1     -10.498   5.235  72.191  1.00  0.00    -0.243 I  
HETATM   36  O   UNL     1      -7.168   3.109  74.114  1.00  0.00    -0.044 OA 
ENDBRANCH  22  25
ENDBRANCH  20  21
ENDBRANCH  19  20
ENDBRANCH  18  19
ENDBRANCH  17  18
ENDBRANCH  15  17
ENDBRANCH   7  13
TORSDOF 7
ENDMDL
MODEL       95
REMARK 921   NORMALIZED FREE ENERGY PREDICTED BY IDOCK:   -4.65 KCAL/MOL
REMARK 922        TOTAL FREE ENERGY PREDICTED BY IDOCK:   -7.47 KCAL/MOL
REMARK 923 INTER-LIGAND FREE ENERGY PREDICTED BY IDOCK:   -6.32 KCAL/MOL
REMARK 924 INTRA-LIGAND FREE ENERGY PREDICTED BY IDOCK:   -1.15 KCAL/MOL
REMARK 927      BINDING AFFINITY PREDICTED BY RF-SCORE:    0.00 PKD
ROOT
HETATM    1  O   UNL     1     -12.580   6.898  71.787  1.00  0.00    -0.350 OA 
HETATM    2  C   UNL     1     -11.368   7.256  71.309  1.00  0.00    -0.264 C  
HETATM    3  C   UNL     1     -10.554   6.129  70.778  1.00  0.00    -0.299 A  
HETATM    4  O   UNL     1     -11.006   8.418  71.274  1.00  0.00    -0.236 OA 
HETATM    5  C   UNL     1      -9.926   6.224  69.507  1.00  0.00    -0.164 A  
HETATM    6  I   UNL     1     -10.271   7.916  68.208  1.00  0.00    -0.206 I  
HETATM    7  C   UNL     1      -9.114   5.172  68.995  1.00  0.00    -0.106 A  
HETATM    8  I   UNL     1     -11.030   4.683  73.517  1.00  0.00    -0.306 I  
HETATM    9  C   UNL     1      -8.927   4.024  69.787  1.00  0.00    -0.100 A  
HETATM   10  C   UNL     1     -10.333   4.969  71.541  1.00  0.00    -0.182 A  
HETATM   11  C   UNL     1      -9.546   3.924  71.040  1.00  0.00    -0.251 A  
HETATM   12  I   UNL     1      -7.549   2.485  69.349  1.00  0.00    -0.051 I  
ENDROOT
BRANCH   7  13
HETATM   13  N   UNL     1      -8.462   5.360  67.740  1.00  0.00    -0.106 N  
HETATM   14  O   UNL     1      -9.967   4.149  66.454  1.00  0.00    -0.218 OA 
HETATM   15  C   UNL     1      -8.958   4.841  66.553  1.00  0.00    -0.112 C  
HETATM   16  H   UNL     1      -7.596   5.898  67.714  1.00  0.00     0.000 HD 
BRANCH  15  17
HETATM   17  C   UNL     1      -8.226   5.333  65.311  1.00  0.00    -0.130 C  
BRANCH  17  18
HETATM   18  C   UNL     1      -6.898   5.975  65.706  1.00  0.00    -0.056 C  
BRANCH  18  19
HETATM   19  C   UNL     1      -6.381   7.040  64.733  1.00  0.00    -0.037 C  
BRANCH  19  20
HETATM   20  C   UNL     1      -5.543   8.153  65.372  1.00  0.00    -0.040 C  
BRANCH  20  21
HETATM   21  C   UNL     1      -6.277   9.487  65.296  1.00  0.00    -0.068 C  
HETATM   22  N   UNL     1      -7.640   9.385  65.537  1.00  0.00    -0.097 N  
HETATM   23  O   UNL     1      -5.709  10.524  64.972  1.00  0.00    -0.130 OA 
HETATM   24  H   UNL     1      -8.042   8.470  65.741  1.00  0.00     0.000 HD 
BRANCH  22  25
HETATM   25  C   UNL     1      -8.491  10.529  65.507  1.00  0.00    -0.173 A  
HETATM   26  C   UNL     1      -9.207  10.900  64.357  1.00  0.00    -0.198 A  
HETATM   27  I   UNL     1      -8.897  10.048  62.442  1.00  0.00    -0.363 I  
HETATM   28  C   UNL     1     -10.063  12.005  64.378  1.00  0.00    -0.298 A  
HETATM   29  C   UNL     1     -10.172  12.806  65.522  1.00  0.00    -0.279 A  
HETATM   30  I   UNL     1     -11.430  14.489  65.285  1.00  0.00    -0.364 I  
HETATM   31  C   UNL     1      -9.430  12.505  66.678  1.00  0.00    -0.242 A  
HETATM   32  C   UNL     1      -9.453  13.405  67.869  1.00  0.00    -0.216 C  
HETATM   33  C   UNL     1      -8.594  11.357  66.660  1.00  0.00    -0.170 A  
HETATM   34  O   UNL     1      -8.445  13.773  68.445  1.00  0.00    -0.160 OA 
HETATM   35  I   UNL     1      -7.521  10.710  68.421  1.00  0.00    -0.112 I  
HETATM   36  O   UNL     1     -10.686  13.756  68.294  1.00  0.00    -0.239 OA 
ENDBRANCH  22  25
ENDBRANCH  20  21
ENDBRANCH  19  20
ENDBRANCH  18  19
ENDBRANCH  17  18
ENDBRANCH  15  17
ENDBRANCH   7  13
TORSDOF 7
ENDMDL
MODEL       96
REMARK 921   NORMALIZED FREE ENERGY PREDICTED BY IDOCK:   -4.61 KCAL/MOL
REMARK 922        TOTAL FREE ENERGY PREDICTED BY IDOCK:   -7.42 KCAL/MOL
REMARK 923 INTER-LIGAND FREE ENERGY PREDICTED BY IDOCK:   -6.15 KCAL/MOL
REMARK 924 INTRA-LIGAND FREE ENERGY PREDICTED BY IDOCK:   -1.27 KCAL/MOL
REMARK 927      BINDING AFFINITY PREDICTED BY RF-SCORE:    0.00 PKD
ROOT
HETATM    1  O   UNL     1     -10.704   4.214  64.657  1.00  0.00    -0.255 OA 
HETATM    2  C   UNL     1      -9.983   4.498  65.764  1.00  0.00    -0.239 C  
HETATM    3  C   UNL     1      -9.264   5.800  65.717  1.00  0.00    -0.086 A  
HETATM    4  O   UNL     1      -9.977   3.763  66.736  1.00  0.00    -0.116 OA 
HETATM    5  C   UNL     1      -9.347   6.714  66.803  1.00  0.00    -0.158 A  
HETATM    6  I   UNL     1     -10.660   6.349  68.480  1.00  0.00    -0.404 I  
HETATM    7  C   UNL     1      -8.638   7.949  66.794  1.00  0.00    -0.131 A  
HETATM    8  I   UNL     1      -8.037   4.860  62.992  1.00  0.00    -0.108 I  
HETATM    9  C   UNL     1      -7.829   8.249  65.684  1.00  0.00    -0.104 A  
HETATM   10  C   UNL     1      -8.437   6.134  64.631  1.00  0.00     0.023 A  
HETATM   11  C   UNL     1      -7.746   7.353  64.609  1.00  0.00    -0.118 A  
HETATM   12  I   UNL     1      -6.485   9.875  65.591  1.00  0.00    -0.113 I  
ENDROOT
BRANCH   7  13
HETATM   13  N   UNL     1      -8.715   8.790  67.944  1.00  0.00    -0.136 N  
HETATM   14  O   UNL     1      -6.891   7.898  69.068  1.00  0.00    -0.054 OA 
HETATM   15  C   UNL     1      -7.813   8.707  68.994  1.00  0.00    -0.100 C  
HETATM   16  H   UNL     1      -9.464   9.481  67.996  1.00  0.00     0.000 HD 
BRANCH  15  17
HETATM   17  C   UNL     1      -7.949   9.829  70.015  1.00  0.00    -0.196 C  
BRANCH  17  18
HETATM   18  C   UNL     1      -6.602  10.095  70.683  1.00  0.00    -0.068 C  
BRANCH  18  19
HETATM   19  C   UNL     1      -6.002  11.476  70.401  1.00  0.00    -0.138 C  
BRANCH  19  20
HETATM   20  C   UNL     1      -5.531  11.698  68.960  1.00  0.00    -0.050 C  
BRANCH  20  21
HETATM   21  C   UNL     1      -6.208  12.924  68.357  1.00  0.00    -0.079 C  
HETATM   22  N   UNL     1      -7.090  13.553  69.225  1.00  0.00    -0.291 N  
HETATM   23  O   UNL     1      -6.035  13.255  67.189  1.00  0.00    -0.304 OA 
HETATM   24  H   UNL     1      -7.221  13.175  70.162  1.00  0.00     0.000 HD 
BRANCH  22  25
HETATM   25  C   UNL     1      -7.819  14.716  68.835  1.00  0.00    -0.148 A  
HETATM   26  C   UNL     1      -9.090  14.640  68.244  1.00  0.00    -0.189 A  
HETATM   27  I   UNL     1      -9.970  12.842  67.550  1.00  0.00    -0.226 I  
HETATM   28  C   UNL     1      -9.791  15.804  67.913  1.00  0.00    -0.217 A  
HETATM   29  C   UNL     1      -9.212  17.067  68.098  1.00  0.00    -0.244 A  
HETATM   30  I   UNL     1     -10.404  18.674  67.415  1.00  0.00    -0.493 I  
HETATM   31  C   UNL     1      -7.918  17.187  68.633  1.00  0.00    -0.265 A  
HETATM   32  C   UNL     1      -7.245  18.515  68.739  1.00  0.00    -0.296 C  
HETATM   33  C   UNL     1      -7.230  16.000  69.004  1.00  0.00    -0.182 A  
HETATM   34  O   UNL     1      -6.103  18.715  68.367  1.00  0.00    -0.205 OA 
HETATM   35  I   UNL     1      -5.299  16.066  69.973  1.00  0.00    -0.167 I  
HETATM   36  O   UNL     1      -7.985  19.483  69.322  1.00  0.00    -0.291 OA 
ENDBRANCH  22  25
ENDBRANCH  20  21
ENDBRANCH  19  20
ENDBRANCH  18  19
ENDBRANCH  17  18
ENDBRANCH  15  17
ENDBRANCH   7  13
TORSDOF 7
ENDMDL
MODEL       97
REMARK 921   NORMALIZED FREE ENERGY PREDICTED BY IDOCK:   -4.61 KCAL/MOL
REMARK 922        TOTAL FREE ENERGY PREDICTED BY IDOCK:   -7.41 KCAL/MOL
REMARK 923 INTER-LIGAND FREE ENERGY PREDICTED BY IDOCK:   -5.78 KCAL/MOL
REMARK 924 INTRA-LIGAND FREE ENERGY PREDICTED BY IDOCK:   -1.64 KCAL/MOL
REMARK 927      BINDING AFFINITY PREDICTED BY RF-SCORE:    0.00 PKD
ROOT
HETATM    1  O   UNL     1      -7.528  10.208  63.169  1.00  0.00    -0.139 OA 
HETATM    2  C   UNL     1      -6.998   9.928  64.379  1.00  0.00    -0.128 C  
HETATM    3  C   UNL     1      -7.805   8.993  65.207  1.00  0.00    -0.102 A  
HETATM    4  O   UNL     1      -5.918  10.370  64.728  1.00  0.00    -0.131 OA 
HETATM    5  C   UNL     1      -7.198   7.874  65.840  1.00  0.00    -0.072 A  
HETATM    6  I   UNL     1      -5.127   7.371  65.483  1.00  0.00    -0.025 I  
HETATM    7  C   UNL     1      -7.945   6.987  66.666  1.00  0.00    -0.108 A  
HETATM    8  I   UNL     1     -10.242  10.906  64.734  1.00  0.00    -0.317 I  
HETATM    9  C   UNL     1      -9.313   7.247  66.863  1.00  0.00    -0.156 A  
HETATM   10  C   UNL     1      -9.173   9.221  65.437  1.00  0.00    -0.222 A  
HETATM   11  C   UNL     1      -9.919   8.347  66.238  1.00  0.00    -0.216 A  
HETATM   12  I   UNL     1     -10.532   6.235  68.259  1.00  0.00    -0.399 I  
ENDROOT
BRANCH   7  13
HETATM   13  N   UNL     1      -7.259   5.922  67.323  1.00  0.00    -0.074 N  
HETATM   14  O   UNL     1      -6.324   7.194  69.023  1.00  0.00    -0.033 OA 
HETATM   15  C   UNL     1      -6.509   6.112  68.473  1.00  0.00    -0.053 C  
HETATM   16  H   UNL     1      -7.323   4.983  66.930  1.00  0.00     0.000 HD 
BRANCH  15  17
HETATM   17  C   UNL     1      -6.038   4.817  69.123  1.00  0.00    -0.029 C  
BRANCH  17  18
HETATM   18  C   UNL     1      -5.136   5.128  70.315  1.00  0.00    -0.004 C  
BRANCH  18  19
HETATM   19  C   UNL     1      -5.870   5.330  71.645  1.00  0.00    -0.024 C  
BRANCH  19  20
HETATM   20  C   UNL     1      -5.718   6.723  72.267  1.00  0.00    -0.038 C  
BRANCH  20  21
HETATM   21  C   UNL     1      -7.086   7.325  72.571  1.00  0.00    -0.068 C  
HETATM   22  N   UNL     1      -8.000   7.175  71.538  1.00  0.00    -0.101 N  
HETATM   23  O   UNL     1      -7.306   7.948  73.604  1.00  0.00    -0.118 OA 
HETATM   24  H   UNL     1      -7.714   6.695  70.686  1.00  0.00     0.000 HD 
BRANCH  22  25
HETATM   25  C   UNL     1      -9.331   7.678  71.641  1.00  0.00    -0.138 A  
HETATM   26  C   UNL     1     -10.312   7.045  72.421  1.00  0.00    -0.203 A  
HETATM   27  I   UNL     1     -10.086   5.121  73.279  1.00  0.00    -0.271 I  
HETATM   28  C   UNL     1     -11.595   7.590  72.529  1.00  0.00    -0.352 A  
HETATM   29  C   UNL     1     -11.950   8.739  71.809  1.00  0.00    -0.349 A  
HETATM   30  I   UNL     1     -13.972   9.312  72.033  1.00  0.00    -0.189 I  
HETATM   31  C   UNL     1     -11.015   9.373  70.971  1.00  0.00    -0.409 A  
HETATM   32  C   UNL     1     -11.404  10.533  70.117  1.00  0.00    -0.323 C  
HETATM   33  C   UNL     1      -9.703   8.834  70.899  1.00  0.00    -0.222 A  
HETATM   34  O   UNL     1     -11.124  10.613  68.934  1.00  0.00    -0.226 OA 
HETATM   35  I   UNL     1      -8.141   9.805  69.764  1.00  0.00    -0.175 I  
HETATM   36  O   UNL     1     -12.062  11.521  70.762  1.00  0.00    -0.364 OA 
ENDBRANCH  22  25
ENDBRANCH  20  21
ENDBRANCH  19  20
ENDBRANCH  18  19
ENDBRANCH  17  18
ENDBRANCH  15  17
ENDBRANCH   7  13
TORSDOF 7
ENDMDL
MODEL       98
REMARK 921   NORMALIZED FREE ENERGY PREDICTED BY IDOCK:   -4.59 KCAL/MOL
REMARK 922        TOTAL FREE ENERGY PREDICTED BY IDOCK:   -7.39 KCAL/MOL
REMARK 923 INTER-LIGAND FREE ENERGY PREDICTED BY IDOCK:   -6.52 KCAL/MOL
REMARK 924 INTRA-LIGAND FREE ENERGY PREDICTED BY IDOCK:   -0.87 KCAL/MOL
REMARK 927      BINDING AFFINITY PREDICTED BY RF-SCORE:    0.00 PKD
ROOT
HETATM    1  O   UNL     1      -7.184   3.872  62.983  1.00  0.00    -0.047 OA 
HETATM    2  C   UNL     1      -8.163   4.672  63.458  1.00  0.00    -0.107 C  
HETATM    3  C   UNL     1      -8.375   4.586  64.928  1.00  0.00    -0.121 A  
HETATM    4  O   UNL     1      -8.778   5.437  62.736  1.00  0.00    -0.105 OA 
HETATM    5  C   UNL     1      -8.461   5.764  65.719  1.00  0.00    -0.143 A  
HETATM    6  I   UNL     1      -8.103   7.717  64.867  1.00  0.00    -0.004 I  
HETATM    7  C   UNL     1      -8.698   5.705  67.122  1.00  0.00    -0.108 A  
HETATM    8  I   UNL     1      -8.633   1.484  64.563  1.00  0.00    -0.106 I  
HETATM    9  C   UNL     1      -8.866   4.443  67.721  1.00  0.00    -0.109 A  
HETATM   10  C   UNL     1      -8.557   3.346  65.564  1.00  0.00    -0.112 A  
HETATM   11  C   UNL     1      -8.779   3.278  66.946  1.00  0.00    -0.134 A  
HETATM   12  I   UNL     1      -9.502   4.142  69.712  1.00  0.00    -0.236 I  
ENDROOT
BRANCH   7  13
HETATM   13  N   UNL     1      -8.837   6.928  67.845  1.00  0.00    -0.124 N  
HETATM   14  O   UNL     1     -11.091   7.261  67.405  1.00  0.00    -0.214 OA 
HETATM   15  C   UNL     1     -10.042   7.606  67.943  1.00  0.00    -0.185 C  
HETATM   16  H   UNL     1      -8.016   7.319  68.307  1.00  0.00     0.000 HD 
BRANCH  15  17
HETATM   17  C   UNL     1     -10.017   8.768  68.928  1.00  0.00    -0.200 C  
BRANCH  17  18
HETATM   18  C   UNL     1      -9.693  10.068  68.195  1.00  0.00    -0.156 C  
BRANCH  18  19
HETATM   19  C   UNL     1      -8.200  10.324  67.965  1.00  0.00    -0.113 C  
BRANCH  19  20
HETATM   20  C   UNL     1      -7.607  11.483  68.774  1.00  0.00    -0.129 C  
BRANCH  20  21
HETATM   21  C   UNL     1      -7.980  12.821  68.144  1.00  0.00    -0.156 C  
HETATM   22  N   UNL     1      -8.570  13.708  69.034  1.00  0.00    -0.344 N  
HETATM   23  O   UNL     1      -7.837  13.038  66.946  1.00  0.00    -0.033 OA 
HETATM   24  H   UNL     1      -8.707  13.422  70.003  1.00  0.00     0.000 HD 
BRANCH  22  25
HETATM   25  C   UNL     1      -8.988  15.009  68.625  1.00  0.00    -0.186 A  
HETATM   26  C   UNL     1     -10.260  15.249  68.081  1.00  0.00    -0.230 A  
HETATM   27  I   UNL     1     -11.603  13.723  67.486  1.00  0.00    -0.438 I  
HETATM   28  C   UNL     1     -10.649  16.545  67.728  1.00  0.00    -0.332 A  
HETATM   29  C   UNL     1      -9.755  17.619  67.845  1.00  0.00    -0.295 A  
HETATM   30  I   UNL     1     -10.518  19.461  67.142  1.00  0.00    -0.590 I  
HETATM   31  C   UNL     1      -8.452  17.414  68.332  1.00  0.00    -0.263 A  
HETATM   32  C   UNL     1      -7.455  18.524  68.365  1.00  0.00    -0.296 C  
HETATM   33  C   UNL     1      -8.081  16.100  68.725  1.00  0.00    -0.218 A  
HETATM   34  O   UNL     1      -6.317  18.409  67.947  1.00  0.00    -0.188 OA 
HETATM   35  I   UNL     1      -6.159  15.689  69.625  1.00  0.00    -0.160 I  
HETATM   36  O   UNL     1      -7.893  19.667  68.934  1.00  0.00    -0.339 OA 
ENDBRANCH  22  25
ENDBRANCH  20  21
ENDBRANCH  19  20
ENDBRANCH  18  19
ENDBRANCH  17  18
ENDBRANCH  15  17
ENDBRANCH   7  13
TORSDOF 7
ENDMDL
MODEL       99
REMARK 921   NORMALIZED FREE ENERGY PREDICTED BY IDOCK:   -4.56 KCAL/MOL
REMARK 922        TOTAL FREE ENERGY PREDICTED BY IDOCK:   -7.35 KCAL/MOL
REMARK 923 INTER-LIGAND FREE ENERGY PREDICTED BY IDOCK:   -5.84 KCAL/MOL
REMARK 924 INTRA-LIGAND FREE ENERGY PREDICTED BY IDOCK:   -1.51 KCAL/MOL
REMARK 927      BINDING AFFINITY PREDICTED BY RF-SCORE:    0.00 PKD
ROOT
HETATM    1  O   UNL     1      -7.873   4.239  73.728  1.00  0.00    -0.083 OA 
HETATM    2  C   UNL     1      -7.859   3.579  72.549  1.00  0.00    -0.068 C  
HETATM    3  C   UNL     1      -8.461   4.328  71.414  1.00  0.00    -0.110 A  
HETATM    4  O   UNL     1      -7.342   2.483  72.430  1.00  0.00    -0.037 OA 
HETATM    5  C   UNL     1      -7.778   4.437  70.172  1.00  0.00    -0.049 A  
HETATM    6  I   UNL     1      -5.766   3.689  69.929  1.00  0.00    -0.019 I  
HETATM    7  C   UNL     1      -8.352   5.119  69.061  1.00  0.00    -0.087 A  
HETATM    8  I   UNL     1     -11.004   4.714  73.205  1.00  0.00    -0.333 I  
HETATM    9  C   UNL     1      -9.634   5.679  69.209  1.00  0.00    -0.138 A  
HETATM   10  C   UNL     1      -9.744   4.895  71.516  1.00  0.00    -0.172 A  
HETATM   11  C   UNL     1     -10.311   5.577  70.432  1.00  0.00    -0.346 A  
HETATM   12  I   UNL     1     -10.777   6.477  67.623  1.00  0.00    -0.427 I  
ENDROOT
BRANCH   7  13
HETATM   13  N   UNL     1      -7.639   5.134  67.825  1.00  0.00    -0.086 N  
HETATM   14  O   UNL     1      -8.665   3.277  66.885  1.00  0.00    -0.110 OA 
HETATM   15  C   UNL     1      -7.870   4.210  66.817  1.00  0.00    -0.097 C  
HETATM   16  H   UNL     1      -6.932   5.854  67.677  1.00  0.00     0.000 HD 
BRANCH  15  17
HETATM   17  C   UNL     1      -7.156   4.532  65.510  1.00  0.00    -0.067 C  
BRANCH  17  18
HETATM   18  C   UNL     1      -5.753   5.062  65.797  1.00  0.00    -0.018 C  
BRANCH  18  19
HETATM   19  C   UNL     1      -5.466   6.461  65.243  1.00  0.00    -0.018 C  
BRANCH  19  20
HETATM   20  C   UNL     1      -5.356   7.568  66.297  1.00  0.00    -0.025 C  
BRANCH  20  21
HETATM   21  C   UNL     1      -6.258   8.743  65.935  1.00  0.00    -0.056 C  
HETATM   22  N   UNL     1      -7.611   8.433  65.962  1.00  0.00    -0.084 N  
HETATM   23  O   UNL     1      -5.805   9.825  65.580  1.00  0.00    -0.056 OA 
HETATM   24  H   UNL     1      -7.899   7.487  66.211  1.00  0.00     0.000 HD 
BRANCH  22  25
HETATM   25  C   UNL     1      -8.606   9.406  65.650  1.00  0.00    -0.142 A  
HETATM   26  C   UNL     1      -9.016   9.661  64.332  1.00  0.00    -0.234 A  
HETATM   27  I   UNL     1      -8.024   8.912  62.616  1.00  0.00    -0.173 I  
HETATM   28  C   UNL     1     -10.023  10.594  64.068  1.00  0.00    -0.401 A  
HETATM   29  C   UNL     1     -10.596  11.343  65.106  1.00  0.00    -0.293 A  
HETATM   30  I   UNL     1     -12.011  12.776  64.460  1.00  0.00    -0.559 I  
HETATM   31  C   UNL     1     -10.175  11.161  66.435  1.00  0.00    -0.279 A  
HETATM   32  C   UNL     1     -10.697  12.021  67.537  1.00  0.00    -0.226 C  
HETATM   33  C   UNL     1      -9.179  10.182  66.696  1.00  0.00    -0.155 A  
HETATM   34  O   UNL     1      -9.979  12.554  68.363  1.00  0.00    -0.224 OA 
HETATM   35  I   UNL     1      -8.560   9.708  68.712  1.00  0.00    -0.141 I  
HETATM   36  O   UNL     1     -12.042  12.137  67.580  1.00  0.00    -0.522 OA 
ENDBRANCH  22  25
ENDBRANCH  20  21
ENDBRANCH  19  20
ENDBRANCH  18  19
ENDBRANCH  17  18
ENDBRANCH  15  17
ENDBRANCH   7  13
TORSDOF 7
ENDMDL
MODEL      100
REMARK 921   NORMALIZED FREE ENERGY PREDICTED BY IDOCK:   -4.56 KCAL/MOL
REMARK 922        TOTAL FREE ENERGY PREDICTED BY IDOCK:   -7.35 KCAL/MOL
REMARK 923 INTER-LIGAND FREE ENERGY PREDICTED BY IDOCK:   -6.21 KCAL/MOL
REMARK 924 INTRA-LIGAND FREE ENERGY PREDICTED BY IDOCK:   -1.13 KCAL/MOL
REMARK 927      BINDING AFFINITY PREDICTED BY RF-SCORE:    0.00 PKD
ROOT
HETATM    1  O   UNL     1     -12.808  12.658  72.995  1.00  0.00     0.566 OA 
HETATM    2  C   UNL     1     -12.977  12.106  71.773  1.00  0.00    -0.332 C  
HETATM    3  C   UNL     1     -12.248  12.795  70.675  1.00  0.00    -0.374 A  
HETATM    4  O   UNL     1     -13.634  11.093  71.609  1.00  0.00    -0.135 OA 
HETATM    5  C   UNL     1     -11.460  12.056  69.752  1.00  0.00    -0.210 A  
HETATM    6  I   UNL     1     -11.129   9.936  70.004  1.00  0.00    -0.357 I  
HETATM    7  C   UNL     1     -10.782  12.692  68.673  1.00  0.00    -0.242 A  
HETATM    8  I   UNL     1     -13.612  15.450  71.630  1.00  0.00    -0.485 I  
HETATM    9  C   UNL     1     -10.920  14.083  68.522  1.00  0.00    -0.256 A  
HETATM   10  C   UNL     1     -12.367  14.183  70.483  1.00  0.00    -0.364 A  
HETATM   11  C   UNL     1     -11.694  14.818  69.431  1.00  0.00    -0.358 A  
HETATM   12  I   UNL     1     -10.242  15.175  66.846  1.00  0.00    -0.289 I  
ENDROOT
BRANCH   7  13
HETATM   13  N   UNL     1     -10.061  11.882  67.745  1.00  0.00    -0.187 N  
HETATM   14  O   UNL     1     -11.749  11.690  66.165  1.00  0.00    -0.415 OA 
HETATM   15  C   UNL     1     -10.604  11.456  66.543  1.00  0.00    -0.263 C  
HETATM   16  H   UNL     1      -9.106  11.605  67.976  1.00  0.00     0.000 HD 
BRANCH  15  17
HETATM   17  C   UNL     1      -9.600  10.784  65.616  1.00  0.00    -0.263 C  
BRANCH  17  18
HETATM   18  C   UNL     1      -8.237  10.690  66.299  1.00  0.00    -0.153 C  
BRANCH  18  19
HETATM   19  C   UNL     1      -7.930   9.335  66.944  1.00  0.00    -0.105 C  
BRANCH  19  20
HETATM   20  C   UNL     1      -7.371   9.405  68.369  1.00  0.00    -0.077 C  
BRANCH  20  21
HETATM   21  C   UNL     1      -7.360   8.020  69.008  1.00  0.00    -0.084 C  
HETATM   22  N   UNL     1      -8.610   7.420  69.052  1.00  0.00    -0.133 N  
HETATM   23  O   UNL     1      -6.346   7.540  69.502  1.00  0.00    -0.031 OA 
HETATM   24  H   UNL     1      -9.415   7.917  68.672  1.00  0.00     0.000 HD 
BRANCH  22  25
HETATM   25  C   UNL     1      -8.796   6.123  69.617  1.00  0.00    -0.134 A  
HETATM   26  C   UNL     1      -8.928   5.921  71.000  1.00  0.00    -0.142 A  
HETATM   27  I   UNL     1      -8.553   7.412  72.458  1.00  0.00    -0.180 I  
HETATM   28  C   UNL     1      -9.149   4.640  71.514  1.00  0.00    -0.175 A  
HETATM   29  C   UNL     1      -9.175   3.523  70.668  1.00  0.00    -0.137 A  
HETATM   30  I   UNL     1      -9.403   1.678  71.675  1.00  0.00    -0.201 I  
HETATM   31  C   UNL     1      -8.990   3.672  69.282  1.00  0.00    -0.176 A  
HETATM   32  C   UNL     1      -8.909   2.486  68.380  1.00  0.00    -0.111 C  
HETATM   33  C   UNL     1      -8.806   4.983  68.766  1.00  0.00    -0.093 A  
HETATM   34  O   UNL     1      -8.038   2.346  67.540  1.00  0.00    -0.064 OA 
HETATM   35  I   UNL     1      -8.661   5.353  66.642  1.00  0.00    -0.119 I  
HETATM   36  O   UNL     1      -9.904   1.586  68.532  1.00  0.00    -0.132 OA 
ENDBRANCH  22  25
ENDBRANCH  20  21
ENDBRANCH  19  20
ENDBRANCH  18  19
ENDBRANCH  17  18
ENDBRANCH  15  17
ENDBRANCH   7  13
TORSDOF 7
ENDMDL
MODEL      101
REMARK 921   NORMALIZED FREE ENERGY PREDICTED BY IDOCK:   -4.53 KCAL/MOL
REMARK 922        TOTAL FREE ENERGY PREDICTED BY IDOCK:   -7.30 KCAL/MOL
REMARK 923 INTER-LIGAND FREE ENERGY PREDICTED BY IDOCK:   -6.07 KCAL/MOL
REMARK 924 INTRA-LIGAND FREE ENERGY PREDICTED BY IDOCK:   -1.23 KCAL/MOL
REMARK 927      BINDING AFFINITY PREDICTED BY RF-SCORE:    0.00 PKD
ROOT
HETATM    1  O   UNL     1      -7.430   5.476  63.345  1.00  0.00    -0.050 OA 
HETATM    2  C   UNL     1      -7.949   6.507  64.047  1.00  0.00    -0.081 C  
HETATM    3  C   UNL     1      -8.320   6.177  65.450  1.00  0.00    -0.150 A  
HETATM    4  O   UNL     1      -8.048   7.625  63.573  1.00  0.00    -0.120 OA 
HETATM    5  C   UNL     1      -7.910   7.011  66.525  1.00  0.00    -0.106 A  
HETATM    6  I   UNL     1      -6.579   8.683  66.203  1.00  0.00    -0.062 I  
HETATM    7  C   UNL     1      -8.283   6.733  67.870  1.00  0.00    -0.117 A  
HETATM    8  I   UNL     1      -9.993   3.793  64.293  1.00  0.00    -0.165 I  
HETATM    9  C   UNL     1      -9.092   5.610  68.122  1.00  0.00    -0.110 A  
HETATM   10  C   UNL     1      -9.135   5.070  65.744  1.00  0.00    -0.154 A  
HETATM   11  C   UNL     1      -9.497   4.782  67.066  1.00  0.00    -0.164 A  
HETATM   12  I   UNL     1      -9.987   5.178  69.985  1.00  0.00    -0.341 I  
ENDROOT
BRANCH   7  13
HETATM   13  N   UNL     1      -7.890   7.647  68.893  1.00  0.00    -0.120 N  
HETATM   14  O   UNL     1      -9.797   8.969  68.837  1.00  0.00    -0.167 OA 
HETATM   15  C   UNL     1      -8.698   8.694  69.311  1.00  0.00    -0.133 C  
HETATM   16  H   UNL     1      -6.979   7.526  69.334  1.00  0.00     0.000 HD 
BRANCH  15  17
HETATM   17  C   UNL     1      -8.181   9.416  70.548  1.00  0.00    -0.221 C  
BRANCH  17  18
HETATM   18  C   UNL     1      -6.742   9.875  70.324  1.00  0.00    -0.126 C  
BRANCH  18  19
HETATM   19  C   UNL     1      -6.580  11.371  70.034  1.00  0.00    -0.033 C  
BRANCH  19  20
HETATM   20  C   UNL     1      -5.573  11.715  68.932  1.00  0.00    -0.049 C  
BRANCH  20  21
HETATM   21  C   UNL     1      -5.974  13.005  68.223  1.00  0.00    -0.086 C  
HETATM   22  N   UNL     1      -7.011  13.682  68.849  1.00  0.00    -0.109 N  
HETATM   23  O   UNL     1      -5.468  13.346  67.160  1.00  0.00    -0.312 OA 
HETATM   24  H   UNL     1      -7.416  13.294  69.700  1.00  0.00     0.000 HD 
BRANCH  22  25
HETATM   25  C   UNL     1      -7.523  14.908  68.329  1.00  0.00    -0.113 A  
HETATM   26  C   UNL     1      -6.958  16.152  68.652  1.00  0.00    -0.141 A  
HETATM   27  I   UNL     1      -5.512  16.438  70.174  1.00  0.00    -0.137 I  
HETATM   28  C   UNL     1      -7.462  17.329  68.091  1.00  0.00    -0.208 A  
HETATM   29  C   UNL     1      -8.584  17.300  67.251  1.00  0.00    -0.203 A  
HETATM   30  I   UNL     1      -9.241  19.207  66.617  1.00  0.00    -0.420 I  
HETATM   31  C   UNL     1      -9.216  16.081  66.946  1.00  0.00    -0.244 A  
HETATM   32  C   UNL     1     -10.471  16.042  66.140  1.00  0.00    -0.326 C  
HETATM   33  C   UNL     1      -8.671  14.887  67.489  1.00  0.00    -0.187 A  
HETATM   34  O   UNL     1     -11.453  15.400  66.467  1.00  0.00    -0.187 OA 
HETATM   35  I   UNL     1      -9.465  12.944  66.974  1.00  0.00    -0.248 I  
HETATM   36  O   UNL     1     -10.430  16.743  64.986  1.00  0.00    -0.675 OA 
ENDBRANCH  22  25
ENDBRANCH  20  21
ENDBRANCH  19  20
ENDBRANCH  18  19
ENDBRANCH  17  18
ENDBRANCH  15  17
ENDBRANCH   7  13
TORSDOF 7
ENDMDL
MODEL      102
REMARK 921   NORMALIZED FREE ENERGY PREDICTED BY IDOCK:   -4.51 KCAL/MOL
REMARK 922        TOTAL FREE ENERGY PREDICTED BY IDOCK:   -7.27 KCAL/MOL
REMARK 923 INTER-LIGAND FREE ENERGY PREDICTED BY IDOCK:   -6.31 KCAL/MOL
REMARK 924 INTRA-LIGAND FREE ENERGY PREDICTED BY IDOCK:   -0.96 KCAL/MOL
REMARK 927      BINDING AFFINITY PREDICTED BY RF-SCORE:    0.00 PKD
ROOT
HETATM    1  O   UNL     1      -7.116  19.078  66.950  1.00  0.00    -0.203 OA 
HETATM    2  C   UNL     1      -7.577  18.046  67.691  1.00  0.00    -0.217 C  
HETATM    3  C   UNL     1      -8.527  17.149  66.980  1.00  0.00    -0.233 A  
HETATM    4  O   UNL     1      -7.193  17.849  68.830  1.00  0.00    -0.267 OA 
HETATM    5  C   UNL     1      -8.357  15.739  67.014  1.00  0.00    -0.226 A  
HETATM    6  I   UNL     1      -6.619  14.840  67.932  1.00  0.00    -0.154 I  
HETATM    7  C   UNL     1      -9.274  14.860  66.371  1.00  0.00    -0.284 A  
HETATM    8  I   UNL     1     -10.189  19.709  66.272  1.00  0.00    -0.583 I  
HETATM    9  C   UNL     1     -10.380  15.418  65.704  1.00  0.00    -0.372 A  
HETATM   10  C   UNL     1      -9.650  17.665  66.310  1.00  0.00    -0.244 A  
HETATM   11  C   UNL     1     -10.551  16.809  65.664  1.00  0.00    -0.258 A  
HETATM   12  I   UNL     1     -11.998  14.300  64.934  1.00  0.00    -0.458 I  
ENDROOT
BRANCH   7  13
HETATM   13  N   UNL     1      -9.079  13.452  66.499  1.00  0.00    -0.433 N  
HETATM   14  O   UNL     1     -10.293  13.176  68.457  1.00  0.00    -0.247 OA 
HETATM   15  C   UNL     1      -9.626  12.712  67.536  1.00  0.00    -0.184 C  
HETATM   16  H   UNL     1      -8.513  12.971  65.800  1.00  0.00     0.000 HD 
BRANCH  15  17
HETATM   17  C   UNL     1      -9.471  11.206  67.368  1.00  0.00    -0.176 C  
BRANCH  17  18
HETATM   18  C   UNL     1     -10.383  10.473  68.349  1.00  0.00    -0.199 C  
BRANCH  18  19
HETATM   19  C   UNL     1      -9.829   9.146  68.878  1.00  0.00    -0.179 C  
BRANCH  19  20
HETATM   20  C   UNL     1      -8.306   9.094  69.035  1.00  0.00    -0.127 C  
BRANCH  20  21
HETATM   21  C   UNL     1      -7.683   8.238  67.937  1.00  0.00    -0.103 C  
HETATM   22  N   UNL     1      -8.599   7.432  67.276  1.00  0.00    -0.117 N  
HETATM   23  O   UNL     1      -6.475   8.222  67.732  1.00  0.00    -0.054 OA 
HETATM   24  H   UNL     1      -9.580   7.463  67.552  1.00  0.00     0.000 HD 
BRANCH  22  25
HETATM   25  C   UNL     1      -8.200   6.560  66.219  1.00  0.00    -0.119 A  
HETATM   26  C   UNL     1      -7.943   7.027  64.920  1.00  0.00    -0.127 A  
HETATM   27  I   UNL     1      -8.412   8.980  64.248  1.00  0.00    -0.061 I  
HETATM   28  C   UNL     1      -7.515   6.148  63.921  1.00  0.00    -0.078 A  
HETATM   29  C   UNL     1      -7.399   4.774  64.175  1.00  0.00    -0.059 A  
HETATM   30  I   UNL     1      -6.853   3.624  62.487  1.00  0.00    -0.032 I  
HETATM   31  C   UNL     1      -7.701   4.255  65.446  1.00  0.00    -0.086 A  
HETATM   32  C   UNL     1      -7.685   2.786  65.706  1.00  0.00    -0.077 C  
HETATM   33  C   UNL     1      -8.097   5.163  66.466  1.00  0.00    -0.108 A  
HETATM   34  O   UNL     1      -8.587   2.201  66.278  1.00  0.00    -0.101 OA 
HETATM   35  I   UNL     1      -8.442   4.504  68.495  1.00  0.00    -0.116 I  
HETATM   36  O   UNL     1      -6.569   2.147  65.294  1.00  0.00    -0.026 OA 
ENDBRANCH  22  25
ENDBRANCH  20  21
ENDBRANCH  19  20
ENDBRANCH  18  19
ENDBRANCH  17  18
ENDBRANCH  15  17
ENDBRANCH   7  13
TORSDOF 7
ENDMDL
MODEL      103
REMARK 921   NORMALIZED FREE ENERGY PREDICTED BY IDOCK:   -4.50 KCAL/MOL
REMARK 922        TOTAL FREE ENERGY PREDICTED BY IDOCK:   -7.26 KCAL/MOL
REMARK 923 INTER-LIGAND FREE ENERGY PREDICTED BY IDOCK:   -6.52 KCAL/MOL
REMARK 924 INTRA-LIGAND FREE ENERGY PREDICTED BY IDOCK:   -0.75 KCAL/MOL
REMARK 927      BINDING AFFINITY PREDICTED BY RF-SCORE:    0.00 PKD
ROOT
HETATM    1  O   UNL     1      -7.319   2.610  68.917  1.00  0.00    -0.047 OA 
HETATM    2  C   UNL     1      -8.533   3.188  69.048  1.00  0.00    -0.063 C  
HETATM    3  C   UNL     1      -8.638   4.161  70.168  1.00  0.00    -0.104 A  
HETATM    4  O   UNL     1      -9.443   2.961  68.271  1.00  0.00    -0.201 OA 
HETATM    5  C   UNL     1      -9.202   5.449  69.961  1.00  0.00    -0.138 A  
HETATM    6  I   UNL     1      -9.758   6.125  67.985  1.00  0.00    -0.175 I  
HETATM    7  C   UNL     1      -9.344   6.383  71.026  1.00  0.00    -0.164 A  
HETATM    8  I   UNL     1      -7.532   1.905  72.041  1.00  0.00    -0.041 I  
HETATM    9  C   UNL     1      -8.926   5.999  72.313  1.00  0.00    -0.141 A  
HETATM   10  C   UNL     1      -8.241   3.815  71.472  1.00  0.00    -0.069 A  
HETATM   11  C   UNL     1      -8.366   4.731  72.524  1.00  0.00    -0.115 A  
HETATM   12  I   UNL     1      -9.302   7.108  74.070  1.00  0.00    -0.186 I  
ENDROOT
BRANCH   7  13
HETATM   13  N   UNL     1      -9.978   7.634  70.760  1.00  0.00    -0.182 N  
HETATM   14  O   UNL     1     -12.137   6.975  71.296  1.00  0.00    -0.322 OA 
HETATM   15  C   UNL     1     -11.338   7.836  70.937  1.00  0.00    -0.275 C  
HETATM   16  H   UNL     1      -9.407   8.411  70.428  1.00  0.00     0.000 HD 
BRANCH  15  17
HETATM   17  C   UNL     1     -11.769   9.290  70.798  1.00  0.00    -0.328 C  
BRANCH  17  18
HETATM   18  C   UNL     1     -10.541  10.191  70.685  1.00  0.00    -0.172 C  
BRANCH  18  19
HETATM   19  C   UNL     1     -10.514  11.092  69.446  1.00  0.00    -0.132 C  
BRANCH  19  20
HETATM   20  C   UNL     1      -9.151  11.205  68.754  1.00  0.00    -0.144 C  
BRANCH  20  21
HETATM   21  C   UNL     1      -8.998  12.571  68.094  1.00  0.00    -0.199 C  
HETATM   22  N   UNL     1      -9.290  13.632  68.939  1.00  0.00    -0.398 N  
HETATM   23  O   UNL     1      -8.720  12.692  66.906  1.00  0.00    -0.204 OA 
HETATM   24  H   UNL     1      -9.573  13.440  69.900  1.00  0.00     0.000 HD 
BRANCH  22  25
HETATM   25  C   UNL     1      -9.204  14.986  68.496  1.00  0.00    -0.192 A  
HETATM   26  C   UNL     1     -10.218  15.590  67.736  1.00  0.00    -0.243 A  
HETATM   27  I   UNL     1     -11.835  14.536  66.865  1.00  0.00    -0.154 I  
HETATM   28  C   UNL     1     -10.116  16.931  67.354  1.00  0.00    -0.279 A  
HETATM   29  C   UNL     1      -8.971  17.680  67.661  1.00  0.00    -0.240 A  
HETATM   30  I   UNL     1      -8.986  19.645  66.881  1.00  0.00    -0.497 I  
HETATM   31  C   UNL     1      -7.907  17.098  68.372  1.00  0.00    -0.244 A  
HETATM   32  C   UNL     1      -6.639  17.845  68.616  1.00  0.00    -0.220 C  
HETATM   33  C   UNL     1      -8.038  15.746  68.789  1.00  0.00    -0.179 A  
HETATM   34  O   UNL     1      -5.536  17.372  68.409  1.00  0.00    -0.141 OA 
HETATM   35  I   UNL     1      -6.535  14.790  70.013  1.00  0.00    -0.027 I  
HETATM   36  O   UNL     1      -6.798  19.085  69.127  1.00  0.00    -0.299 OA 
ENDBRANCH  22  25
ENDBRANCH  20  21
ENDBRANCH  19  20
ENDBRANCH  18  19
ENDBRANCH  17  18
ENDBRANCH  15  17
ENDBRANCH   7  13
TORSDOF 7
ENDMDL
MODEL      104
REMARK 921   NORMALIZED FREE ENERGY PREDICTED BY IDOCK:   -4.50 KCAL/MOL
REMARK 922        TOTAL FREE ENERGY PREDICTED BY IDOCK:   -7.26 KCAL/MOL
REMARK 923 INTER-LIGAND FREE ENERGY PREDICTED BY IDOCK:   -5.92 KCAL/MOL
REMARK 924 INTRA-LIGAND FREE ENERGY PREDICTED BY IDOCK:   -1.34 KCAL/MOL
REMARK 927      BINDING AFFINITY PREDICTED BY RF-SCORE:    0.00 PKD
ROOT
HETATM    1  O   UNL     1     -10.253  16.504  65.451  1.00  0.00    -0.566 OA 
HETATM    2  C   UNL     1     -10.395  15.973  66.686  1.00  0.00    -0.298 C  
HETATM    3  C   UNL     1     -10.228  14.496  66.748  1.00  0.00    -0.266 A  
HETATM    4  O   UNL     1     -10.590  16.667  67.668  1.00  0.00    -0.316 OA 
HETATM    5  C   UNL     1      -9.385  13.901  67.725  1.00  0.00    -0.204 A  
HETATM    6  I   UNL     1      -8.165  15.108  69.038  1.00  0.00    -0.170 I  
HETATM    7  C   UNL     1      -9.239  12.488  67.824  1.00  0.00    -0.198 A  
HETATM    8  I   UNL     1     -12.375  14.303  64.472  1.00  0.00    -0.115 I  
HETATM    9  C   UNL     1      -9.967  11.675  66.937  1.00  0.00    -0.202 A  
HETATM   10  C   UNL     1     -10.945  13.647  65.886  1.00  0.00    -0.282 A  
HETATM   11  C   UNL     1     -10.798  12.256  65.969  1.00  0.00    -0.310 A  
HETATM   12  I   UNL     1     -10.116   9.575  67.092  1.00  0.00    -0.326 I  
ENDROOT
BRANCH   7  13
HETATM   13  N   UNL     1      -8.426  11.956  68.870  1.00  0.00    -0.368 N  
HETATM   14  O   UNL     1      -6.548  11.527  67.577  1.00  0.00    -0.071 OA 
HETATM   15  C   UNL     1      -7.123  11.530  68.662  1.00  0.00    -0.098 C  
HETATM   16  H   UNL     1      -8.819  11.887  69.809  1.00  0.00     0.000 HD 
BRANCH  15  17
HETATM   17  C   UNL     1      -6.371  11.197  69.944  1.00  0.00    -0.141 C  
BRANCH  17  18
HETATM   18  C   UNL     1      -6.361   9.686  70.167  1.00  0.00    -0.069 C  
BRANCH  18  19
HETATM   19  C   UNL     1      -7.488   9.158  71.061  1.00  0.00    -0.120 C  
BRANCH  19  20
HETATM   20  C   UNL     1      -7.537   7.635  71.214  1.00  0.00    -0.080 C  
BRANCH  20  21
HETATM   21  C   UNL     1      -8.233   6.998  70.015  1.00  0.00    -0.133 C  
HETATM   22  N   UNL     1      -7.387   6.232  69.226  1.00  0.00    -0.089 N  
HETATM   23  O   UNL     1      -9.409   7.223  69.751  1.00  0.00    -0.151 OA 
HETATM   24  H   UNL     1      -6.405   6.146  69.486  1.00  0.00     0.000 HD 
BRANCH  22  25
HETATM   25  C   UNL     1      -7.860   5.560  68.059  1.00  0.00    -0.096 A  
HETATM   26  C   UNL     1      -8.706   4.442  68.130  1.00  0.00    -0.101 A  
HETATM   27  I   UNL     1      -9.139   3.395  69.920  1.00  0.00    -0.225 I  
HETATM   28  C   UNL     1      -9.181   3.835  66.964  1.00  0.00    -0.202 A  
HETATM   29  C   UNL     1      -8.769   4.285  65.702  1.00  0.00    -0.120 A  
HETATM   30  I   UNL     1      -9.518   3.144  64.088  1.00  0.00    -0.156 I  
HETATM   31  C   UNL     1      -7.878   5.366  65.585  1.00  0.00    -0.100 A  
HETATM   32  C   UNL     1      -7.346   5.791  64.257  1.00  0.00    -0.066 C  
HETATM   33  C   UNL     1      -7.432   6.001  66.776  1.00  0.00    -0.087 A  
HETATM   34  O   UNL     1      -6.165   6.000  64.048  1.00  0.00    -0.028 OA 
HETATM   35  I   UNL     1      -6.180   7.762  66.719  1.00  0.00    -0.052 I  
HETATM   36  O   UNL     1      -8.282   5.971  63.300  1.00  0.00    -0.109 OA 
ENDBRANCH  22  25
ENDBRANCH  20  21
ENDBRANCH  19  20
ENDBRANCH  18  19
ENDBRANCH  17  18
ENDBRANCH  15  17
ENDBRANCH   7  13
TORSDOF 7
ENDMDL
MODEL      105
REMARK 921   NORMALIZED FREE ENERGY PREDICTED BY IDOCK:   -4.50 KCAL/MOL
REMARK 922        TOTAL FREE ENERGY PREDICTED BY IDOCK:   -7.26 KCAL/MOL
REMARK 923 INTER-LIGAND FREE ENERGY PREDICTED BY IDOCK:   -6.30 KCAL/MOL
REMARK 924 INTRA-LIGAND FREE ENERGY PREDICTED BY IDOCK:   -0.96 KCAL/MOL
REMARK 927      BINDING AFFINITY PREDICTED BY RF-SCORE:    0.00 PKD
ROOT
HETATM    1  O   UNL     1      -8.252   5.067  63.798  1.00  0.00    -0.112 OA 
HETATM    2  C   UNL     1      -8.465   4.809  65.107  1.00  0.00    -0.135 C  
HETATM    3  C   UNL     1      -7.828   5.777  66.040  1.00  0.00    -0.101 A  
HETATM    4  O   UNL     1      -9.169   3.886  65.476  1.00  0.00    -0.136 OA 
HETATM    5  C   UNL     1      -8.571   6.355  67.104  1.00  0.00    -0.111 A  
HETATM    6  I   UNL     1     -10.695   6.009  67.307  1.00  0.00    -0.278 I  
HETATM    7  C   UNL     1      -7.973   7.256  68.030  1.00  0.00    -0.119 A  
HETATM    8  I   UNL     1      -5.133   5.232  64.537  1.00  0.00    -0.010 I  
HETATM    9  C   UNL     1      -6.606   7.557  67.884  1.00  0.00    -0.058 A  
HETATM   10  C   UNL     1      -6.463   6.097  65.935  1.00  0.00    -0.046 A  
HETATM   11  C   UNL     1      -5.869   6.992  66.834  1.00  0.00    -0.026 A  
HETATM   12  I   UNL     1      -5.463   8.633  69.296  1.00  0.00    -0.036 I  
ENDROOT
BRANCH   7  13
HETATM   13  N   UNL     1      -8.761   7.749  69.113  1.00  0.00    -0.138 N  
HETATM   14  O   UNL     1      -8.144   6.140  70.667  1.00  0.00    -0.112 OA 
HETATM   15  C   UNL     1      -8.769   7.154  70.365  1.00  0.00    -0.150 C  
HETATM   16  H   UNL     1      -9.342   8.574  68.959  1.00  0.00     0.000 HD 
BRANCH  15  17
HETATM   17  C   UNL     1      -9.510   7.958  71.426  1.00  0.00    -0.182 C  
BRANCH  17  18
HETATM   18  C   UNL     1     -10.976   7.534  71.474  1.00  0.00    -0.256 C  
BRANCH  18  19
HETATM   19  C   UNL     1     -11.951   8.503  70.797  1.00  0.00    -0.129 C  
BRANCH  19  20
HETATM   20  C   UNL     1     -11.876   9.951  71.291  1.00  0.00    -0.479 C  
BRANCH  20  21
HETATM   21  C   UNL     1     -12.078  10.923  70.133  1.00  0.00    -0.349 C  
HETATM   22  N   UNL     1     -10.951  11.677  69.839  1.00  0.00    -0.454 N  
HETATM   23  O   UNL     1     -13.165  11.064  69.585  1.00  0.00     0.136 OA 
HETATM   24  H   UNL     1     -10.102  11.538  70.387  1.00  0.00     0.000 HD 
BRANCH  22  25
HETATM   25  C   UNL     1     -10.951  12.642  68.788  1.00  0.00    -0.249 A  
HETATM   26  C   UNL     1     -11.072  14.018  69.035  1.00  0.00    -0.264 A  
HETATM   27  I   UNL     1     -11.593  14.844  70.915  1.00  0.00    -0.259 I  
HETATM   28  C   UNL     1     -11.028  14.937  67.982  1.00  0.00    -0.282 A  
HETATM   29  C   UNL     1     -10.932  14.500  66.653  1.00  0.00    -0.321 A  
HETATM   30  I   UNL     1     -11.004  16.055  65.223  1.00  0.00    -0.041 I  
HETATM   31  C   UNL     1     -10.866  13.127  66.356  1.00  0.00    -0.299 A  
HETATM   32  C   UNL     1     -10.869  12.640  64.945  1.00  0.00    -0.298 C  
HETATM   33  C   UNL     1     -10.871  12.205  67.436  1.00  0.00    -0.245 A  
HETATM   34  O   UNL     1     -11.591  11.741  64.553  1.00  0.00    -0.301 OA 
HETATM   35  I   UNL     1     -10.625  10.082  67.113  1.00  0.00    -0.164 I  
HETATM   36  O   UNL     1      -9.977  13.245  64.132  1.00  0.00    -0.294 OA 
ENDBRANCH  22  25
ENDBRANCH  20  21
ENDBRANCH  19  20
ENDBRANCH  18  19
ENDBRANCH  17  18
ENDBRANCH  15  17
ENDBRANCH   7  13
TORSDOF 7
ENDMDL
MODEL      106
REMARK 921   NORMALIZED FREE ENERGY PREDICTED BY IDOCK:   -4.49 KCAL/MOL
REMARK 922        TOTAL FREE ENERGY PREDICTED BY IDOCK:   -7.25 KCAL/MOL
REMARK 923 INTER-LIGAND FREE ENERGY PREDICTED BY IDOCK:   -6.58 KCAL/MOL
REMARK 924 INTRA-LIGAND FREE ENERGY PREDICTED BY IDOCK:   -0.66 KCAL/MOL
REMARK 927      BINDING AFFINITY PREDICTED BY RF-SCORE:    0.00 PKD
ROOT
HETATM    1  O   UNL     1     -11.069  19.037  67.133  1.00  0.00    -0.358 OA 
HETATM    2  C   UNL     1     -10.591  18.275  66.125  1.00  0.00    -0.303 C  
HETATM    3  C   UNL     1      -9.843  17.067  66.563  1.00  0.00    -0.305 A  
HETATM    4  O   UNL     1     -10.810  18.541  64.957  1.00  0.00    -0.596 OA 
HETATM    5  C   UNL     1     -10.127  15.793  66.000  1.00  0.00    -0.337 A  
HETATM    6  I   UNL     1     -11.774  15.515  64.629  1.00  0.00     0.165 I  
HETATM    7  C   UNL     1      -9.399  14.630  66.379  1.00  0.00    -0.284 A  
HETATM    8  I   UNL     1      -8.094  18.969  68.336  1.00  0.00    -0.386 I  
HETATM    9  C   UNL     1      -8.365  14.765  67.324  1.00  0.00    -0.212 A  
HETATM   10  C   UNL     1      -8.796  17.159  67.497  1.00  0.00    -0.216 A  
HETATM   11  C   UNL     1      -8.082  16.018  67.885  1.00  0.00    -0.149 A  
HETATM   12  I   UNL     1      -6.988  13.240  67.811  1.00  0.00    -0.149 I  
ENDROOT
BRANCH   7  13
HETATM   13  N   UNL     1      -9.694  13.395  65.727  1.00  0.00    -0.465 N  
HETATM   14  O   UNL     1     -10.951  12.463  67.441  1.00  0.00    -0.236 OA 
HETATM   15  C   UNL     1     -10.471  12.407  66.312  1.00  0.00    -0.245 C  
HETATM   16  H   UNL     1      -9.318  13.233  64.793  1.00  0.00     0.000 HD 
BRANCH  15  17
HETATM   17  C   UNL     1     -10.834  11.268  65.368  1.00  0.00    -0.255 C  
BRANCH  17  18
HETATM   18  C   UNL     1      -9.574  10.513  64.949  1.00  0.00    -0.334 C  
BRANCH  18  19
HETATM   19  C   UNL     1      -9.516   9.051  65.404  1.00  0.00    -0.163 C  
BRANCH  19  20
HETATM   20  C   UNL     1      -9.923   8.806  66.860  1.00  0.00    -0.327 C  
BRANCH  20  21
HETATM   21  C   UNL     1      -8.930   7.873  67.545  1.00  0.00    -0.127 C  
HETATM   22  N   UNL     1      -9.497   7.099  68.548  1.00  0.00    -0.139 N  
HETATM   23  O   UNL     1      -7.735   7.883  67.272  1.00  0.00    -0.101 OA 
HETATM   24  H   UNL     1     -10.491   7.198  68.751  1.00  0.00     0.000 HD 
BRANCH  22  25
HETATM   25  C   UNL     1      -8.721   6.169  69.301  1.00  0.00    -0.122 A  
HETATM   26  C   UNL     1      -8.234   6.465  70.584  1.00  0.00    -0.125 A  
HETATM   27  I   UNL     1      -8.282   8.397  71.453  1.00  0.00    -0.214 I  
HETATM   28  C   UNL     1      -7.511   5.513  71.308  1.00  0.00    -0.097 A  
HETATM   29  C   UNL     1      -7.198   4.269  70.743  1.00  0.00    -0.041 A  
HETATM   30  I   UNL     1      -5.997   3.037  71.972  1.00  0.00    -0.014 I  
HETATM   31  C   UNL     1      -7.617   3.951  69.439  1.00  0.00    -0.053 A  
HETATM   32  C   UNL     1      -7.204   2.676  68.783  1.00  0.00    -0.048 C  
HETATM   33  C   UNL     1      -8.385   4.911  68.727  1.00  0.00    -0.083 A  
HETATM   34  O   UNL     1      -6.754   2.623  67.652  1.00  0.00    -0.039 OA 
HETATM   35  I   UNL     1      -9.209   4.479  66.777  1.00  0.00    -0.189 I  
HETATM   36  O   UNL     1      -7.402   1.564  69.524  1.00  0.00    -0.036 OA 
ENDBRANCH  22  25
ENDBRANCH  20  21
ENDBRANCH  19  20
ENDBRANCH  18  19
ENDBRANCH  17  18
ENDBRANCH  15  17
ENDBRANCH   7  13
TORSDOF 7
ENDMDL
MODEL      107
REMARK 921   NORMALIZED FREE ENERGY PREDICTED BY IDOCK:   -4.48 KCAL/MOL
REMARK 922        TOTAL FREE ENERGY PREDICTED BY IDOCK:   -7.24 KCAL/MOL
REMARK 923 INTER-LIGAND FREE ENERGY PREDICTED BY IDOCK:   -5.78 KCAL/MOL
REMARK 924 INTRA-LIGAND FREE ENERGY PREDICTED BY IDOCK:   -1.45 KCAL/MOL
REMARK 927      BINDING AFFINITY PREDICTED BY RF-SCORE:    0.00 PKD
ROOT
HETATM    1  O   UNL     1     -13.040  12.599  64.717  1.00  0.00    -0.852 OA 
HETATM    2  C   UNL     1     -11.759  12.189  64.850  1.00  0.00    -0.313 C  
HETATM    3  C   UNL     1     -10.980  12.919  65.886  1.00  0.00    -0.300 A  
HETATM    4  O   UNL     1     -11.310  11.259  64.205  1.00  0.00    -0.273 OA 
HETATM    5  C   UNL     1     -10.211  12.211  66.849  1.00  0.00    -0.208 A  
HETATM    6  I   UNL     1     -10.284  10.055  66.978  1.00  0.00    -0.293 I  
HETATM    7  C   UNL     1      -9.430  12.891  67.827  1.00  0.00    -0.202 A  
HETATM    8  I   UNL     1     -11.858  15.573  64.470  1.00  0.00     0.285 I  
HETATM    9  C   UNL     1      -9.416  14.297  67.814  1.00  0.00    -0.216 A  
HETATM   10  C   UNL     1     -10.931  14.324  65.902  1.00  0.00    -0.304 A  
HETATM   11  C   UNL     1     -10.174  15.001  66.868  1.00  0.00    -0.258 A  
HETATM   12  I   UNL     1      -8.119  15.488  68.978  1.00  0.00    -0.253 I  
ENDROOT
BRANCH   7  13
HETATM   13  N   UNL     1      -8.632  12.118  68.723  1.00  0.00    -0.367 N  
HETATM   14  O   UNL     1      -6.671  12.185  67.484  1.00  0.00    -0.101 OA 
HETATM   15  C   UNL     1      -7.295  11.839  68.484  1.00  0.00    -0.103 C  
HETATM   16  H   UNL     1      -9.062  11.756  69.574  1.00  0.00     0.000 HD 
BRANCH  15  17
HETATM   17  C   UNL     1      -6.581  11.184  69.659  1.00  0.00    -0.139 C  
BRANCH  17  18
HETATM   18  C   UNL     1      -5.395  10.363  69.160  1.00  0.00    -0.038 C  
BRANCH  18  19
HETATM   19  C   UNL     1      -5.147   9.057  69.922  1.00  0.00    -0.029 C  
BRANCH  19  20
HETATM   20  C   UNL     1      -6.406   8.370  70.462  1.00  0.00    -0.035 C  
BRANCH  20  21
HETATM   21  C   UNL     1      -6.854   7.257  69.520  1.00  0.00    -0.050 C  
HETATM   22  N   UNL     1      -7.662   7.699  68.482  1.00  0.00    -0.116 N  
HETATM   23  O   UNL     1      -6.580   6.080  69.728  1.00  0.00    -0.043 OA 
HETATM   24  H   UNL     1      -7.891   8.691  68.418  1.00  0.00     0.000 HD 
BRANCH  22  25
HETATM   25  C   UNL     1      -8.180   6.800  67.503  1.00  0.00    -0.122 A  
HETATM   26  C   UNL     1      -9.379   6.096  67.694  1.00  0.00    -0.112 A  
HETATM   27  I   UNL     1     -10.415   5.995  69.539  1.00  0.00    -0.430 I  
HETATM   28  C   UNL     1      -9.875   5.253  66.694  1.00  0.00    -0.198 A  
HETATM   29  C   UNL     1      -9.153   5.040  65.512  1.00  0.00    -0.158 A  
HETATM   30  I   UNL     1     -10.035   3.638  64.199  1.00  0.00    -0.194 I  
HETATM   31  C   UNL     1      -7.919   5.681  65.304  1.00  0.00    -0.114 A  
HETATM   32  C   UNL     1      -7.087   5.386  64.100  1.00  0.00    -0.049 C  
HETATM   33  C   UNL     1      -7.444   6.566  66.309  1.00  0.00    -0.081 A  
HETATM   34  O   UNL     1      -5.895   5.143  64.158  1.00  0.00    -0.017 OA 
HETATM   35  I   UNL     1      -5.636   7.720  66.037  1.00  0.00    -0.033 I  
HETATM   36  O   UNL     1      -7.746   5.448  62.923  1.00  0.00    -0.066 OA 
ENDBRANCH  22  25
ENDBRANCH  20  21
ENDBRANCH  19  20
ENDBRANCH  18  19
ENDBRANCH  17  18
ENDBRANCH  15  17
ENDBRANCH   7  13
TORSDOF 7
ENDMDL
MODEL      108
REMARK 921   NORMALIZED FREE ENERGY PREDICTED BY IDOCK:   -4.46 KCAL/MOL
REMARK 922        TOTAL FREE ENERGY PREDICTED BY IDOCK:   -7.21 KCAL/MOL
REMARK 923 INTER-LIGAND FREE ENERGY PREDICTED BY IDOCK:   -6.16 KCAL/MOL
REMARK 924 INTRA-LIGAND FREE ENERGY PREDICTED BY IDOCK:   -1.04 KCAL/MOL
REMARK 927      BINDING AFFINITY PREDICTED BY RF-SCORE:    0.00 PKD
ROOT
HETATM    1  O   UNL     1      -7.370   5.500  63.288  1.00  0.00    -0.046 OA 
HETATM    2  C   UNL     1      -7.941   6.428  64.086  1.00  0.00    -0.096 C  
HETATM    3  C   UNL     1      -8.236   5.961  65.467  1.00  0.00    -0.137 A  
HETATM    4  O   UNL     1      -8.144   7.568  63.706  1.00  0.00    -0.114 OA 
HETATM    5  C   UNL     1      -7.853   6.739  66.594  1.00  0.00    -0.107 A  
HETATM    6  I   UNL     1      -6.669   8.532  66.368  1.00  0.00    -0.072 I  
HETATM    7  C   UNL     1      -8.157   6.329  67.923  1.00  0.00    -0.114 A  
HETATM    8  I   UNL     1      -9.760   3.548  64.173  1.00  0.00    -0.198 I  
HETATM    9  C   UNL     1      -8.867   5.129  68.108  1.00  0.00    -0.102 A  
HETATM   10  C   UNL     1      -8.952   4.773  65.696  1.00  0.00    -0.142 A  
HETATM   11  C   UNL     1      -9.244   4.355  67.001  1.00  0.00    -0.154 A  
HETATM   12  I   UNL     1      -9.660   4.483  69.955  1.00  0.00    -0.282 I  
ENDROOT
BRANCH   7  13
HETATM   13  N   UNL     1      -7.800   7.190  69.003  1.00  0.00    -0.112 N  
HETATM   14  O   UNL     1      -9.846   8.267  69.193  1.00  0.00    -0.172 OA 
HETATM   15  C   UNL     1      -8.691   8.088  69.570  1.00  0.00    -0.136 C  
HETATM   16  H   UNL     1      -6.851   7.142  69.375  1.00  0.00     0.000 HD 
BRANCH  15  17
HETATM   17  C   UNL     1      -8.173   8.755  70.838  1.00  0.00    -0.189 C  
BRANCH  17  18
HETATM   18  C   UNL     1      -7.004   9.678  70.504  1.00  0.00    -0.133 C  
BRANCH  18  19
HETATM   19  C   UNL     1      -7.346  10.838  69.563  1.00  0.00    -0.125 C  
BRANCH  19  20
HETATM   20  C   UNL     1      -6.144  11.646  69.063  1.00  0.00    -0.057 C  
BRANCH  20  21
HETATM   21  C   UNL     1      -6.606  12.931  68.384  1.00  0.00    -0.085 C  
HETATM   22  N   UNL     1      -7.563  13.628  69.109  1.00  0.00    -0.324 N  
HETATM   23  O   UNL     1      -6.216  13.253  67.267  1.00  0.00    -0.309 OA 
HETATM   24  H   UNL     1      -7.877  13.255  70.004  1.00  0.00     0.000 HD 
BRANCH  22  25
HETATM   25  C   UNL     1      -8.116  14.852  68.630  1.00  0.00    -0.151 A  
HETATM   26  C   UNL     1      -9.292  14.894  67.866  1.00  0.00    -0.191 A  
HETATM   27  I   UNL     1     -10.230  13.184  67.038  1.00  0.00    -0.264 I  
HETATM   28  C   UNL     1      -9.827  16.117  67.448  1.00  0.00    -0.238 A  
HETATM   29  C   UNL     1      -9.163  17.321  67.724  1.00  0.00    -0.239 A  
HETATM   30  I   UNL     1     -10.090  19.030  66.895  1.00  0.00    -0.578 I  
HETATM   31  C   UNL     1      -7.952  17.321  68.439  1.00  0.00    -0.253 A  
HETATM   32  C   UNL     1      -7.179  18.580  68.650  1.00  0.00    -0.287 C  
HETATM   33  C   UNL     1      -7.439  16.076  68.892  1.00  0.00    -0.188 A  
HETATM   34  O   UNL     1      -5.982  18.669  68.445  1.00  0.00    -0.192 OA 
HETATM   35  I   UNL     1      -5.667  15.964  70.124  1.00  0.00    -0.052 I  
HETATM   36  O   UNL     1      -7.899  19.616  69.131  1.00  0.00    -0.328 OA 
ENDBRANCH  22  25
ENDBRANCH  20  21
ENDBRANCH  19  20
ENDBRANCH  18  19
ENDBRANCH  17  18
ENDBRANCH  15  17
ENDBRANCH   7  13
TORSDOF 7
ENDMDL
MODEL      109
REMARK 921   NORMALIZED FREE ENERGY PREDICTED BY IDOCK:   -4.43 KCAL/MOL
REMARK 922        TOTAL FREE ENERGY PREDICTED BY IDOCK:   -7.17 KCAL/MOL
REMARK 923 INTER-LIGAND FREE ENERGY PREDICTED BY IDOCK:   -6.10 KCAL/MOL
REMARK 924 INTRA-LIGAND FREE ENERGY PREDICTED BY IDOCK:   -1.07 KCAL/MOL
REMARK 927      BINDING AFFINITY PREDICTED BY RF-SCORE:    0.00 PKD
ROOT
HETATM    1  O   UNL     1     -11.508   4.650  73.333  1.00  0.00    -0.328 OA 
HETATM    2  C   UNL     1     -10.473   5.501  73.505  1.00  0.00    -0.253 C  
HETATM    3  C   UNL     1      -9.348   5.309  72.550  1.00  0.00    -0.154 A  
HETATM    4  O   UNL     1     -10.496   6.383  74.345  1.00  0.00    -0.304 OA 
HETATM    5  C   UNL     1      -8.788   6.417  71.857  1.00  0.00    -0.138 A  
HETATM    6  I   UNL     1      -9.656   8.390  72.009  1.00  0.00    -0.370 I  
HETATM    7  C   UNL     1      -7.689   6.262  70.966  1.00  0.00    -0.105 A  
HETATM    8  I   UNL     1      -9.330   2.293  73.399  1.00  0.00    -0.127 I  
HETATM    9  C   UNL     1      -7.145   4.976  70.791  1.00  0.00    -0.056 A  
HETATM   10  C   UNL     1      -8.769   4.044  72.354  1.00  0.00    -0.106 A  
HETATM   11  C   UNL     1      -7.695   3.880  71.470  1.00  0.00    -0.061 A  
HETATM   12  I   UNL     1      -5.354   4.570  69.748  1.00  0.00    -0.009 I  
ENDROOT
BRANCH   7  13
HETATM   13  N   UNL     1      -7.135   7.425  70.353  1.00  0.00    -0.063 N  
HETATM   14  O   UNL     1      -8.145   7.160  68.280  1.00  0.00    -0.121 OA 
HETATM   15  C   UNL     1      -7.427   7.794  69.049  1.00  0.00    -0.095 C  
HETATM   16  H   UNL     1      -6.500   8.009  70.896  1.00  0.00     0.000 HD 
BRANCH  15  17
HETATM   17  C   UNL     1      -6.901   9.171  68.665  1.00  0.00    -0.062 C  
BRANCH  17  18
HETATM   18  C   UNL     1      -6.579   9.212  67.173  1.00  0.00    -0.061 C  
BRANCH  18  19
HETATM   19  C   UNL     1      -7.450  10.166  66.350  1.00  0.00    -0.108 C  
BRANCH  19  20
HETATM   20  C   UNL     1      -8.903  10.290  66.821  1.00  0.00    -0.143 C  
BRANCH  20  21
HETATM   21  C   UNL     1      -9.230  11.738  67.173  1.00  0.00    -0.179 C  
HETATM   22  N   UNL     1      -8.496  12.664  66.446  1.00  0.00    -0.402 N  
HETATM   23  O   UNL     1     -10.011  12.028  68.072  1.00  0.00    -0.185 OA 
HETATM   24  H   UNL     1      -7.820  12.334  65.757  1.00  0.00     0.000 HD 
BRANCH  22  25
HETATM   25  C   UNL     1      -8.664  14.068  66.640  1.00  0.00    -0.028 A  
HETATM   26  C   UNL     1      -9.765  14.768  66.122  1.00  0.00    -0.312 A  
HETATM   27  I   UNL     1     -11.140  13.955  64.731  1.00  0.00    -0.389 I  
HETATM   28  C   UNL     1      -9.916  16.136  66.367  1.00  0.00    -0.315 A  
HETATM   29  C   UNL     1      -8.939  16.851  67.075  1.00  0.00    -0.215 A  
HETATM   30  I   UNL     1      -9.319  18.925  67.221  1.00  0.00    -0.381 I  
HETATM   31  C   UNL     1      -7.792  16.200  67.562  1.00  0.00    -0.169 A  
HETATM   32  C   UNL     1      -6.693  16.962  68.225  1.00  0.00    -0.159 C  
HETATM   33  C   UNL     1      -7.668  14.802  67.342  1.00  0.00    -0.204 A  
HETATM   34  O   UNL     1      -5.517  16.818  67.941  1.00  0.00    -0.108 OA 
HETATM   35  I   UNL     1      -6.025  13.668  68.171  1.00  0.00    -0.138 I  
HETATM   36  O   UNL     1      -7.093  17.804  69.202  1.00  0.00    -0.248 OA 
ENDBRANCH  22  25
ENDBRANCH  20  21
ENDBRANCH  19  20
ENDBRANCH  18  19
ENDBRANCH  17  18
ENDBRANCH  15  17
ENDBRANCH   7  13
TORSDOF 7
ENDMDL
MODEL      110
REMARK 921   NORMALIZED FREE ENERGY PREDICTED BY IDOCK:   -4.43 KCAL/MOL
REMARK 922        TOTAL FREE ENERGY PREDICTED BY IDOCK:   -7.16 KCAL/MOL
REMARK 923 INTER-LIGAND FREE ENERGY PREDICTED BY IDOCK:   -6.15 KCAL/MOL
REMARK 924 INTRA-LIGAND FREE ENERGY PREDICTED BY IDOCK:   -1.01 KCAL/MOL
REMARK 927      BINDING AFFINITY PREDICTED BY RF-SCORE:    0.00 PKD
ROOT
HETATM    1  O   UNL     1      -7.742   1.618  62.908  1.00  0.00    -0.051 OA 
HETATM    2  C   UNL     1      -7.426   2.926  63.023  1.00  0.00    -0.054 C  
HETATM    3  C   UNL     1      -8.159   3.648  64.097  1.00  0.00    -0.089 A  
HETATM    4  O   UNL     1      -6.569   3.446  62.330  1.00  0.00    -0.021 OA 
HETATM    5  C   UNL     1      -7.463   4.470  65.024  1.00  0.00    -0.073 A  
HETATM    6  I   UNL     1      -5.305   4.565  65.040  1.00  0.00    -0.014 I  
HETATM    7  C   UNL     1      -8.149   5.198  66.038  1.00  0.00    -0.109 A  
HETATM    8  I   UNL     1     -10.808   2.564  62.820  1.00  0.00    -0.139 I  
HETATM    9  C   UNL     1      -9.551   5.103  66.099  1.00  0.00    -0.164 A  
HETATM   10  C   UNL     1      -9.561   3.588  64.188  1.00  0.00    -0.156 A  
HETATM   11  C   UNL     1     -10.243   4.291  65.189  1.00  0.00    -0.228 A  
HETATM   12  I   UNL     1     -10.777   6.305  67.328  1.00  0.00    -0.425 I  
ENDROOT
BRANCH   7  13
HETATM   13  N   UNL     1      -7.395   6.055  66.895  1.00  0.00    -0.075 N  
HETATM   14  O   UNL     1      -7.626   7.989  65.634  1.00  0.00    -0.078 OA 
HETATM   15  C   UNL     1      -7.207   7.402  66.628  1.00  0.00    -0.080 C  
HETATM   16  H   UNL     1      -6.977   5.660  67.737  1.00  0.00     0.000 HD 
BRANCH  15  17
HETATM   17  C   UNL     1      -6.555   8.172  67.770  1.00  0.00    -0.057 C  
BRANCH  17  18
HETATM   18  C   UNL     1      -7.627   8.794  68.662  1.00  0.00    -0.097 C  
BRANCH  18  19
HETATM   19  C   UNL     1      -7.879  10.286  68.422  1.00  0.00    -0.102 C  
BRANCH  19  20
HETATM   20  C   UNL     1      -9.105  10.608  67.562  1.00  0.00    -0.144 C  
BRANCH  20  21
HETATM   21  C   UNL     1      -9.474  12.083  67.685  1.00  0.00    -0.185 C  
HETATM   22  N   UNL     1      -8.825  12.896  66.766  1.00  0.00    -0.355 N  
HETATM   23  O   UNL     1     -10.213  12.497  68.572  1.00  0.00    -0.228 OA 
HETATM   24  H   UNL     1      -8.178  12.475  66.100  1.00  0.00     0.000 HD 
BRANCH  22  25
HETATM   25  C   UNL     1      -9.043  14.305  66.732  1.00  0.00    -0.249 A  
HETATM   26  C   UNL     1     -10.088  14.883  65.994  1.00  0.00    -0.311 A  
HETATM   27  I   UNL     1     -11.272  13.829  64.589  1.00  0.00    -0.373 I  
HETATM   28  C   UNL     1     -10.294  16.266  66.017  1.00  0.00    -0.363 A  
HETATM   29  C   UNL     1      -9.423  17.110  66.719  1.00  0.00    -0.267 A  
HETATM   30  I   UNL     1      -9.858  19.169  66.514  1.00  0.00    -0.527 I  
HETATM   31  C   UNL     1      -8.329  16.578  67.425  1.00  0.00    -0.188 A  
HETATM   32  C   UNL     1      -7.332  17.467  68.090  1.00  0.00    -0.218 C  
HETATM   33  C   UNL     1      -8.152  15.169  67.428  1.00  0.00    -0.186 A  
HETATM   34  O   UNL     1      -6.128  17.328  67.967  1.00  0.00    -0.131 OA 
HETATM   35  I   UNL     1      -6.598  14.226  68.597  1.00  0.00    -0.126 I  
HETATM   36  O   UNL     1      -7.861  18.425  68.882  1.00  0.00    -0.288 OA 
ENDBRANCH  22  25
ENDBRANCH  20  21
ENDBRANCH  19  20
ENDBRANCH  18  19
ENDBRANCH  17  18
ENDBRANCH  15  17
ENDBRANCH   7  13
TORSDOF 7
ENDMDL
MODEL      111
REMARK 921   NORMALIZED FREE ENERGY PREDICTED BY IDOCK:   -4.42 KCAL/MOL
REMARK 922        TOTAL FREE ENERGY PREDICTED BY IDOCK:   -7.15 KCAL/MOL
REMARK 923 INTER-LIGAND FREE ENERGY PREDICTED BY IDOCK:   -6.32 KCAL/MOL
REMARK 924 INTRA-LIGAND FREE ENERGY PREDICTED BY IDOCK:   -0.83 KCAL/MOL
REMARK 927      BINDING AFFINITY PREDICTED BY RF-SCORE:    0.00 PKD
ROOT
HETATM    1  O   UNL     1      -8.743   5.928  73.029  1.00  0.00    -0.124 OA 
HETATM    2  C   UNL     1      -7.701   5.786  72.181  1.00  0.00    -0.102 C  
HETATM    3  C   UNL     1      -8.079   5.400  70.795  1.00  0.00    -0.111 A  
HETATM    4  O   UNL     1      -6.554   6.011  72.524  1.00  0.00    -0.064 OA 
HETATM    5  C   UNL     1      -7.549   6.098  69.676  1.00  0.00    -0.093 A  
HETATM    6  I   UNL     1      -6.325   7.861  69.932  1.00  0.00    -0.029 I  
HETATM    7  C   UNL     1      -7.870   5.723  68.341  1.00  0.00    -0.101 A  
HETATM    8  I   UNL     1      -9.687   3.021  72.050  1.00  0.00    -0.195 I  
HETATM    9  C   UNL     1      -8.721   4.622  68.141  1.00  0.00    -0.103 A  
HETATM   10  C   UNL     1      -8.919   4.299  70.550  1.00  0.00    -0.094 A  
HETATM   11  C   UNL     1      -9.250   3.931  69.240  1.00  0.00    -0.224 A  
HETATM   12  I   UNL     1      -9.097   3.729  66.264  1.00  0.00    -0.180 I  
ENDROOT
BRANCH   7  13
HETATM   13  N   UNL     1      -7.251   6.427  67.265  1.00  0.00    -0.076 N  
HETATM   14  O   UNL     1      -9.185   7.371  66.396  1.00  0.00    -0.163 OA 
HETATM   15  C   UNL     1      -7.966   7.219  66.379  1.00  0.00    -0.112 C  
HETATM   16  H   UNL     1      -6.242   6.345  67.143  1.00  0.00     0.000 HD 
BRANCH  15  17
HETATM   17  C   UNL     1      -7.091   8.041  65.442  1.00  0.00    -0.060 C  
BRANCH  17  18
HETATM   18  C   UNL     1      -6.730   9.372  66.097  1.00  0.00    -0.077 C  
BRANCH  18  19
HETATM   19  C   UNL     1      -7.538  10.576  65.602  1.00  0.00    -0.134 C  
BRANCH  19  20
HETATM   20  C   UNL     1      -8.961  10.255  65.132  1.00  0.00    -0.220 C  
BRANCH  20  21
HETATM   21  C   UNL     1      -9.989  10.890  66.063  1.00  0.00    -0.240 C  
HETATM   22  N   UNL     1      -9.625  10.848  67.402  1.00  0.00    -0.163 N  
HETATM   23  O   UNL     1     -11.062  11.316  65.652  1.00  0.00    -0.195 OA 
HETATM   24  H   UNL     1      -8.738  10.419  67.663  1.00  0.00     0.000 HD 
BRANCH  22  25
HETATM   25  C   UNL     1     -10.463  11.392  68.420  1.00  0.00    -0.200 A  
HETATM   26  C   UNL     1     -10.743  12.764  68.506  1.00  0.00    -0.253 A  
HETATM   27  I   UNL     1      -9.738  14.252  67.381  1.00  0.00    -0.254 I  
HETATM   28  C   UNL     1     -11.602  13.255  69.494  1.00  0.00    -0.349 A  
HETATM   29  C   UNL     1     -12.145  12.398  70.461  1.00  0.00    -0.275 A  
HETATM   30  I   UNL     1     -13.316  13.376  71.925  1.00  0.00    -0.402 I  
HETATM   31  C   UNL     1     -11.846  11.024  70.448  1.00  0.00    -0.460 A  
HETATM   32  C   UNL     1     -12.330  10.116  71.528  1.00  0.00    -0.408 C  
HETATM   33  C   UNL     1     -11.005  10.530  69.415  1.00  0.00    -0.250 A  
HETATM   34  O   UNL     1     -11.609   9.318  72.101  1.00  0.00    -0.312 OA 
HETATM   35  I   UNL     1     -10.594   8.419  69.203  1.00  0.00     0.014 I  
HETATM   36  O   UNL     1     -13.649  10.211  71.804  1.00  0.00    -0.309 OA 
ENDBRANCH  22  25
ENDBRANCH  20  21
ENDBRANCH  19  20
ENDBRANCH  18  19
ENDBRANCH  17  18
ENDBRANCH  15  17
ENDBRANCH   7  13
TORSDOF 7
ENDMDL
MODEL      112
REMARK 921   NORMALIZED FREE ENERGY PREDICTED BY IDOCK:   -4.40 KCAL/MOL
REMARK 922        TOTAL FREE ENERGY PREDICTED BY IDOCK:   -7.12 KCAL/MOL
REMARK 923 INTER-LIGAND FREE ENERGY PREDICTED BY IDOCK:   -6.14 KCAL/MOL
REMARK 924 INTRA-LIGAND FREE ENERGY PREDICTED BY IDOCK:   -0.98 KCAL/MOL
REMARK 927      BINDING AFFINITY PREDICTED BY RF-SCORE:    0.00 PKD
ROOT
HETATM    1  O   UNL     1      -9.658  19.745  68.734  1.00  0.00    -0.361 OA 
HETATM    2  C   UNL     1      -9.922  18.588  68.088  1.00  0.00    -0.361 C  
HETATM    3  C   UNL     1      -8.927  17.507  68.321  1.00  0.00    -0.267 A  
HETATM    4  O   UNL     1     -10.927  18.440  67.415  1.00  0.00    -0.351 OA 
HETATM    5  C   UNL     1      -9.349  16.196  68.672  1.00  0.00    -0.222 A  
HETATM    6  I   UNL     1     -11.427  15.753  69.065  1.00  0.00    -0.358 I  
HETATM    7  C   UNL     1      -8.415  15.138  68.865  1.00  0.00    -0.199 A  
HETATM    8  I   UNL     1      -6.716  19.556  67.465  1.00  0.00    -0.253 I  
HETATM    9  C   UNL     1      -7.047  15.411  68.685  1.00  0.00    -0.116 A  
HETATM   10  C   UNL     1      -7.551  17.735  68.142  1.00  0.00    -0.250 A  
HETATM   11  C   UNL     1      -6.625  16.703  68.342  1.00  0.00    -0.140 A  
HETATM   12  I   UNL     1      -5.532  13.940  68.643  1.00  0.00    -0.109 I  
ENDROOT
BRANCH   7  13
HETATM   13  N   UNL     1      -8.911  13.831  69.152  1.00  0.00    -0.277 N  
HETATM   14  O   UNL     1      -9.032  13.086  66.957  1.00  0.00    -0.214 OA 
HETATM   15  C   UNL     1      -9.165  12.893  68.163  1.00  0.00    -0.212 C  
HETATM   16  H   UNL     1      -9.085  13.576  70.124  1.00  0.00     0.000 HD 
BRANCH  15  17
HETATM   17  C   UNL     1      -9.486  11.504  68.698  1.00  0.00    -0.146 C  
BRANCH  17  18
HETATM   18  C   UNL     1      -8.899  10.439  67.775  1.00  0.00    -0.128 C  
BRANCH  18  19
HETATM   19  C   UNL     1      -7.626   9.763  68.296  1.00  0.00    -0.081 C  
BRANCH  19  20
HETATM   20  C   UNL     1      -7.382   8.344  67.773  1.00  0.00    -0.093 C  
BRANCH  20  21
HETATM   21  C   UNL     1      -8.274   7.344  68.501  1.00  0.00    -0.125 C  
HETATM   22  N   UNL     1      -7.829   7.031  69.778  1.00  0.00    -0.112 N  
HETATM   23  O   UNL     1      -9.240   6.819  67.959  1.00  0.00    -0.120 OA 
HETATM   24  H   UNL     1      -6.979   7.470  70.130  1.00  0.00     0.000 HD 
BRANCH  22  25
HETATM   25  C   UNL     1      -8.534   6.111  70.610  1.00  0.00    -0.134 A  
HETATM   26  C   UNL     1      -9.745   6.445  71.237  1.00  0.00    -0.174 A  
HETATM   27  I   UNL     1     -10.532   8.410  71.325  1.00  0.00    -0.347 I  
HETATM   28  C   UNL     1     -10.428   5.503  72.013  1.00  0.00    -0.277 A  
HETATM   29  C   UNL     1      -9.885   4.230  72.237  1.00  0.00    -0.166 A  
HETATM   30  I   UNL     1     -11.030   3.017  73.535  1.00  0.00    -0.194 I  
HETATM   31  C   UNL     1      -8.647   3.873  71.674  1.00  0.00    -0.116 A  
HETATM   32  C   UNL     1      -8.005   2.562  71.987  1.00  0.00    -0.053 C  
HETATM   33  C   UNL     1      -7.981   4.824  70.855  1.00  0.00    -0.082 A  
HETATM   34  O   UNL     1      -6.836   2.454  72.311  1.00  0.00    -0.018 OA 
HETATM   35  I   UNL     1      -6.149   4.337  69.818  1.00  0.00    -0.024 I  
HETATM   36  O   UNL     1      -8.808   1.486  71.844  1.00  0.00    -0.057 OA 
ENDBRANCH  22  25
ENDBRANCH  20  21
ENDBRANCH  19  20
ENDBRANCH  18  19
ENDBRANCH  17  18
ENDBRANCH  15  17
ENDBRANCH   7  13
TORSDOF 7
ENDMDL
MODEL      113
REMARK 921   NORMALIZED FREE ENERGY PREDICTED BY IDOCK:   -4.36 KCAL/MOL
REMARK 922        TOTAL FREE ENERGY PREDICTED BY IDOCK:   -7.07 KCAL/MOL
REMARK 923 INTER-LIGAND FREE ENERGY PREDICTED BY IDOCK:   -5.89 KCAL/MOL
REMARK 924 INTRA-LIGAND FREE ENERGY PREDICTED BY IDOCK:   -1.18 KCAL/MOL
REMARK 927      BINDING AFFINITY PREDICTED BY RF-SCORE:    0.00 PKD
ROOT
HETATM    1  O   UNL     1      -6.726  14.261  68.389  1.00  0.00    -0.088 OA 
HETATM    2  C   UNL     1      -7.380  13.081  68.455  1.00  0.00    -0.116 C  
HETATM    3  C   UNL     1      -8.310  12.825  67.322  1.00  0.00    -0.187 A  
HETATM    4  O   UNL     1      -7.174  12.279  69.347  1.00  0.00     0.043 OA 
HETATM    5  C   UNL     1      -8.285  11.584  66.629  1.00  0.00    -0.156 A  
HETATM    6  I   UNL     1      -6.782  10.091  67.055  1.00  0.00    -0.083 I  
HETATM    7  C   UNL     1      -9.189  11.305  65.566  1.00  0.00    -0.202 A  
HETATM    8  I   UNL     1      -9.603  15.611  67.942  1.00  0.00    -0.206 I  
HETATM    9  C   UNL     1     -10.136  12.285  65.216  1.00  0.00    -0.271 A  
HETATM   10  C   UNL     1      -9.277  13.773  66.947  1.00  0.00    -0.255 A  
HETATM   11  C   UNL     1     -10.164  13.511  65.894  1.00  0.00    -0.306 A  
HETATM   12  I   UNL     1     -11.738  11.973  63.876  1.00  0.00    -0.492 I  
ENDROOT
BRANCH   7  13
HETATM   13  N   UNL     1      -9.152  10.015  64.956  1.00  0.00    -0.192 N  
HETATM   14  O   UNL     1      -7.944  10.628  63.072  1.00  0.00    -0.132 OA 
HETATM   15  C   UNL     1      -8.508   9.775  63.752  1.00  0.00    -0.184 C  
HETATM   16  H   UNL     1      -9.617   9.238  65.426  1.00  0.00     0.000 HD 
BRANCH  15  17
HETATM   17  C   UNL     1      -8.409   8.299  63.389  1.00  0.00    -0.032 C  
BRANCH  17  18
HETATM   18  C   UNL     1      -7.636   7.545  64.469  1.00  0.00    -0.110 C  
BRANCH  18  19
HETATM   19  C   UNL     1      -8.078   6.093  64.684  1.00  0.00    -0.126 C  
BRANCH  19  20
HETATM   20  C   UNL     1      -7.241   5.302  65.695  1.00  0.00    -0.068 C  
BRANCH  20  21
HETATM   21  C   UNL     1      -8.093   4.895  66.893  1.00  0.00    -0.107 C  
HETATM   22  N   UNL     1      -7.735   5.536  68.071  1.00  0.00    -0.091 N  
HETATM   23  O   UNL     1      -8.952   4.024  66.814  1.00  0.00    -0.117 OA 
HETATM   24  H   UNL     1      -6.966   6.204  68.060  1.00  0.00     0.000 HD 
BRANCH  22  25
HETATM   25  C   UNL     1      -8.419   5.280  69.297  1.00  0.00    -0.101 A  
HETATM   26  C   UNL     1      -8.039   4.242  70.163  1.00  0.00    -0.058 A  
HETATM   27  I   UNL     1      -6.649   2.725  69.659  1.00  0.00    -0.034 I  
HETATM   28  C   UNL     1      -8.708   4.047  71.375  1.00  0.00    -0.134 A  
HETATM   29  C   UNL     1      -9.814   4.837  71.719  1.00  0.00    -0.180 A  
HETATM   30  I   UNL     1     -10.739   4.286  73.538  1.00  0.00    -0.381 I  
HETATM   31  C   UNL     1     -10.264   5.850  70.855  1.00  0.00    -0.269 A  
HETATM   32  C   UNL     1     -11.501   6.630  71.154  1.00  0.00    -0.320 C  
HETATM   33  C   UNL     1      -9.553   6.066  69.644  1.00  0.00    -0.148 A  
HETATM   34  O   UNL     1     -12.380   6.826  70.334  1.00  0.00    -0.275 OA 
HETATM   35  I   UNL     1     -10.059   7.687  68.308  1.00  0.00    -0.234 I  
HETATM   36  O   UNL     1     -11.562   7.145  72.401  1.00  0.00    -0.274 OA 
ENDBRANCH  22  25
ENDBRANCH  20  21
ENDBRANCH  19  20
ENDBRANCH  18  19
ENDBRANCH  17  18
ENDBRANCH  15  17
ENDBRANCH   7  13
TORSDOF 7
ENDMDL
MODEL      114
REMARK 921   NORMALIZED FREE ENERGY PREDICTED BY IDOCK:   -4.36 KCAL/MOL
REMARK 922        TOTAL FREE ENERGY PREDICTED BY IDOCK:   -7.07 KCAL/MOL
REMARK 923 INTER-LIGAND FREE ENERGY PREDICTED BY IDOCK:   -7.77 KCAL/MOL
REMARK 924 INTRA-LIGAND FREE ENERGY PREDICTED BY IDOCK:    0.70 KCAL/MOL
REMARK 927      BINDING AFFINITY PREDICTED BY RF-SCORE:    0.00 PKD
ROOT
HETATM    1  O   UNL     1     -10.946  15.800  65.562  1.00  0.00    -0.322 OA 
HETATM    2  C   UNL     1     -10.343  14.989  66.459  1.00  0.00    -0.284 C  
HETATM    3  C   UNL     1     -10.816  15.155  67.860  1.00  0.00    -0.291 A  
HETATM    4  O   UNL     1      -9.519  14.157  66.124  1.00  0.00    -0.272 OA 
HETATM    5  C   UNL     1     -11.176  14.024  68.643  1.00  0.00    -0.268 A  
HETATM    6  I   UNL     1     -11.235  12.040  67.789  1.00  0.00    -0.397 I  
HETATM    7  C   UNL     1     -11.598  14.157  69.996  1.00  0.00    -0.248 A  
HETATM    8  I   UNL     1     -10.219  18.215  67.547  1.00  0.00    -0.428 I  
HETATM    9  C   UNL     1     -11.638  15.445  70.562  1.00  0.00    -0.326 A  
HETATM   10  C   UNL     1     -10.862  16.422  68.466  1.00  0.00    -0.339 A  
HETATM   11  C   UNL     1     -11.287  16.564  69.794  1.00  0.00    -0.059 A  
HETATM   12  I   UNL     1     -11.956  15.838  72.612  1.00  0.00    -0.583 I  
ENDROOT
BRANCH   7  13
HETATM   13  N   UNL     1     -11.882  12.976  70.744  1.00  0.00    -0.455 N  
HETATM   14  O   UNL     1     -14.050  13.540  71.351  1.00  0.00     0.040 OA 
HETATM   15  C   UNL     1     -13.107  12.752  71.354  1.00  0.00    -0.227 C  
HETATM   16  H   UNL     1     -11.155  12.266  70.833  1.00  0.00     0.000 HD 
BRANCH  15  17
HETATM   17  C   UNL     1     -13.269  11.347  71.917  1.00  0.00    -0.485 C  
BRANCH  17  18
HETATM   18  C   UNL     1     -12.640  10.327  70.970  1.00  0.00    -0.487 C  
BRANCH  18  19
HETATM   19  C   UNL     1     -12.206   9.014  71.630  1.00  0.00    -0.418 C  
BRANCH  19  20
HETATM   20  C   UNL     1     -10.693   8.781  71.680  1.00  0.00    -0.397 C  
BRANCH  20  21
HETATM   21  C   UNL     1     -10.170   8.363  70.310  1.00  0.00    -0.196 C  
HETATM   22  N   UNL     1      -8.867   8.774  70.065  1.00  0.00    -0.139 N  
HETATM   23  O   UNL     1     -10.878   7.789  69.491  1.00  0.00    -0.230 OA 
HETATM   24  H   UNL     1      -8.369   9.302  70.781  1.00  0.00     0.000 HD 
BRANCH  22  25
HETATM   25  C   UNL     1      -8.210   8.477  68.834  1.00  0.00    -0.117 A  
HETATM   26  C   UNL     1      -7.999   7.160  68.397  1.00  0.00    -0.124 A  
HETATM   27  I   UNL     1      -8.311   5.446  69.604  1.00  0.00    -0.106 I  
HETATM   28  C   UNL     1      -7.387   6.908  67.166  1.00  0.00    -0.090 A  
HETATM   29  C   UNL     1      -6.908   7.962  66.375  1.00  0.00    -0.062 A  
HETATM   30  I   UNL     1      -5.913   7.341  64.616  1.00  0.00    -0.038 I  
HETATM   31  C   UNL     1      -7.046   9.295  66.801  1.00  0.00    -0.082 A  
HETATM   32  C   UNL     1      -6.451  10.421  66.024  1.00  0.00    -0.119 C  
HETATM   33  C   UNL     1      -7.706   9.541  68.035  1.00  0.00    -0.087 A  
HETATM   34  O   UNL     1      -5.786  11.305  66.535  1.00  0.00    -0.124 OA 
HETATM   35  I   UNL     1      -8.109  11.550  68.721  1.00  0.00     0.103 I  
HETATM   36  O   UNL     1      -6.736  10.416  64.704  1.00  0.00    -0.109 OA 
ENDBRANCH  22  25
ENDBRANCH  20  21
ENDBRANCH  19  20
ENDBRANCH  18  19
ENDBRANCH  17  18
ENDBRANCH  15  17
ENDBRANCH   7  13
TORSDOF 7
ENDMDL
MODEL      115
REMARK 921   NORMALIZED FREE ENERGY PREDICTED BY IDOCK:   -4.35 KCAL/MOL
REMARK 922        TOTAL FREE ENERGY PREDICTED BY IDOCK:   -7.05 KCAL/MOL
REMARK 923 INTER-LIGAND FREE ENERGY PREDICTED BY IDOCK:   -6.02 KCAL/MOL
REMARK 924 INTRA-LIGAND FREE ENERGY PREDICTED BY IDOCK:   -1.03 KCAL/MOL
REMARK 927      BINDING AFFINITY PREDICTED BY RF-SCORE:    0.00 PKD
ROOT
HETATM    1  O   UNL     1      -8.412   4.578  73.739  1.00  0.00    -0.103 OA 
HETATM    2  C   UNL     1      -7.563   5.002  72.777  1.00  0.00    -0.096 C  
HETATM    3  C   UNL     1      -8.006   4.710  71.387  1.00  0.00    -0.096 A  
HETATM    4  O   UNL     1      -6.547   5.621  73.040  1.00  0.00    -0.068 OA 
HETATM    5  C   UNL     1      -7.990   5.723  70.391  1.00  0.00    -0.105 A  
HETATM    6  I   UNL     1      -7.504   7.771  70.883  1.00  0.00    -0.080 I  
HETATM    7  C   UNL     1      -8.376   5.456  69.047  1.00  0.00    -0.100 A  
HETATM    8  I   UNL     1      -8.337   1.722  72.275  1.00  0.00    -0.067 I  
HETATM    9  C   UNL     1      -8.765   4.148  68.709  1.00  0.00    -0.096 A  
HETATM   10  C   UNL     1      -8.393   3.413  71.005  1.00  0.00    -0.066 A  
HETATM   11  C   UNL     1      -8.786   3.144  69.688  1.00  0.00    -0.146 A  
HETATM   12  I   UNL     1      -9.099   3.473  66.736  1.00  0.00    -0.179 I  
ENDROOT
BRANCH   7  13
HETATM   13  N   UNL     1      -8.273   6.505  68.084  1.00  0.00    -0.116 N  
HETATM   14  O   UNL     1      -6.067   6.117  67.478  1.00  0.00    -0.017 OA 
HETATM   15  C   UNL     1      -7.118   6.742  67.356  1.00  0.00    -0.084 C  
HETATM   16  H   UNL     1      -9.083   7.104  67.926  1.00  0.00     0.000 HD 
BRANCH  15  17
HETATM   17  C   UNL     1      -7.290   7.765  66.241  1.00  0.00    -0.079 C  
BRANCH  17  18
HETATM   18  C   UNL     1      -8.723   7.731  65.716  1.00  0.00    -0.160 C  
BRANCH  18  19
HETATM   19  C   UNL     1      -9.437   9.087  65.696  1.00  0.00    -0.273 C  
BRANCH  19  20
HETATM   20  C   UNL     1     -10.506   9.275  66.777  1.00  0.00    -0.263 C  
BRANCH  20  21
HETATM   21  C   UNL     1     -10.702  10.756  67.085  1.00  0.00    -0.272 C  
HETATM   22  N   UNL     1      -9.803  11.583  66.426  1.00  0.00    -0.200 N  
HETATM   23  O   UNL     1     -11.529  11.146  67.902  1.00  0.00    -0.368 OA 
HETATM   24  H   UNL     1      -9.106  11.168  65.808  1.00  0.00     0.000 HD 
BRANCH  22  25
HETATM   25  C   UNL     1      -9.832  13.000  66.592  1.00  0.00    -0.252 A  
HETATM   26  C   UNL     1     -10.845  13.798  66.037  1.00  0.00    -0.282 A  
HETATM   27  I   UNL     1     -12.266  13.101  64.629  1.00  0.00    -0.473 I  
HETATM   28  C   UNL     1     -10.862  15.179  66.256  1.00  0.00    -0.333 A  
HETATM   29  C   UNL     1      -9.833  15.804  66.973  1.00  0.00    -0.234 A  
HETATM   30  I   UNL     1     -10.003  17.909  67.076  1.00  0.00    -0.383 I  
HETATM   31  C   UNL     1      -8.769  15.050  67.499  1.00  0.00    -0.194 A  
HETATM   32  C   UNL     1      -7.612  15.710  68.174  1.00  0.00    -0.120 C  
HETATM   33  C   UNL     1      -8.782  13.643  67.305  1.00  0.00    -0.218 A  
HETATM   34  O   UNL     1      -6.452  15.442  67.919  1.00  0.00    -0.124 OA 
HETATM   35  I   UNL     1      -7.282  12.364  68.191  1.00  0.00    -0.141 I  
HETATM   36  O   UNL     1      -7.945  16.606  69.128  1.00  0.00    -0.232 OA 
ENDBRANCH  22  25
ENDBRANCH  20  21
ENDBRANCH  19  20
ENDBRANCH  18  19
ENDBRANCH  17  18
ENDBRANCH  15  17
ENDBRANCH   7  13
TORSDOF 7
ENDMDL
MODEL      116
REMARK 921   NORMALIZED FREE ENERGY PREDICTED BY IDOCK:   -4.34 KCAL/MOL
REMARK 922        TOTAL FREE ENERGY PREDICTED BY IDOCK:   -7.04 KCAL/MOL
REMARK 923 INTER-LIGAND FREE ENERGY PREDICTED BY IDOCK:   -6.24 KCAL/MOL
REMARK 924 INTRA-LIGAND FREE ENERGY PREDICTED BY IDOCK:   -0.80 KCAL/MOL
REMARK 927      BINDING AFFINITY PREDICTED BY RF-SCORE:    0.00 PKD
ROOT
HETATM    1  O   UNL     1      -8.842  16.499  68.802  1.00  0.00    -0.235 OA 
HETATM    2  C   UNL     1      -8.273  15.311  69.102  1.00  0.00    -0.234 C  
HETATM    3  C   UNL     1      -8.587  14.215  68.147  1.00  0.00    -0.175 A  
HETATM    4  O   UNL     1      -7.522  15.178  70.052  1.00  0.00    -0.135 OA 
HETATM    5  C   UNL     1      -7.554  13.396  67.617  1.00  0.00    -0.174 A  
HETATM    6  I   UNL     1      -5.472  13.815  68.019  1.00  0.00    -0.017 I  
HETATM    7  C   UNL     1      -7.836  12.319  66.729  1.00  0.00     0.047 A  
HETATM    8  I   UNL     1     -11.614  14.897  68.584  1.00  0.00    -0.315 I  
HETATM    9  C   UNL     1      -9.177  12.063  66.392  1.00  0.00    -0.216 A  
HETATM   10  C   UNL     1      -9.914  13.919  67.791  1.00  0.00    -0.241 A  
HETATM   11  C   UNL     1     -10.200  12.869  66.909  1.00  0.00    -0.243 A  
HETATM   12  I   UNL     1      -9.837  10.360  65.331  1.00  0.00    -0.350 I  
ENDROOT
BRANCH   7  13
HETATM   13  N   UNL     1      -6.757  11.496  66.286  1.00  0.00    -0.366 N  
HETATM   14  O   UNL     1      -6.946   9.871  67.932  1.00  0.00    -0.079 OA 
HETATM   15  C   UNL     1      -6.407  10.315  66.921  1.00  0.00    -0.069 C  
HETATM   16  H   UNL     1      -6.222  11.789  65.468  1.00  0.00     0.000 HD 
BRANCH  15  17
HETATM   17  C   UNL     1      -5.371   9.492  66.166  1.00  0.00    -0.040 C  
BRANCH  17  18
HETATM   18  C   UNL     1      -5.474   8.023  66.570  1.00  0.00    -0.028 C  
BRANCH  18  19
HETATM   19  C   UNL     1      -6.336   7.157  65.645  1.00  0.00    -0.040 C  
BRANCH  19  20
HETATM   20  C   UNL     1      -7.815   7.066  66.032  1.00  0.00    -0.104 C  
BRANCH  20  21
HETATM   21  C   UNL     1      -7.964   6.571  67.466  1.00  0.00    -0.114 C  
HETATM   22  N   UNL     1      -9.283   6.371  67.850  1.00  0.00    -0.115 N  
HETATM   23  O   UNL     1      -7.001   6.446  68.215  1.00  0.00    -0.075 OA 
HETATM   24  H   UNL     1     -10.029   6.558  67.181  1.00  0.00     0.000 HD 
BRANCH  22  25
HETATM   25  C   UNL     1      -9.619   5.911  69.158  1.00  0.00    -0.136 A  
HETATM   26  C   UNL     1      -9.494   4.564  69.533  1.00  0.00    -0.174 A  
HETATM   27  I   UNL     1      -9.120   2.984  68.171  1.00  0.00    -0.233 I  
HETATM   28  C   UNL     1      -9.795   4.157  70.836  1.00  0.00    -0.247 A  
HETATM   29  C   UNL     1     -10.292   5.071  71.775  1.00  0.00    -0.200 A  
HETATM   30  I   UNL     1     -10.789   4.211  73.642  1.00  0.00    -0.307 I  
HETATM   31  C   UNL     1     -10.486   6.419  71.427  1.00  0.00    -0.257 A  
HETATM   32  C   UNL     1     -11.112   7.383  72.379  1.00  0.00    -0.287 C  
HETATM   33  C   UNL     1     -10.140   6.830  70.111  1.00  0.00    -0.178 A  
HETATM   34  O   UNL     1     -12.014   8.139  72.066  1.00  0.00    -0.301 OA 
HETATM   35  I   UNL     1     -10.254   8.901  69.505  1.00  0.00    -0.232 I  
HETATM   36  O   UNL     1     -10.575   7.389  73.619  1.00  0.00    -0.370 OA 
ENDBRANCH  22  25
ENDBRANCH  20  21
ENDBRANCH  19  20
ENDBRANCH  18  19
ENDBRANCH  17  18
ENDBRANCH  15  17
ENDBRANCH   7  13
TORSDOF 7
ENDMDL
MODEL      117
REMARK 921   NORMALIZED FREE ENERGY PREDICTED BY IDOCK:   -4.33 KCAL/MOL
REMARK 922        TOTAL FREE ENERGY PREDICTED BY IDOCK:   -7.02 KCAL/MOL
REMARK 923 INTER-LIGAND FREE ENERGY PREDICTED BY IDOCK:   -6.00 KCAL/MOL
REMARK 924 INTRA-LIGAND FREE ENERGY PREDICTED BY IDOCK:   -1.02 KCAL/MOL
REMARK 927      BINDING AFFINITY PREDICTED BY RF-SCORE:    0.00 PKD
ROOT
HETATM    1  O   UNL     1     -12.126   4.694  73.249  1.00  0.00    -0.108 OA 
HETATM    2  C   UNL     1     -10.956   5.365  73.165  1.00  0.00    -0.302 C  
HETATM    3  C   UNL     1     -10.070   4.927  72.053  1.00  0.00    -0.256 A  
HETATM    4  O   UNL     1     -10.687   6.287  73.913  1.00  0.00    -0.249 OA 
HETATM    5  C   UNL     1      -9.480   5.878  71.178  1.00  0.00    -0.161 A  
HETATM    6  I   UNL     1      -9.984   7.976  71.297  1.00  0.00    -0.253 I  
HETATM    7  C   UNL     1      -8.601   5.484  70.129  1.00  0.00    -0.121 A  
HETATM    8  I   UNL     1     -10.370   2.009  73.155  1.00  0.00    -0.255 I  
HETATM    9  C   UNL     1      -8.306   4.117  69.981  1.00  0.00    -0.061 A  
HETATM   10  C   UNL     1      -9.742   3.571  71.876  1.00  0.00    -0.164 A  
HETATM   11  C   UNL     1      -8.888   3.173  70.839  1.00  0.00    -0.142 A  
HETATM   12  I   UNL     1      -6.824   3.349  68.688  1.00  0.00    -0.046 I  
ENDROOT
BRANCH   7  13
HETATM   13  N   UNL     1      -7.993   6.497  69.328  1.00  0.00    -0.109 N  
HETATM   14  O   UNL     1      -6.149   6.864  70.688  1.00  0.00    -0.027 OA 
HETATM   15  C   UNL     1      -6.792   7.100  69.668  1.00  0.00    -0.050 C  
HETATM   16  H   UNL     1      -8.462   6.789  68.470  1.00  0.00     0.000 HD 
BRANCH  15  17
HETATM   17  C   UNL     1      -6.221   7.996  68.577  1.00  0.00    -0.045 C  
BRANCH  17  18
HETATM   18  C   UNL     1      -5.724   9.307  69.183  1.00  0.00    -0.036 C  
BRANCH  18  19
HETATM   19  C   UNL     1      -6.827  10.286  69.597  1.00  0.00    -0.094 C  
BRANCH  19  20
HETATM   20  C   UNL     1      -7.652  10.862  68.442  1.00  0.00    -0.104 C  
BRANCH  20  21
HETATM   21  C   UNL     1      -7.209  12.287  68.126  1.00  0.00    -0.101 C  
HETATM   22  N   UNL     1      -7.889  13.254  68.851  1.00  0.00    -0.327 N  
HETATM   23  O   UNL     1      -6.385  12.532  67.251  1.00  0.00    -0.156 OA 
HETATM   24  H   UNL     1      -8.605  12.964  69.517  1.00  0.00     0.000 HD 
BRANCH  22  25
HETATM   25  C   UNL     1      -7.611  14.643  68.687  1.00  0.00    -0.129 A  
HETATM   26  C   UNL     1      -6.508  15.263  69.296  1.00  0.00    -0.131 A  
HETATM   27  I   UNL     1      -5.303  14.347  70.778  1.00  0.00    -0.179 I  
HETATM   28  C   UNL     1      -6.245  16.619  69.080  1.00  0.00    -0.172 A  
HETATM   29  C   UNL     1      -7.114  17.404  68.308  1.00  0.00    -0.203 A  
HETATM   30  I   UNL     1      -6.583  19.448  68.217  1.00  0.00    -0.314 I  
HETATM   31  C   UNL     1      -8.261  16.837  67.726  1.00  0.00    -0.190 A  
HETATM   32  C   UNL     1      -9.252  17.677  66.991  1.00  0.00    -0.250 C  
HETATM   33  C   UNL     1      -8.498  15.449  67.920  1.00  0.00    -0.147 A  
HETATM   34  O   UNL     1     -10.453  17.613  67.183  1.00  0.00    -0.339 OA 
HETATM   35  I   UNL     1     -10.145  14.437  66.954  1.00  0.00    -0.283 I  
HETATM   36  O   UNL     1      -8.721  18.496  66.057  1.00  0.00    -0.497 OA 
ENDBRANCH  22  25
ENDBRANCH  20  21
ENDBRANCH  19  20
ENDBRANCH  18  19
ENDBRANCH  17  18
ENDBRANCH  15  17
ENDBRANCH   7  13
TORSDOF 7
ENDMDL
MODEL      118
REMARK 921   NORMALIZED FREE ENERGY PREDICTED BY IDOCK:   -4.31 KCAL/MOL
REMARK 922        TOTAL FREE ENERGY PREDICTED BY IDOCK:   -6.99 KCAL/MOL
REMARK 923 INTER-LIGAND FREE ENERGY PREDICTED BY IDOCK:   -5.90 KCAL/MOL
REMARK 924 INTRA-LIGAND FREE ENERGY PREDICTED BY IDOCK:   -1.09 KCAL/MOL
REMARK 927      BINDING AFFINITY PREDICTED BY RF-SCORE:    0.00 PKD
ROOT
HETATM    1  O   UNL     1     -11.148  18.552  66.774  1.00  0.00    -0.056 OA 
HETATM    2  C   UNL     1     -10.318  17.526  66.485  1.00  0.00    -0.325 C  
HETATM    3  C   UNL     1      -9.191  17.354  67.441  1.00  0.00    -0.236 A  
HETATM    4  O   UNL     1     -10.519  16.779  65.545  1.00  0.00    -0.538 OA 
HETATM    5  C   UNL     1      -8.891  16.076  67.986  1.00  0.00    -0.175 A  
HETATM    6  I   UNL     1     -10.160  14.369  67.607  1.00  0.00    -0.225 I  
HETATM    7  C   UNL     1      -7.796  15.882  68.875  1.00  0.00    -0.198 A  
HETATM    8  I   UNL     1      -8.514  20.377  66.965  1.00  0.00    -0.173 I  
HETATM    9  C   UNL     1      -6.990  16.990  69.198  1.00  0.00    -0.228 A  
HETATM   10  C   UNL     1      -8.356  18.432  67.782  1.00  0.00    -0.262 A  
HETATM   11  C   UNL     1      -7.283  18.253  68.665  1.00  0.00    -0.293 A  
HETATM   12  I   UNL     1      -5.168  16.872  70.258  1.00  0.00    -0.208 I  
ENDROOT
BRANCH   7  13
HETATM   13  N   UNL     1      -7.513  14.561  69.334  1.00  0.00    -0.304 N  
HETATM   14  O   UNL     1      -5.998  14.001  67.668  1.00  0.00    -0.275 OA 
HETATM   15  C   UNL     1      -6.612  13.723  68.695  1.00  0.00    -0.096 C  
HETATM   16  H   UNL     1      -7.993  14.219  70.167  1.00  0.00     0.000 HD 
BRANCH  15  17
HETATM   17  C   UNL     1      -6.304  12.446  69.465  1.00  0.00    -0.116 C  
BRANCH  17  18
HETATM   18  C   UNL     1      -6.628  11.226  68.606  1.00  0.00    -0.064 C  
BRANCH  18  19
HETATM   19  C   UNL     1      -8.116  10.865  68.533  1.00  0.00    -0.137 C  
BRANCH  19  20
HETATM   20  C   UNL     1      -8.480   9.490  69.102  1.00  0.00    -0.131 C  
BRANCH  20  21
HETATM   21  C   UNL     1      -7.949   8.380  68.202  1.00  0.00    -0.119 C  
HETATM   22  N   UNL     1      -8.597   8.301  66.977  1.00  0.00    -0.121 N  
HETATM   23  O   UNL     1      -7.087   7.593  68.579  1.00  0.00    -0.076 OA 
HETATM   24  H   UNL     1      -9.347   8.958  66.768  1.00  0.00     0.000 HD 
BRANCH  22  25
HETATM   25  C   UNL     1      -8.238   7.321  66.005  1.00  0.00    -0.138 A  
HETATM   26  C   UNL     1      -7.148   7.492  65.137  1.00  0.00    -0.063 A  
HETATM   27  I   UNL     1      -6.092   9.314  64.905  1.00  0.00    -0.074 I  
HETATM   28  C   UNL     1      -6.802   6.492  64.224  1.00  0.00    -0.042 A  
HETATM   29  C   UNL     1      -7.575   5.329  64.106  1.00  0.00    -0.071 A  
HETATM   30  I   UNL     1      -6.936   4.013  62.580  1.00  0.00    -0.037 I  
HETATM   31  C   UNL     1      -8.709   5.141  64.916  1.00  0.00    -0.140 A  
HETATM   32  C   UNL     1      -9.604   3.961  64.733  1.00  0.00    -0.177 C  
HETATM   33  C   UNL     1      -9.029   6.146  65.869  1.00  0.00    -0.121 A  
HETATM   34  O   UNL     1     -10.817   4.048  64.665  1.00  0.00    -0.256 OA 
HETATM   35  I   UNL     1     -10.658   5.902  67.268  1.00  0.00    -0.314 I  
HETATM   36  O   UNL     1      -8.971   2.768  64.690  1.00  0.00    -0.112 OA 
ENDBRANCH  22  25
ENDBRANCH  20  21
ENDBRANCH  19  20
ENDBRANCH  18  19
ENDBRANCH  17  18
ENDBRANCH  15  17
ENDBRANCH   7  13
TORSDOF 7
ENDMDL
MODEL      119
REMARK 921   NORMALIZED FREE ENERGY PREDICTED BY IDOCK:   -4.30 KCAL/MOL
REMARK 922        TOTAL FREE ENERGY PREDICTED BY IDOCK:   -6.98 KCAL/MOL
REMARK 923 INTER-LIGAND FREE ENERGY PREDICTED BY IDOCK:   -5.93 KCAL/MOL
REMARK 924 INTRA-LIGAND FREE ENERGY PREDICTED BY IDOCK:   -1.05 KCAL/MOL
REMARK 927      BINDING AFFINITY PREDICTED BY RF-SCORE:    0.00 PKD
ROOT
HETATM    1  O   UNL     1      -7.109  19.074  66.954  1.00  0.00    -0.203 OA 
HETATM    2  C   UNL     1      -7.496  18.042  67.735  1.00  0.00    -0.211 C  
HETATM    3  C   UNL     1      -8.434  17.089  67.082  1.00  0.00    -0.222 A  
HETATM    4  O   UNL     1      -7.061  17.888  68.862  1.00  0.00    -0.261 OA 
HETATM    5  C   UNL     1      -8.203  15.688  67.141  1.00  0.00    -0.213 A  
HETATM    6  I   UNL     1      -6.395  14.885  68.009  1.00  0.00    -0.172 I  
HETATM    7  C   UNL     1      -9.106  14.757  66.553  1.00  0.00    -0.260 A  
HETATM    8  I   UNL     1     -10.229  19.561  66.382  1.00  0.00    -0.654 I  
HETATM    9  C   UNL     1     -10.260  15.252  65.918  1.00  0.00    -0.332 A  
HETATM   10  C   UNL     1      -9.603  17.542  66.445  1.00  0.00    -0.269 A  
HETATM   11  C   UNL     1     -10.491  16.634  65.854  1.00  0.00    -0.324 A  
HETATM   12  I   UNL     1     -11.857  14.050  65.238  1.00  0.00    -0.451 I  
ENDROOT
BRANCH   7  13
HETATM   13  N   UNL     1      -8.847  13.362  66.705  1.00  0.00    -0.402 N  
HETATM   14  O   UNL     1      -9.919  13.096  68.746  1.00  0.00    -0.157 OA 
HETATM   15  C   UNL     1      -9.295  12.632  67.795  1.00  0.00    -0.198 C  
HETATM   16  H   UNL     1      -8.309  12.883  65.983  1.00  0.00     0.000 HD 
BRANCH  15  17
HETATM   17  C   UNL     1      -9.091  11.129  67.657  1.00  0.00    -0.147 C  
BRANCH  17  18
HETATM   18  C   UNL     1      -9.538  10.665  66.272  1.00  0.00    -0.228 C  
BRANCH  18  19
HETATM   19  C   UNL     1     -10.151   9.262  66.228  1.00  0.00    -0.322 C  
BRANCH  19  20
HETATM   20  C   UNL     1     -10.909   8.843  67.492  1.00  0.00    -0.108 C  
BRANCH  20  21
HETATM   21  C   UNL     1     -10.113   7.803  68.273  1.00  0.00    -0.192 C  
HETATM   22  N   UNL     1      -9.124   7.183  67.523  1.00  0.00    -0.123 N  
HETATM   23  O   UNL     1     -10.393   7.503  69.429  1.00  0.00    -0.203 OA 
HETATM   24  H   UNL     1      -8.998   7.451  66.548  1.00  0.00     0.000 HD 
BRANCH  22  25
HETATM   25  C   UNL     1      -8.279   6.180  68.085  1.00  0.00    -0.114 A  
HETATM   26  C   UNL     1      -7.177   6.497  68.895  1.00  0.00    -0.084 A  
HETATM   27  I   UNL     1      -6.410   8.457  69.140  1.00  0.00    -0.044 I  
HETATM   28  C   UNL     1      -6.396   5.485  69.461  1.00  0.00    -0.033 A  
HETATM   29  C   UNL     1      -6.653   4.137  69.176  1.00  0.00    -0.041 A  
HETATM   30  I   UNL     1      -5.273   2.790  70.044  1.00  0.00    -0.009 I  
HETATM   31  C   UNL     1      -7.711   3.776  68.324  1.00  0.00    -0.065 A  
HETATM   32  C   UNL     1      -7.934   2.355  67.925  1.00  0.00    -0.059 C  
HETATM   33  C   UNL     1      -8.523   4.811  67.786  1.00  0.00    -0.103 A  
HETATM   34  O   UNL     1      -8.119   2.007  66.773  1.00  0.00    -0.074 OA 
HETATM   35  I   UNL     1     -10.266   4.372  66.585  1.00  0.00     0.394 I  
HETATM   36  O   UNL     1      -7.959   1.474  68.949  1.00  0.00    -0.045 OA 
ENDBRANCH  22  25
ENDBRANCH  20  21
ENDBRANCH  19  20
ENDBRANCH  18  19
ENDBRANCH  17  18
ENDBRANCH  15  17
ENDBRANCH   7  13
TORSDOF 7
ENDMDL
MODEL      120
REMARK 921   NORMALIZED FREE ENERGY PREDICTED BY IDOCK:   -4.28 KCAL/MOL
REMARK 922        TOTAL FREE ENERGY PREDICTED BY IDOCK:   -6.95 KCAL/MOL
REMARK 923 INTER-LIGAND FREE ENERGY PREDICTED BY IDOCK:   -5.28 KCAL/MOL
REMARK 924 INTRA-LIGAND FREE ENERGY PREDICTED BY IDOCK:   -1.67 KCAL/MOL
REMARK 927      BINDING AFFINITY PREDICTED BY RF-SCORE:    0.00 PKD
ROOT
HETATM    1  O   UNL     1      -6.478   3.949  64.578  1.00  0.00    -0.039 OA 
HETATM    2  C   UNL     1      -6.678   5.192  65.070  1.00  0.00    -0.048 C  
HETATM    3  C   UNL     1      -7.525   5.245  66.292  1.00  0.00    -0.087 A  
HETATM    4  O   UNL     1      -6.156   6.174  64.573  1.00  0.00    -0.028 OA 
HETATM    5  C   UNL     1      -7.111   5.989  67.429  1.00  0.00    -0.074 A  
HETATM    6  I   UNL     1      -5.162   6.920  67.513  1.00  0.00    -0.009 I  
HETATM    7  C   UNL     1      -7.922   6.083  68.596  1.00  0.00    -0.104 A  
HETATM    8  I   UNL     1      -9.665   3.595  64.706  1.00  0.00    -0.112 I  
HETATM    9  C   UNL     1      -9.167   5.429  68.600  1.00  0.00    -0.117 A  
HETATM   10  C   UNL     1      -8.780   4.614  66.334  1.00  0.00    -0.112 A  
HETATM   11  C   UNL     1      -9.579   4.690  67.482  1.00  0.00    -0.198 A  
HETATM   12  I   UNL     1     -10.636   5.668  70.099  1.00  0.00    -0.258 I  
ENDROOT
BRANCH   7  13
HETATM   13  N   UNL     1      -7.474   6.900  69.677  1.00  0.00    -0.096 N  
HETATM   14  O   UNL     1      -8.853   8.717  69.247  1.00  0.00    -0.135 OA 
HETATM   15  C   UNL     1      -7.996   8.160  69.928  1.00  0.00    -0.109 C  
HETATM   16  H   UNL     1      -6.741   6.543  70.290  1.00  0.00     0.000 HD 
BRANCH  15  17
HETATM   17  C   UNL     1      -7.531   8.769  71.245  1.00  0.00    -0.127 C  
BRANCH  17  18
HETATM   18  C   UNL     1      -6.197   9.486  71.047  1.00  0.00    -0.079 C  
BRANCH  18  19
HETATM   19  C   UNL     1      -6.097  10.321  69.766  1.00  0.00    -0.054 C  
BRANCH  19  20
HETATM   20  C   UNL     1      -6.528  11.784  69.908  1.00  0.00    -0.063 C  
BRANCH  20  21
HETATM   21  C   UNL     1      -7.355  12.219  68.702  1.00  0.00    -0.106 C  
HETATM   22  N   UNL     1      -8.394  11.350  68.400  1.00  0.00    -0.148 N  
HETATM   23  O   UNL     1      -7.060  13.202  68.032  1.00  0.00    -0.086 OA 
HETATM   24  H   UNL     1      -8.532  10.520  68.976  1.00  0.00     0.000 HD 
BRANCH  22  25
HETATM   25  C   UNL     1      -9.273  11.591  67.304  1.00  0.00    -0.167 A  
HETATM   26  C   UNL     1     -10.475  12.302  67.450  1.00  0.00    -0.210 A  
HETATM   27  I   UNL     1     -11.320  12.831  69.319  1.00  0.00    -0.175 I  
HETATM   28  C   UNL     1     -11.292  12.554  66.343  1.00  0.00    -0.379 A  
HETATM   29  C   UNL     1     -10.965  12.042  65.080  1.00  0.00    -0.306 A  
HETATM   30  I   UNL     1     -12.404  12.445  63.584  1.00  0.00    -0.435 I  
HETATM   31  C   UNL     1      -9.800  11.276  64.899  1.00  0.00    -0.310 A  
HETATM   32  C   UNL     1      -9.491  10.636  63.587  1.00  0.00    -0.299 C  
HETATM   33  C   UNL     1      -8.957  11.060  66.022  1.00  0.00    -0.197 A  
HETATM   34  O   UNL     1      -9.156   9.470  63.477  1.00  0.00    -0.230 OA 
HETATM   35  I   UNL     1      -7.068  10.026  65.836  1.00  0.00    -0.131 I  
HETATM   36  O   UNL     1      -9.568  11.459  62.519  1.00  0.00    -0.249 OA 
ENDBRANCH  22  25
ENDBRANCH  20  21
ENDBRANCH  19  20
ENDBRANCH  18  19
ENDBRANCH  17  18
ENDBRANCH  15  17
ENDBRANCH   7  13
TORSDOF 7
ENDMDL
MODEL      121
REMARK 921   NORMALIZED FREE ENERGY PREDICTED BY IDOCK:   -4.28 KCAL/MOL
REMARK 922        TOTAL FREE ENERGY PREDICTED BY IDOCK:   -6.95 KCAL/MOL
REMARK 923 INTER-LIGAND FREE ENERGY PREDICTED BY IDOCK:   -6.12 KCAL/MOL
REMARK 924 INTRA-LIGAND FREE ENERGY PREDICTED BY IDOCK:   -0.83 KCAL/MOL
REMARK 927      BINDING AFFINITY PREDICTED BY RF-SCORE:    0.00 PKD
ROOT
HETATM    1  O   UNL     1      -9.910   1.882  68.505  1.00  0.00    -0.069 OA 
HETATM    2  C   UNL     1      -9.090   2.854  68.960  1.00  0.00    -0.144 C  
HETATM    3  C   UNL     1      -8.804   3.934  67.978  1.00  0.00    -0.136 A  
HETATM    4  O   UNL     1      -8.669   2.859  70.103  1.00  0.00    -0.060 OA 
HETATM    5  C   UNL     1      -8.920   5.301  68.348  1.00  0.00    -0.108 A  
HETATM    6  I   UNL     1      -9.693   5.878  70.282  1.00  0.00    -0.254 I  
HETATM    7  C   UNL     1      -8.617   6.351  67.435  1.00  0.00    -0.107 A  
HETATM    8  I   UNL     1      -7.951   1.685  65.970  1.00  0.00    -0.087 I  
HETATM    9  C   UNL     1      -8.177   6.008  66.143  1.00  0.00    -0.121 A  
HETATM   10  C   UNL     1      -8.353   3.636  66.680  1.00  0.00    -0.104 A  
HETATM   11  C   UNL     1      -8.064   4.661  65.771  1.00  0.00    -0.103 A  
HETATM   12  I   UNL     1      -7.412   7.387  64.739  1.00  0.00    -0.107 I  
ENDROOT
BRANCH   7  13
HETATM   13  N   UNL     1      -8.693   7.700  67.893  1.00  0.00    -0.125 N  
HETATM   14  O   UNL     1      -6.519   7.851  68.690  1.00  0.00    -0.046 OA 
HETATM   15  C   UNL     1      -7.618   8.355  68.475  1.00  0.00    -0.096 C  
HETATM   16  H   UNL     1      -9.574   8.204  67.788  1.00  0.00     0.000 HD 
BRANCH  15  17
HETATM   17  C   UNL     1      -7.849   9.844  68.697  1.00  0.00    -0.086 C  
BRANCH  17  18
HETATM   18  C   UNL     1      -8.178  10.526  67.371  1.00  0.00    -0.118 C  
BRANCH  18  19
HETATM   19  C   UNL     1      -9.588  11.119  67.283  1.00  0.00    -0.182 C  
BRANCH  19  20
HETATM   20  C   UNL     1      -9.894  12.223  68.300  1.00  0.00    -0.217 C  
BRANCH  20  21
HETATM   21  C   UNL     1      -9.090  13.480  67.986  1.00  0.00    -0.201 C  
HETATM   22  N   UNL     1      -8.806  14.251  69.104  1.00  0.00    -0.382 N  
HETATM   23  O   UNL     1      -8.804  13.798  66.837  1.00  0.00    -0.229 OA 
HETATM   24  H   UNL     1      -9.135  13.943  70.018  1.00  0.00     0.000 HD 
BRANCH  22  25
HETATM   25  C   UNL     1      -8.064  15.466  69.004  1.00  0.00    -0.213 A  
HETATM   26  C   UNL     1      -6.669  15.506  69.159  1.00  0.00    -0.145 A  
HETATM   27  I   UNL     1      -5.508  13.884  69.873  1.00  0.00    -0.126 I  
HETATM   28  C   UNL     1      -5.972  16.709  69.014  1.00  0.00    -0.156 A  
HETATM   29  C   UNL     1      -6.655  17.910  68.781  1.00  0.00    -0.235 A  
HETATM   30  I   UNL     1      -5.410  19.618  68.717  1.00  0.00    -0.232 I  
HETATM   31  C   UNL     1      -8.057  17.925  68.675  1.00  0.00    -0.283 A  
HETATM   32  C   UNL     1      -8.809  19.207  68.532  1.00  0.00    -0.367 C  
HETATM   33  C   UNL     1      -8.753  16.691  68.784  1.00  0.00    -0.260 A  
HETATM   34  O   UNL     1      -9.786  19.485  69.204  1.00  0.00    -0.433 OA 
HETATM   35  I   UNL     1     -10.890  16.567  68.491  1.00  0.00    -0.271 I  
HETATM   36  O   UNL     1      -8.350  20.031  67.566  1.00  0.00    -0.316 OA 
ENDBRANCH  22  25
ENDBRANCH  20  21
ENDBRANCH  19  20
ENDBRANCH  18  19
ENDBRANCH  17  18
ENDBRANCH  15  17
ENDBRANCH   7  13
TORSDOF 7
ENDMDL
MODEL      122
REMARK 921   NORMALIZED FREE ENERGY PREDICTED BY IDOCK:   -4.27 KCAL/MOL
REMARK 922        TOTAL FREE ENERGY PREDICTED BY IDOCK:   -6.94 KCAL/MOL
REMARK 923 INTER-LIGAND FREE ENERGY PREDICTED BY IDOCK:   -7.00 KCAL/MOL
REMARK 924 INTRA-LIGAND FREE ENERGY PREDICTED BY IDOCK:    0.06 KCAL/MOL
REMARK 927      BINDING AFFINITY PREDICTED BY RF-SCORE:    0.00 PKD
ROOT
HETATM    1  O   UNL     1     -11.025   9.637  69.095  1.00  0.00    -0.218 OA 
HETATM    2  C   UNL     1     -11.684  10.700  68.583  1.00  0.00    -0.158 C  
HETATM    3  C   UNL     1     -11.890  11.820  69.541  1.00  0.00    -0.402 A  
HETATM    4  O   UNL     1     -12.028  10.744  67.416  1.00  0.00    -0.205 OA 
HETATM    5  C   UNL     1     -11.576  13.156  69.172  1.00  0.00    -0.316 A  
HETATM    6  I   UNL     1     -10.617  13.605  67.288  1.00  0.00    -0.281 I  
HETATM    7  C   UNL     1     -11.798  14.247  70.059  1.00  0.00    -0.314 A  
HETATM    8  I   UNL     1     -13.148   9.724  71.501  1.00  0.00    -0.498 I  
HETATM    9  C   UNL     1     -12.358  13.981  71.322  1.00  0.00    -0.355 A  
HETATM   10  C   UNL     1     -12.455  11.598  70.808  1.00  0.00    -0.330 A  
HETATM   11  C   UNL     1     -12.666  12.664  71.693  1.00  0.00    -0.292 A  
HETATM   12  I   UNL     1     -13.027  15.463  72.669  1.00  0.00    -0.732 I  
ENDROOT
BRANCH   7  13
HETATM   13  N   UNL     1     -11.521  15.570  69.601  1.00  0.00    -0.303 N  
HETATM   14  O   UNL     1      -9.264  15.588  70.137  1.00  0.00     0.009 OA 
HETATM   15  C   UNL     1     -10.256  16.133  69.662  1.00  0.00    -0.243 C  
HETATM   16  H   UNL     1     -12.285  16.123  69.212  1.00  0.00     0.000 HD 
BRANCH  15  17
HETATM   17  C   UNL     1     -10.137  17.465  68.931  1.00  0.00    -0.330 C  
BRANCH  17  18
HETATM   18  C   UNL     1      -9.004  17.403  67.911  1.00  0.00    -0.251 C  
BRANCH  18  19
HETATM   19  C   UNL     1      -7.838  16.486  68.295  1.00  0.00    -0.175 C  
BRANCH  19  20
HETATM   20  C   UNL     1      -7.210  15.711  67.132  1.00  0.00    -0.230 C  
BRANCH  20  21
HETATM   21  C   UNL     1      -6.532  14.442  67.638  1.00  0.00    -0.131 C  
HETATM   22  N   UNL     1      -7.368  13.628  68.389  1.00  0.00    -0.109 N  
HETATM   23  O   UNL     1      -5.340  14.224  67.454  1.00  0.00    -0.336 OA 
HETATM   24  H   UNL     1      -8.334  13.915  68.545  1.00  0.00     0.000 HD 
BRANCH  22  25
HETATM   25  C   UNL     1      -6.908  12.399  68.949  1.00  0.00    -0.099 A  
HETATM   26  C   UNL     1      -6.239  12.341  70.182  1.00  0.00    -0.048 A  
HETATM   27  I   UNL     1      -5.528  14.042  71.225  1.00  0.00    -0.203 I  
HETATM   28  C   UNL     1      -5.839  11.113  70.717  1.00  0.00    -0.054 A  
HETATM   29  C   UNL     1      -6.034   9.922  70.003  1.00  0.00    -0.049 A  
HETATM   30  I   UNL     1      -5.243   8.206  70.951  1.00  0.00    -0.025 I  
HETATM   31  C   UNL     1      -6.649   9.940  68.739  1.00  0.00    -0.046 A  
HETATM   32  C   UNL     1      -6.770   8.698  67.920  1.00  0.00    -0.066 C  
HETATM   33  C   UNL     1      -7.087  11.188  68.223  1.00  0.00    -0.073 A  
HETATM   34  O   UNL     1      -6.467   8.645  66.742  1.00  0.00    -0.058 OA 
HETATM   35  I   UNL     1      -8.176  11.323  66.360  1.00  0.00     0.002 I  
HETATM   36  O   UNL     1      -7.283   7.633  68.573  1.00  0.00    -0.081 OA 
ENDBRANCH  22  25
ENDBRANCH  20  21
ENDBRANCH  19  20
ENDBRANCH  18  19
ENDBRANCH  17  18
ENDBRANCH  15  17
ENDBRANCH   7  13
TORSDOF 7
ENDMDL
MODEL      123
REMARK 921   NORMALIZED FREE ENERGY PREDICTED BY IDOCK:   -4.27 KCAL/MOL
REMARK 922        TOTAL FREE ENERGY PREDICTED BY IDOCK:   -6.93 KCAL/MOL
REMARK 923 INTER-LIGAND FREE ENERGY PREDICTED BY IDOCK:   -5.86 KCAL/MOL
REMARK 924 INTRA-LIGAND FREE ENERGY PREDICTED BY IDOCK:   -1.07 KCAL/MOL
REMARK 927      BINDING AFFINITY PREDICTED BY RF-SCORE:    0.00 PKD
ROOT
HETATM    1  O   UNL     1      -8.786   4.176  63.552  1.00  0.00    -0.112 OA 
HETATM    2  C   UNL     1      -9.284   4.099  64.806  1.00  0.00    -0.154 C  
HETATM    3  C   UNL     1      -8.333   4.507  65.875  1.00  0.00    -0.114 A  
HETATM    4  O   UNL     1     -10.437   3.771  65.023  1.00  0.00    -0.105 OA 
HETATM    5  C   UNL     1      -8.732   5.417  66.891  1.00  0.00    -0.112 A  
HETATM    6  I   UNL     1     -10.659   6.393  66.831  1.00  0.00    -0.269 I  
HETATM    7  C   UNL     1      -7.850   5.794  67.944  1.00  0.00    -0.097 A  
HETATM    8  I   UNL     1      -6.296   2.470  64.643  1.00  0.00    -0.020 I  
HETATM    9  C   UNL     1      -6.562   5.229  67.973  1.00  0.00    -0.050 A  
HETATM   10  C   UNL     1      -7.041   3.959  65.947  1.00  0.00    -0.067 A  
HETATM   11  C   UNL     1      -6.162   4.333  66.972  1.00  0.00    -0.036 A  
HETATM   12  I   UNL     1      -5.209   5.427  69.582  1.00  0.00    -0.004 I  
ENDROOT
BRANCH   7  13
HETATM   13  N   UNL     1      -8.337   6.662  68.967  1.00  0.00    -0.119 N  
HETATM   14  O   UNL     1      -8.909   5.008  70.492  1.00  0.00    -0.116 OA 
HETATM   15  C   UNL     1      -8.816   6.193  70.181  1.00  0.00    -0.144 C  
HETATM   16  H   UNL     1      -8.332   7.668  68.799  1.00  0.00     0.000 HD 
BRANCH  15  17
HETATM   17  C   UNL     1      -9.087   7.290  71.202  1.00  0.00    -0.152 C  
BRANCH  17  18
HETATM   18  C   UNL     1     -10.384   8.019  70.856  1.00  0.00    -0.221 C  
BRANCH  18  19
HETATM   19  C   UNL     1     -10.201   9.334  70.092  1.00  0.00    -0.251 C  
BRANCH  19  20
HETATM   20  C   UNL     1     -11.198   9.569  68.953  1.00  0.00     0.037 C  
BRANCH  20  21
HETATM   21  C   UNL     1     -10.874  10.864  68.216  1.00  0.00    -0.225 C  
HETATM   22  N   UNL     1     -10.080  11.736  68.948  1.00  0.00    -0.394 N  
HETATM   23  O   UNL     1     -11.350  11.122  67.115  1.00  0.00    -0.395 OA 
HETATM   24  H   UNL     1      -9.778  11.466  69.884  1.00  0.00     0.000 HD 
BRANCH  22  25
HETATM   25  C   UNL     1      -9.677  12.999  68.422  1.00  0.00    -0.192 A  
HETATM   26  C   UNL     1      -8.564  13.138  67.578  1.00  0.00    -0.196 A  
HETATM   27  I   UNL     1      -7.146  11.604  67.224  1.00  0.00    -0.132 I  
HETATM   28  C   UNL     1      -8.223  14.387  67.050  1.00  0.00    -0.138 A  
HETATM   29  C   UNL     1      -8.943  15.536  67.406  1.00  0.00    -0.192 A  
HETATM   30  I   UNL     1      -8.177  17.326  66.582  1.00  0.00    -0.338 I  
HETATM   31  C   UNL     1     -10.030  15.452  68.293  1.00  0.00    -0.214 A  
HETATM   32  C   UNL     1     -10.741  16.677  68.764  1.00  0.00    -0.342 C  
HETATM   33  C   UNL     1     -10.392  14.172  68.792  1.00  0.00    -0.229 A  
HETATM   34  O   UNL     1     -11.000  16.887  69.936  1.00  0.00    -0.211 OA 
HETATM   35  I   UNL     1     -12.133  13.897  70.043  1.00  0.00    -0.325 I  
HETATM   36  O   UNL     1     -11.118  17.528  67.787  1.00  0.00    -0.235 OA 
ENDBRANCH  22  25
ENDBRANCH  20  21
ENDBRANCH  19  20
ENDBRANCH  18  19
ENDBRANCH  17  18
ENDBRANCH  15  17
ENDBRANCH   7  13
TORSDOF 7
ENDMDL
MODEL      124
REMARK 921   NORMALIZED FREE ENERGY PREDICTED BY IDOCK:   -4.25 KCAL/MOL
REMARK 922        TOTAL FREE ENERGY PREDICTED BY IDOCK:   -6.91 KCAL/MOL
REMARK 923 INTER-LIGAND FREE ENERGY PREDICTED BY IDOCK:   -6.10 KCAL/MOL
REMARK 924 INTRA-LIGAND FREE ENERGY PREDICTED BY IDOCK:   -0.81 KCAL/MOL
REMARK 927      BINDING AFFINITY PREDICTED BY RF-SCORE:    0.00 PKD
ROOT
HETATM    1  O   UNL     1     -11.089  18.178  65.492  1.00  0.00    -0.162 OA 
HETATM    2  C   UNL     1     -10.906  16.958  64.940  1.00  0.00     0.003 C  
HETATM    3  C   UNL     1     -10.093  16.022  65.762  1.00  0.00    -0.393 A  
HETATM    4  O   UNL     1     -11.418  16.647  63.879  1.00  0.00    -1.186 OA 
HETATM    5  C   UNL     1     -10.540  14.695  66.007  1.00  0.00    -0.309 A  
HETATM    6  I   UNL     1     -12.494  14.033  65.362  1.00  0.00    -0.363 I  
HETATM    7  C   UNL     1      -9.762  13.772  66.761  1.00  0.00    -0.275 A  
HETATM    8  I   UNL     1      -7.905  18.261  65.888  1.00  0.00     0.393 I  
HETATM    9  C   UNL     1      -8.514  14.195  67.255  1.00  0.00    -0.214 A  
HETATM   10  C   UNL     1      -8.837  16.401  66.267  1.00  0.00    -0.332 A  
HETATM   11  C   UNL     1      -8.070  15.503  67.020  1.00  0.00    -0.272 A  
HETATM   12  I   UNL     1      -7.088  12.917  68.145  1.00  0.00    -0.164 I  
ENDROOT
BRANCH   7  13
HETATM   13  N   UNL     1     -10.241  12.437  66.914  1.00  0.00    -0.223 N  
HETATM   14  O   UNL     1      -9.370  11.596  64.934  1.00  0.00    -0.144 OA 
HETATM   15  C   UNL     1      -9.987  11.440  65.984  1.00  0.00    -0.231 C  
HETATM   16  H   UNL     1     -10.792  12.206  67.740  1.00  0.00     0.000 HD 
BRANCH  15  17
HETATM   17  C   UNL     1     -10.408  10.049  66.440  1.00  0.00    -0.249 C  
BRANCH  17  18
HETATM   18  C   UNL     1     -10.688  10.053  67.941  1.00  0.00    -0.322 C  
BRANCH  18  19
HETATM   19  C   UNL     1     -11.031   8.684  68.538  1.00  0.00     0.123 C  
BRANCH  19  20
HETATM   20  C   UNL     1     -10.251   7.504  67.948  1.00  0.00    -0.245 C  
BRANCH  20  21
HETATM   21  C   UNL     1      -9.222   6.989  68.949  1.00  0.00    -0.136 C  
HETATM   22  N   UNL     1      -9.756   6.141  69.908  1.00  0.00    -0.161 N  
HETATM   23  O   UNL     1      -8.055   7.367  68.934  1.00  0.00    -0.123 OA 
HETATM   24  H   UNL     1     -10.753   5.927  69.883  1.00  0.00     0.000 HD 
BRANCH  22  25
HETATM   25  C   UNL     1      -8.945   5.563  70.929  1.00  0.00    -0.139 A  
HETATM   26  C   UNL     1      -8.714   6.205  72.156  1.00  0.00    -0.131 A  
HETATM   27  I   UNL     1      -9.238   8.219  72.557  1.00  0.00    -0.255 I  
HETATM   28  C   UNL     1      -7.946   5.589  73.148  1.00  0.00    -0.104 A  
HETATM   29  C   UNL     1      -7.333   4.351  72.914  1.00  0.00    -0.079 A  
HETATM   30  I   UNL     1      -6.124   3.668  74.509  1.00  0.00    -0.023 I  
HETATM   31  C   UNL     1      -7.490   3.698  71.679  1.00  0.00    -0.052 A  
HETATM   32  C   UNL     1      -6.761   2.432  71.374  1.00  0.00    -0.027 C  
HETATM   33  C   UNL     1      -8.306   4.314  70.692  1.00  0.00    -0.070 A  
HETATM   34  O   UNL     1      -6.148   2.249  70.338  1.00  0.00    -0.021 OA 
HETATM   35  I   UNL     1      -8.742   3.338  68.814  1.00  0.00    -0.199 I  
HETATM   36  O   UNL     1      -6.863   1.474  72.321  1.00  0.00    -0.014 OA 
ENDBRANCH  22  25
ENDBRANCH  20  21
ENDBRANCH  19  20
ENDBRANCH  18  19
ENDBRANCH  17  18
ENDBRANCH  15  17
ENDBRANCH   7  13
TORSDOF 7
ENDMDL
MODEL      125
REMARK 921   NORMALIZED FREE ENERGY PREDICTED BY IDOCK:   -4.25 KCAL/MOL
REMARK 922        TOTAL FREE ENERGY PREDICTED BY IDOCK:   -6.90 KCAL/MOL
REMARK 923 INTER-LIGAND FREE ENERGY PREDICTED BY IDOCK:   -5.52 KCAL/MOL
REMARK 924 INTRA-LIGAND FREE ENERGY PREDICTED BY IDOCK:   -1.38 KCAL/MOL
REMARK 927      BINDING AFFINITY PREDICTED BY RF-SCORE:    0.00 PKD
ROOT
HETATM    1  O   UNL     1      -8.703   1.469  66.313  1.00  0.00    -0.107 OA 
HETATM    2  C   UNL     1      -7.837   2.467  66.596  1.00  0.00    -0.072 C  
HETATM    3  C   UNL     1      -8.477   3.763  66.946  1.00  0.00    -0.105 A  
HETATM    4  O   UNL     1      -6.632   2.289  66.611  1.00  0.00    -0.036 OA 
HETATM    5  C   UNL     1      -8.068   4.486  68.099  1.00  0.00    -0.087 A  
HETATM    6  I   UNL     1      -6.640   3.659  69.494  1.00  0.00    -0.034 I  
HETATM    7  C   UNL     1      -8.643   5.745  68.433  1.00  0.00    -0.112 A  
HETATM    8  I   UNL     1     -10.097   3.520  64.274  1.00  0.00    -0.122 I  
HETATM    9  C   UNL     1      -9.627   6.280  67.582  1.00  0.00    -0.114 A  
HETATM   10  C   UNL     1      -9.457   4.337  66.117  1.00  0.00    -0.178 A  
HETATM   11  C   UNL     1     -10.037   5.569  66.445  1.00  0.00    -0.220 A  
HETATM   12  I   UNL     1     -10.399   8.239  67.733  1.00  0.00    -0.222 I  
ENDROOT
BRANCH   7  13
HETATM   13  N   UNL     1      -8.140   6.447  69.570  1.00  0.00    -0.116 N  
HETATM   14  O   UNL     1      -6.539   7.694  68.444  1.00  0.00    -0.050 OA 
HETATM   15  C   UNL     1      -7.127   7.390  69.478  1.00  0.00    -0.069 C  
HETATM   16  H   UNL     1      -8.542   6.248  70.486  1.00  0.00     0.000 HD 
BRANCH  15  17
HETATM   17  C   UNL     1      -6.889   8.166  70.767  1.00  0.00    -0.038 C  
BRANCH  17  18
HETATM   18  C   UNL     1      -5.679   9.083  70.610  1.00  0.00    -0.034 C  
BRANCH  18  19
HETATM   19  C   UNL     1      -5.970  10.576  70.800  1.00  0.00    -0.073 C  
BRANCH  19  20
HETATM   20  C   UNL     1      -5.912  11.418  69.522  1.00  0.00    -0.086 C  
BRANCH  20  21
HETATM   21  C   UNL     1      -7.251  11.377  68.793  1.00  0.00    -0.107 C  
HETATM   22  N   UNL     1      -7.233  12.022  67.564  1.00  0.00    -0.117 N  
HETATM   23  O   UNL     1      -8.253  10.886  69.300  1.00  0.00    -0.130 OA 
HETATM   24  H   UNL     1      -6.369  12.458  67.244  1.00  0.00     0.000 HD 
BRANCH  22  25
HETATM   25  C   UNL     1      -8.395  12.089  66.739  1.00  0.00    -0.135 A  
HETATM   26  C   UNL     1      -8.673  11.125  65.757  1.00  0.00    -0.150 A  
HETATM   27  I   UNL     1      -7.295   9.644  65.127  1.00  0.00    -0.132 I  
HETATM   28  C   UNL     1      -9.843  11.202  64.995  1.00  0.00    -0.315 A  
HETATM   29  C   UNL     1     -10.727  12.279  65.147  1.00  0.00    -0.293 A  
HETATM   30  I   UNL     1     -12.364  12.250  63.809  1.00  0.00    -0.475 I  
HETATM   31  C   UNL     1     -10.460  13.297  66.078  1.00  0.00    -0.289 A  
HETATM   32  C   UNL     1     -11.333  14.503  66.179  1.00  0.00    -0.348 C  
HETATM   33  C   UNL     1      -9.288  13.188  66.875  1.00  0.00    -0.246 A  
HETATM   34  O   UNL     1     -10.899  15.640  66.210  1.00  0.00    -0.315 OA 
HETATM   35  I   UNL     1      -8.849  14.611  68.441  1.00  0.00    -0.178 I  
HETATM   36  O   UNL     1     -12.655  14.242  66.277  1.00  0.00    -0.416 OA 
ENDBRANCH  22  25
ENDBRANCH  20  21
ENDBRANCH  19  20
ENDBRANCH  18  19
ENDBRANCH  17  18
ENDBRANCH  15  17
ENDBRANCH   7  13
TORSDOF 7
ENDMDL
MODEL      126
REMARK 921   NORMALIZED FREE ENERGY PREDICTED BY IDOCK:   -4.24 KCAL/MOL
REMARK 922        TOTAL FREE ENERGY PREDICTED BY IDOCK:   -6.89 KCAL/MOL
REMARK 923 INTER-LIGAND FREE ENERGY PREDICTED BY IDOCK:   -6.01 KCAL/MOL
REMARK 924 INTRA-LIGAND FREE ENERGY PREDICTED BY IDOCK:   -0.88 KCAL/MOL
REMARK 927      BINDING AFFINITY PREDICTED BY RF-SCORE:    0.00 PKD
ROOT
HETATM    1  O   UNL     1      -7.252   2.708  65.358  1.00  0.00    -0.059 OA 
HETATM    2  C   UNL     1      -6.839   3.755  66.105  1.00  0.00    -0.057 C  
HETATM    3  C   UNL     1      -7.295   5.084  65.615  1.00  0.00    -0.077 A  
HETATM    4  O   UNL     1      -6.191   3.604  67.126  1.00  0.00    -0.033 OA 
HETATM    5  C   UNL     1      -7.887   6.021  66.505  1.00  0.00    -0.104 A  
HETATM    6  I   UNL     1      -8.324   5.500  68.556  1.00  0.00    -0.099 I  
HETATM    7  C   UNL     1      -8.298   7.311  66.064  1.00  0.00    -0.140 A  
HETATM    8  I   UNL     1      -6.095   4.307  62.827  1.00  0.00    -0.018 I  
HETATM    9  C   UNL     1      -8.092   7.656  64.716  1.00  0.00    -0.121 A  
HETATM   10  C   UNL     1      -7.099   5.472  64.279  1.00  0.00    -0.049 A  
HETATM   11  C   UNL     1      -7.511   6.735  63.834  1.00  0.00    -0.094 A  
HETATM   12  I   UNL     1      -8.363   9.596  63.926  1.00  0.00    -0.234 I  
ENDROOT
BRANCH   7  13
HETATM   13  N   UNL     1      -8.826   8.226  67.024  1.00  0.00    -0.132 N  
HETATM   14  O   UNL     1     -11.066   7.707  66.708  1.00  0.00    -0.038 OA 
HETATM   15  C   UNL     1     -10.183   8.338  67.284  1.00  0.00    -0.274 C  
HETATM   16  H   UNL     1      -8.178   8.822  67.540  1.00  0.00     0.000 HD 
BRANCH  15  17
HETATM   17  C   UNL     1     -10.511   9.216  68.484  1.00  0.00    -0.238 C  
BRANCH  17  18
HETATM   18  C   UNL     1     -10.661  10.671  68.043  1.00  0.00    -0.275 C  
BRANCH  18  19
HETATM   19  C   UNL     1      -9.678  11.648  68.696  1.00  0.00    -0.151 C  
BRANCH  19  20
HETATM   20  C   UNL     1      -8.225  11.519  68.226  1.00  0.00    -0.152 C  
BRANCH  20  21
HETATM   21  C   UNL     1      -7.540  12.882  68.226  1.00  0.00    -0.134 C  
HETATM   22  N   UNL     1      -8.145  13.807  69.064  1.00  0.00    -0.341 N  
HETATM   23  O   UNL     1      -6.596  13.135  67.485  1.00  0.00    -0.159 OA 
HETATM   24  H   UNL     1      -8.966  13.530  69.601  1.00  0.00     0.000 HD 
BRANCH  22  25
HETATM   25  C   UNL     1      -7.644  15.137  69.193  1.00  0.00    -0.188 A  
HETATM   26  C   UNL     1      -6.431  15.421  69.840  1.00  0.00    -0.155 A  
HETATM   27  I   UNL     1      -5.341  14.012  70.986  1.00  0.00    -0.212 I  
HETATM   28  C   UNL     1      -5.953  16.733  69.911  1.00  0.00    -0.217 A  
HETATM   29  C   UNL     1      -6.707  17.799  69.401  1.00  0.00    -0.171 A  
HETATM   30  I   UNL     1      -5.845  19.703  69.726  1.00  0.00    -0.360 I  
HETATM   31  C   UNL     1      -7.954  17.567  68.795  1.00  0.00    -0.238 A  
HETATM   32  C   UNL     1      -8.817  18.697  68.342  1.00  0.00    -0.339 C  
HETATM   33  C   UNL     1      -8.412  16.226  68.693  1.00  0.00    -0.221 A  
HETATM   34  O   UNL     1     -10.004  18.776  68.604  1.00  0.00    -0.367 OA 
HETATM   35  I   UNL     1     -10.241  15.731  67.653  1.00  0.00    -0.283 I  
HETATM   36  O   UNL     1      -8.193  19.618  67.576  1.00  0.00    -0.280 OA 
ENDBRANCH  22  25
ENDBRANCH  20  21
ENDBRANCH  19  20
ENDBRANCH  18  19
ENDBRANCH  17  18
ENDBRANCH  15  17
ENDBRANCH   7  13
TORSDOF 7
ENDMDL
MODEL      127
REMARK 921   NORMALIZED FREE ENERGY PREDICTED BY IDOCK:   -4.21 KCAL/MOL
REMARK 922        TOTAL FREE ENERGY PREDICTED BY IDOCK:   -6.85 KCAL/MOL
REMARK 923 INTER-LIGAND FREE ENERGY PREDICTED BY IDOCK:   -5.34 KCAL/MOL
REMARK 924 INTRA-LIGAND FREE ENERGY PREDICTED BY IDOCK:   -1.51 KCAL/MOL
REMARK 927      BINDING AFFINITY PREDICTED BY RF-SCORE:    0.00 PKD
ROOT
HETATM    1  O   UNL     1      -9.959   3.487  64.945  1.00  0.00    -0.160 OA 
HETATM    2  C   UNL     1      -8.911   3.728  65.763  1.00  0.00    -0.124 C  
HETATM    3  C   UNL     1      -8.443   5.140  65.771  1.00  0.00    -0.124 A  
HETATM    4  O   UNL     1      -8.433   2.859  66.471  1.00  0.00    -0.092 OA 
HETATM    5  C   UNL     1      -8.218   5.823  66.997  1.00  0.00    -0.101 A  
HETATM    6  I   UNL     1      -8.721   4.918  68.894  1.00  0.00    -0.131 I  
HETATM    7  C   UNL     1      -7.737   7.163  67.028  1.00  0.00    -0.107 A  
HETATM    8  I   UNL     1      -8.253   4.944  62.649  1.00  0.00    -0.108 I  
HETATM    9  C   UNL     1      -7.467   7.806  65.806  1.00  0.00    -0.078 A  
HETATM   10  C   UNL     1      -8.151   5.816  64.573  1.00  0.00    -0.132 A  
HETATM   11  C   UNL     1      -7.689   7.138  64.594  1.00  0.00    -0.112 A  
HETATM   12  I   UNL     1      -6.489   9.669  65.629  1.00  0.00    -0.090 I  
ENDROOT
BRANCH   7  13
HETATM   13  N   UNL     1      -7.473   7.766  68.294  1.00  0.00    -0.101 N  
HETATM   14  O   UNL     1      -5.237   7.161  68.433  1.00  0.00    -0.018 OA 
HETATM   15  C   UNL     1      -6.223   7.731  68.893  1.00  0.00    -0.036 C  
HETATM   16  H   UNL     1      -8.234   8.243  68.777  1.00  0.00     0.000 HD 
BRANCH  15  17
HETATM   17  C   UNL     1      -6.108   8.610  70.132  1.00  0.00    -0.033 C  
BRANCH  17  18
HETATM   18  C   UNL     1      -5.538   9.975  69.753  1.00  0.00    -0.038 C  
BRANCH  18  19
HETATM   19  C   UNL     1      -6.109  11.155  70.546  1.00  0.00    -0.084 C  
BRANCH  19  20
HETATM   20  C   UNL     1      -5.636  12.538  70.086  1.00  0.00    -0.140 C  
BRANCH  20  21
HETATM   21  C   UNL     1      -6.398  12.977  68.840  1.00  0.00    -0.093 C  
HETATM   22  N   UNL     1      -7.691  13.406  69.102  1.00  0.00    -0.320 N  
HETATM   23  O   UNL     1      -5.919  12.874  67.716  1.00  0.00    -0.112 OA 
HETATM   24  H   UNL     1      -8.031  13.403  70.063  1.00  0.00     0.000 HD 
BRANCH  22  25
HETATM   25  C   UNL     1      -8.555  13.853  68.059  1.00  0.00    -0.178 A  
HETATM   26  C   UNL     1      -8.478  15.150  67.527  1.00  0.00    -0.170 A  
HETATM   27  I   UNL     1      -7.333  16.715  68.379  1.00  0.00    -0.229 I  
HETATM   28  C   UNL     1      -9.316  15.539  66.477  1.00  0.00    -0.311 A  
HETATM   29  C   UNL     1     -10.295  14.667  65.981  1.00  0.00    -0.305 A  
HETATM   30  I   UNL     1     -11.523  15.509  64.479  1.00  0.00     0.113 I  
HETATM   31  C   UNL     1     -10.446  13.379  66.523  1.00  0.00    -0.283 A  
HETATM   32  C   UNL     1     -11.549  12.477  66.081  1.00  0.00    -0.395 C  
HETATM   33  C   UNL     1      -9.563  12.980  67.563  1.00  0.00    -0.204 A  
HETATM   34  O   UNL     1     -12.271  11.876  66.857  1.00  0.00    -0.493 OA 
HETATM   35  I   UNL     1      -9.600  10.976  68.372  1.00  0.00    -0.199 I  
HETATM   36  O   UNL     1     -11.670  12.338  64.743  1.00  0.00    -0.350 OA 
ENDBRANCH  22  25
ENDBRANCH  20  21
ENDBRANCH  19  20
ENDBRANCH  18  19
ENDBRANCH  17  18
ENDBRANCH  15  17
ENDBRANCH   7  13
TORSDOF 7
ENDMDL
MODEL      128
REMARK 921   NORMALIZED FREE ENERGY PREDICTED BY IDOCK:   -4.19 KCAL/MOL
REMARK 922        TOTAL FREE ENERGY PREDICTED BY IDOCK:   -6.82 KCAL/MOL
REMARK 923 INTER-LIGAND FREE ENERGY PREDICTED BY IDOCK:   -5.62 KCAL/MOL
REMARK 924 INTRA-LIGAND FREE ENERGY PREDICTED BY IDOCK:   -1.20 KCAL/MOL
REMARK 927      BINDING AFFINITY PREDICTED BY RF-SCORE:    0.00 PKD
ROOT
HETATM    1  O   UNL     1      -7.805   5.073  62.812  1.00  0.00    -0.065 OA 
HETATM    2  C   UNL     1      -8.046   5.881  63.867  1.00  0.00    -0.098 C  
HETATM    3  C   UNL     1      -8.188   5.176  65.169  1.00  0.00    -0.132 A  
HETATM    4  O   UNL     1      -8.088   7.094  63.754  1.00  0.00    -0.099 OA 
HETATM    5  C   UNL     1      -7.480   5.623  66.318  1.00  0.00    -0.083 A  
HETATM    6  I   UNL     1      -6.029   7.219  66.191  1.00  0.00    -0.038 I  
HETATM    7  C   UNL     1      -7.628   4.984  67.582  1.00  0.00    -0.087 A  
HETATM    8  I   UNL     1     -10.340   3.364  63.789  1.00  0.00    -0.215 I  
HETATM    9  C   UNL     1      -8.513   3.895  67.682  1.00  0.00    -0.095 A  
HETATM   10  C   UNL     1      -9.069   4.090  65.316  1.00  0.00    -0.139 A  
HETATM   11  C   UNL     1      -9.211   3.448  66.552  1.00  0.00    -0.178 A  
HETATM   12  I   UNL     1      -9.092   2.992  69.501  1.00  0.00    -0.191 I  
ENDROOT
BRANCH   7  13
HETATM   13  N   UNL     1      -6.936   5.524  68.707  1.00  0.00    -0.059 N  
HETATM   14  O   UNL     1      -8.728   6.696  69.603  1.00  0.00    -0.137 OA 
HETATM   15  C   UNL     1      -7.556   6.333  69.648  1.00  0.00    -0.094 C  
HETATM   16  H   UNL     1      -5.947   5.307  68.824  1.00  0.00     0.000 HD 
BRANCH  15  17
HETATM   17  C   UNL     1      -6.696   6.626  70.871  1.00  0.00    -0.054 C  
BRANCH  17  18
HETATM   18  C   UNL     1      -6.599   8.134  71.093  1.00  0.00    -0.043 C  
BRANCH  18  19
HETATM   19  C   UNL     1      -6.115   8.935  69.881  1.00  0.00    -0.034 C  
BRANCH  19  20
HETATM   20  C   UNL     1      -6.410  10.438  69.934  1.00  0.00    -0.095 C  
BRANCH  20  21
HETATM   21  C   UNL     1      -7.111  10.892  68.658  1.00  0.00    -0.080 C  
HETATM   22  N   UNL     1      -8.382  11.407  68.876  1.00  0.00    -0.336 N  
HETATM   23  O   UNL     1      -6.612  10.732  67.550  1.00  0.00    -0.057 OA 
HETATM   24  H   UNL     1      -8.745  11.448  69.828  1.00  0.00     0.000 HD 
BRANCH  22  25
HETATM   25  C   UNL     1      -9.190  11.880  67.800  1.00  0.00    -0.184 A  
HETATM   26  C   UNL     1     -10.001  11.022  67.040  1.00  0.00    -0.190 A  
HETATM   27  I   UNL     1      -9.912   8.908  67.141  1.00  0.00    -0.360 I  
HETATM   28  C   UNL     1     -10.811  11.528  66.019  1.00  0.00    -0.330 A  
HETATM   29  C   UNL     1     -10.778  12.890  65.686  1.00  0.00    -0.274 A  
HETATM   30  I   UNL     1     -11.992  13.407  64.035  1.00  0.00    -0.394 I  
HETATM   31  C   UNL     1      -9.938  13.775  66.384  1.00  0.00    -0.301 A  
HETATM   32  C   UNL     1      -9.811  15.205  65.976  1.00  0.00    -0.320 C  
HETATM   33  C   UNL     1      -9.149  13.257  67.446  1.00  0.00    -0.216 A  
HETATM   34  O   UNL     1      -8.739  15.766  65.839  1.00  0.00    -0.260 OA 
HETATM   35  I   UNL     1      -7.932  14.544  68.684  1.00  0.00    -0.103 I  
HETATM   36  O   UNL     1     -10.982  15.855  65.805  1.00  0.00    -0.278 OA 
ENDBRANCH  22  25
ENDBRANCH  20  21
ENDBRANCH  19  20
ENDBRANCH  18  19
ENDBRANCH  17  18
ENDBRANCH  15  17
ENDBRANCH   7  13
TORSDOF 7
ENDMDL
MODEL      129
REMARK 921   NORMALIZED FREE ENERGY PREDICTED BY IDOCK:   -4.18 KCAL/MOL
REMARK 922        TOTAL FREE ENERGY PREDICTED BY IDOCK:   -6.82 KCAL/MOL
REMARK 923 INTER-LIGAND FREE ENERGY PREDICTED BY IDOCK:   -5.58 KCAL/MOL
REMARK 924 INTRA-LIGAND FREE ENERGY PREDICTED BY IDOCK:   -1.23 KCAL/MOL
REMARK 927      BINDING AFFINITY PREDICTED BY RF-SCORE:    0.00 PKD
ROOT
HETATM    1  O   UNL     1      -7.456  15.471  67.989  1.00  0.00    -0.116 OA 
HETATM    2  C   UNL     1      -7.973  14.230  68.121  1.00  0.00    -0.140 C  
HETATM    3  C   UNL     1      -8.923  13.837  67.046  1.00  0.00    -0.247 A  
HETATM    4  O   UNL     1      -7.638  13.484  69.024  1.00  0.00    -0.049 OA 
HETATM    5  C   UNL     1      -8.796  12.584  66.387  1.00  0.00    -0.013 A  
HETATM    6  I   UNL     1      -7.121  11.276  66.778  1.00  0.00    -0.048 I  
HETATM    7  C   UNL     1      -9.715  12.173  65.380  1.00  0.00    -0.162 A  
HETATM    8  I   UNL     1     -10.482  16.487  67.653  1.00  0.00    -0.257 I  
HETATM    9  C   UNL     1     -10.779  13.033  65.052  1.00  0.00    -0.315 A  
HETATM   10  C   UNL     1     -10.005  14.663  66.694  1.00  0.00    -0.274 A  
HETATM   11  C   UNL     1     -10.907  14.272  65.696  1.00  0.00    -0.311 A  
HETATM   12  I   UNL     1     -12.399  12.506  63.806  1.00  0.00    -0.493 I  
ENDROOT
BRANCH   7  13
HETATM   13  N   UNL     1      -9.566  10.875  64.806  1.00  0.00    -0.234 N  
HETATM   14  O   UNL     1      -8.912  11.575  62.692  1.00  0.00    -0.310 OA 
HETATM   15  C   UNL     1      -9.154  10.679  63.497  1.00  0.00    -0.238 C  
HETATM   16  H   UNL     1      -9.771  10.059  65.382  1.00  0.00     0.000 HD 
BRANCH  15  17
HETATM   17  C   UNL     1      -8.860   9.224  63.154  1.00  0.00    -0.163 C  
BRANCH  17  18
HETATM   18  C   UNL     1      -8.157   8.542  64.325  1.00  0.00    -0.155 C  
BRANCH  18  19
HETATM   19  C   UNL     1      -7.837   7.059  64.111  1.00  0.00    -0.106 C  
BRANCH  19  20
HETATM   20  C   UNL     1      -6.961   6.420  65.193  1.00  0.00    -0.052 C  
BRANCH  20  21
HETATM   21  C   UNL     1      -7.797   6.060  66.417  1.00  0.00    -0.104 C  
HETATM   22  N   UNL     1      -7.488   6.812  67.541  1.00  0.00    -0.095 N  
HETATM   23  O   UNL     1      -8.603   5.136  66.405  1.00  0.00    -0.112 OA 
HETATM   24  H   UNL     1      -6.759   7.522  67.479  1.00  0.00     0.000 HD 
BRANCH  22  25
HETATM   25  C   UNL     1      -8.165   6.615  68.781  1.00  0.00    -0.120 A  
HETATM   26  C   UNL     1      -9.427   7.172  69.041  1.00  0.00    -0.143 A  
HETATM   27  I   UNL     1     -10.358   8.625  67.812  1.00  0.00    -0.232 I  
HETATM   28  C   UNL     1     -10.078   6.924  70.254  1.00  0.00    -0.196 A  
HETATM   29  C   UNL     1      -9.457   6.172  71.260  1.00  0.00    -0.163 A  
HETATM   30  I   UNL     1     -10.575   6.026  73.048  1.00  0.00    -0.312 I  
HETATM   31  C   UNL     1      -8.169   5.642  71.064  1.00  0.00    -0.121 A  
HETATM   32  C   UNL     1      -7.450   4.929  72.160  1.00  0.00    -0.088 C  
HETATM   33  C   UNL     1      -7.533   5.867  69.813  1.00  0.00    -0.080 A  
HETATM   34  O   UNL     1      -6.294   5.166  72.463  1.00  0.00    -0.036 OA 
HETATM   35  I   UNL     1      -5.620   4.979  69.341  1.00  0.00    -0.009 I  
HETATM   36  O   UNL     1      -8.165   3.962  72.776  1.00  0.00    -0.091 OA 
ENDBRANCH  22  25
ENDBRANCH  20  21
ENDBRANCH  19  20
ENDBRANCH  18  19
ENDBRANCH  17  18
ENDBRANCH  15  17
ENDBRANCH   7  13
TORSDOF 7
ENDMDL
MODEL      130
REMARK 921   NORMALIZED FREE ENERGY PREDICTED BY IDOCK:   -4.18 KCAL/MOL
REMARK 922        TOTAL FREE ENERGY PREDICTED BY IDOCK:   -6.81 KCAL/MOL
REMARK 923 INTER-LIGAND FREE ENERGY PREDICTED BY IDOCK:   -5.81 KCAL/MOL
REMARK 924 INTRA-LIGAND FREE ENERGY PREDICTED BY IDOCK:   -1.00 KCAL/MOL
REMARK 927      BINDING AFFINITY PREDICTED BY RF-SCORE:    0.00 PKD
ROOT
HETATM    1  O   UNL     1     -12.199   5.133  73.044  1.00  0.00    -0.108 OA 
HETATM    2  C   UNL     1     -11.061   5.853  72.939  1.00  0.00    -0.269 C  
HETATM    3  C   UNL     1      -9.932   5.136  72.287  1.00  0.00    -0.228 A  
HETATM    4  O   UNL     1     -10.996   7.013  73.304  1.00  0.00    -0.303 OA 
HETATM    5  C   UNL     1      -9.186   5.751  71.245  1.00  0.00    -0.146 A  
HETATM    6  I   UNL     1      -9.765   7.667  70.432  1.00  0.00    -0.178 I  
HETATM    7  C   UNL     1      -8.080   5.097  70.632  1.00  0.00    -0.106 A  
HETATM    8  I   UNL     1     -10.390   2.830  74.359  1.00  0.00    -0.156 I  
HETATM    9  C   UNL     1      -7.720   3.817  71.092  1.00  0.00    -0.058 A  
HETATM   10  C   UNL     1      -9.533   3.860  72.722  1.00  0.00    -0.122 A  
HETATM   11  C   UNL     1      -8.454   3.204  72.117  1.00  0.00    -0.084 A  
HETATM   12  I   UNL     1      -5.960   2.797  70.526  1.00  0.00    -0.020 I  
ENDROOT
BRANCH   7  13
HETATM   13  N   UNL     1      -7.336   5.798  69.637  1.00  0.00    -0.069 N  
HETATM   14  O   UNL     1      -8.065   4.561  67.814  1.00  0.00    -0.097 OA 
HETATM   15  C   UNL     1      -7.403   5.481  68.289  1.00  0.00    -0.073 C  
HETATM   16  H   UNL     1      -6.729   6.565  69.929  1.00  0.00     0.000 HD 
BRANCH  15  17
HETATM   17  C   UNL     1      -6.698   6.481  67.383  1.00  0.00    -0.067 C  
BRANCH  17  18
HETATM   18  C   UNL     1      -6.515   7.810  68.113  1.00  0.00    -0.054 C  
BRANCH  18  19
HETATM   19  C   UNL     1      -5.240   8.577  67.748  1.00  0.00    -0.034 C  
BRANCH  19  20
HETATM   20  C   UNL     1      -5.270  10.076  68.064  1.00  0.00    -0.035 C  
BRANCH  20  21
HETATM   21  C   UNL     1      -6.293  10.788  67.184  1.00  0.00    -0.072 C  
HETATM   22  N   UNL     1      -7.467  11.111  67.850  1.00  0.00    -0.091 N  
HETATM   23  O   UNL     1      -6.104  10.973  65.987  1.00  0.00    -0.136 OA 
HETATM   24  H   UNL     1      -7.564  10.866  68.834  1.00  0.00     0.000 HD 
BRANCH  22  25
HETATM   25  C   UNL     1      -8.540  11.779  67.188  1.00  0.00    -0.168 A  
HETATM   26  C   UNL     1      -9.587  11.080  66.568  1.00  0.00    -0.195 A  
HETATM   27  I   UNL     1      -9.580   8.988  66.230  1.00  0.00    -0.311 I  
HETATM   28  C   UNL     1     -10.643  11.769  65.964  1.00  0.00    -0.302 A  
HETATM   29  C   UNL     1     -10.644  13.170  65.904  1.00  0.00    -0.280 A  
HETATM   30  I   UNL     1     -12.277  13.990  64.840  1.00  0.00    -0.431 I  
HETATM   31  C   UNL     1      -9.586  13.909  66.462  1.00  0.00    -0.299 A  
HETATM   32  C   UNL     1      -9.517  15.392  66.316  1.00  0.00    -0.309 C  
HETATM   33  C   UNL     1      -8.538  13.199  67.108  1.00  0.00    -0.192 A  
HETATM   34  O   UNL     1      -8.511  15.981  65.964  1.00  0.00    -0.302 OA 
HETATM   35  I   UNL     1      -6.937  14.230  68.131  1.00  0.00    -0.202 I  
HETATM   36  O   UNL     1     -10.650  16.050  66.644  1.00  0.00    -0.317 OA 
ENDBRANCH  22  25
ENDBRANCH  20  21
ENDBRANCH  19  20
ENDBRANCH  18  19
ENDBRANCH  17  18
ENDBRANCH  15  17
ENDBRANCH   7  13
TORSDOF 7
ENDMDL
MODEL      131
REMARK 921   NORMALIZED FREE ENERGY PREDICTED BY IDOCK:   -4.15 KCAL/MOL
REMARK 922        TOTAL FREE ENERGY PREDICTED BY IDOCK:   -6.77 KCAL/MOL
REMARK 923 INTER-LIGAND FREE ENERGY PREDICTED BY IDOCK:   -5.85 KCAL/MOL
REMARK 924 INTRA-LIGAND FREE ENERGY PREDICTED BY IDOCK:   -0.92 KCAL/MOL
REMARK 927      BINDING AFFINITY PREDICTED BY RF-SCORE:    0.00 PKD
ROOT
HETATM    1  O   UNL     1     -12.887   6.521  72.066  1.00  0.00    -0.276 OA 
HETATM    2  C   UNL     1     -12.017   7.549  72.180  1.00  0.00    -0.285 C  
HETATM    3  C   UNL     1     -10.676   7.292  71.590  1.00  0.00    -0.239 A  
HETATM    4  O   UNL     1     -12.338   8.612  72.680  1.00  0.00    -0.372 OA 
HETATM    5  C   UNL     1     -10.071   8.242  70.722  1.00  0.00    -0.190 A  
HETATM    6  I   UNL     1     -11.139  10.004  70.069  1.00  0.00    -0.389 I  
HETATM    7  C   UNL     1      -8.774   8.033  70.175  1.00  0.00    -0.135 A  
HETATM    8  I   UNL     1     -10.575   4.678  73.315  1.00  0.00    -0.381 I  
HETATM    9  C   UNL     1      -8.080   6.861  70.525  1.00  0.00    -0.115 A  
HETATM   10  C   UNL     1      -9.944   6.139  71.922  1.00  0.00    -0.164 A  
HETATM   11  C   UNL     1      -8.672   5.919  71.378  1.00  0.00    -0.133 A  
HETATM   12  I   UNL     1      -6.054   6.489  70.060  1.00  0.00    -0.033 I  
ENDROOT
BRANCH   7  13
HETATM   13  N   UNL     1      -8.201   9.057  69.362  1.00  0.00    -0.114 N  
HETATM   14  O   UNL     1      -6.982  10.099  71.039  1.00  0.00    -0.320 OA 
HETATM   15  C   UNL     1      -7.326  10.008  69.864  1.00  0.00    -0.161 C  
HETATM   16  H   UNL     1      -8.444   9.090  68.372  1.00  0.00     0.000 HD 
BRANCH  15  17
HETATM   17  C   UNL     1      -6.673  10.872  68.792  1.00  0.00    -0.062 C  
BRANCH  17  18
HETATM   18  C   UNL     1      -7.731  11.715  68.084  1.00  0.00    -0.122 C  
BRANCH  18  19
HETATM   19  C   UNL     1      -8.763  10.916  67.282  1.00  0.00    -0.131 C  
BRANCH  19  20
HETATM   20  C   UNL     1      -8.701  11.112  65.764  1.00  0.00    -0.153 C  
BRANCH  20  21
HETATM   21  C   UNL     1      -8.639   9.765  65.051  1.00  0.00    -0.162 C  
HETATM   22  N   UNL     1      -7.976   8.785  65.776  1.00  0.00    -0.102 N  
HETATM   23  O   UNL     1      -9.069   9.611  63.913  1.00  0.00    -0.239 OA 
HETATM   24  H   UNL     1      -7.594   9.016  66.692  1.00  0.00     0.000 HD 
BRANCH  22  25
HETATM   25  C   UNL     1      -7.816   7.461  65.268  1.00  0.00    -0.121 A  
HETATM   26  C   UNL     1      -6.758   7.109  64.415  1.00  0.00    -0.046 A  
HETATM   27  I   UNL     1      -5.457   8.508  63.501  1.00  0.00    -0.064 I  
HETATM   28  C   UNL     1      -6.612   5.792  63.970  1.00  0.00    -0.037 A  
HETATM   29  C   UNL     1      -7.555   4.812  64.308  1.00  0.00    -0.073 A  
HETATM   30  I   UNL     1      -7.196   2.924  63.427  1.00  0.00    -0.051 I  
HETATM   31  C   UNL     1      -8.661   5.133  65.114  1.00  0.00    -0.151 A  
HETATM   32  C   UNL     1      -9.730   4.130  65.397  1.00  0.00    -0.201 C  
HETATM   33  C   UNL     1      -8.779   6.465  65.593  1.00  0.00    -0.099 A  
HETATM   34  O   UNL     1     -10.918   4.373  65.286  1.00  0.00    -0.250 OA 
HETATM   35  I   UNL     1     -10.353   7.042  66.958  1.00  0.00    -0.327 I  
HETATM   36  O   UNL     1      -9.285   2.931  65.831  1.00  0.00    -0.152 OA 
ENDBRANCH  22  25
ENDBRANCH  20  21
ENDBRANCH  19  20
ENDBRANCH  18  19
ENDBRANCH  17  18
ENDBRANCH  15  17
ENDBRANCH   7  13
TORSDOF 7
ENDMDL
MODEL      132
REMARK 921   NORMALIZED FREE ENERGY PREDICTED BY IDOCK:   -4.15 KCAL/MOL
REMARK 922        TOTAL FREE ENERGY PREDICTED BY IDOCK:   -6.76 KCAL/MOL
REMARK 923 INTER-LIGAND FREE ENERGY PREDICTED BY IDOCK:   -5.86 KCAL/MOL
REMARK 924 INTRA-LIGAND FREE ENERGY PREDICTED BY IDOCK:   -0.91 KCAL/MOL
REMARK 927      BINDING AFFINITY PREDICTED BY RF-SCORE:    0.00 PKD
ROOT
HETATM    1  O   UNL     1      -7.027  16.996  67.271  1.00  0.00    -0.143 OA 
HETATM    2  C   UNL     1      -7.593  15.959  67.926  1.00  0.00    -0.133 C  
HETATM    3  C   UNL     1      -8.668  15.263  67.170  1.00  0.00    -0.234 A  
HETATM    4  O   UNL     1      -7.205  15.602  69.024  1.00  0.00    -0.135 OA 
HETATM    5  C   UNL     1      -8.677  13.846  67.060  1.00  0.00    -0.200 A  
HETATM    6  I   UNL     1      -7.042  12.652  67.815  1.00  0.00    -0.163 I  
HETATM    7  C   UNL     1      -9.716  13.157  66.372  1.00  0.00    -0.269 A  
HETATM    8  I   UNL     1     -10.013  18.066  66.782  1.00  0.00    -0.407 I  
HETATM    9  C   UNL     1     -10.761  13.911  65.808  1.00  0.00    -0.289 A  
HETATM   10  C   UNL     1      -9.736  15.978  66.600  1.00  0.00    -0.244 A  
HETATM   11  C   UNL     1     -10.756  15.309  65.911  1.00  0.00    -0.340 A  
HETATM   12  I   UNL     1     -12.528  13.084  65.000  1.00  0.00    -0.336 I  
ENDROOT
BRANCH   7  13
HETATM   13  N   UNL     1      -9.696  11.730  66.355  1.00  0.00    -0.209 N  
HETATM   14  O   UNL     1      -9.393  11.479  64.068  1.00  0.00    -0.134 OA 
HETATM   15  C   UNL     1      -9.516  10.998  65.191  1.00  0.00    -0.228 C  
HETATM   16  H   UNL     1      -9.819  11.228  67.234  1.00  0.00     0.000 HD 
BRANCH  15  17
HETATM   17  C   UNL     1      -9.318   9.506  65.425  1.00  0.00    -0.324 C  
BRANCH  17  18
HETATM   18  C   UNL     1      -7.987   9.054  64.827  1.00  0.00    -0.129 C  
BRANCH  18  19
HETATM   19  C   UNL     1      -7.653   7.574  65.040  1.00  0.00    -0.098 C  
BRANCH  19  20
HETATM   20  C   UNL     1      -6.377   7.304  65.843  1.00  0.00    -0.041 C  
BRANCH  20  21
HETATM   21  C   UNL     1      -6.677   6.411  67.042  1.00  0.00    -0.060 C  
HETATM   22  N   UNL     1      -8.004   6.012  67.118  1.00  0.00    -0.102 N  
HETATM   23  O   UNL     1      -5.828   6.152  67.888  1.00  0.00    -0.011 OA 
HETATM   24  H   UNL     1      -8.659   6.324  66.402  1.00  0.00     0.000 HD 
BRANCH  22  25
HETATM   25  C   UNL     1      -8.472   5.175  68.174  1.00  0.00    -0.099 A  
HETATM   26  C   UNL     1      -8.256   3.788  68.182  1.00  0.00    -0.083 A  
HETATM   27  I   UNL     1      -7.518   2.693  66.524  1.00  0.00    -0.072 I  
HETATM   28  C   UNL     1      -8.695   3.005  69.254  1.00  0.00    -0.134 A  
HETATM   29  C   UNL     1      -9.419   3.577  70.309  1.00  0.00    -0.183 A  
HETATM   30  I   UNL     1     -10.083   2.187  71.757  1.00  0.00     0.226 I  
HETATM   31  C   UNL     1      -9.708   4.953  70.315  1.00  0.00    -0.287 A  
HETATM   32  C   UNL     1     -10.566   5.560  71.374  1.00  0.00    -0.243 C  
HETATM   33  C   UNL     1      -9.222   5.745  69.240  1.00  0.00    -0.117 A  
HETATM   34  O   UNL     1     -11.491   6.314  71.131  1.00  0.00    -0.310 OA 
HETATM   35  I   UNL     1      -9.474   7.892  69.213  1.00  0.00    -0.153 I  
HETATM   36  O   UNL     1     -10.217   5.244  72.640  1.00  0.00    -0.172 OA 
ENDBRANCH  22  25
ENDBRANCH  20  21
ENDBRANCH  19  20
ENDBRANCH  18  19
ENDBRANCH  17  18
ENDBRANCH  15  17
ENDBRANCH   7  13
TORSDOF 7
ENDMDL
MODEL      133
REMARK 921   NORMALIZED FREE ENERGY PREDICTED BY IDOCK:   -4.15 KCAL/MOL
REMARK 922        TOTAL FREE ENERGY PREDICTED BY IDOCK:   -6.76 KCAL/MOL
REMARK 923 INTER-LIGAND FREE ENERGY PREDICTED BY IDOCK:   -5.67 KCAL/MOL
REMARK 924 INTRA-LIGAND FREE ENERGY PREDICTED BY IDOCK:   -1.09 KCAL/MOL
REMARK 927      BINDING AFFINITY PREDICTED BY RF-SCORE:    0.00 PKD
ROOT
HETATM    1  O   UNL     1      -9.176  19.459  68.709  1.00  0.00    -0.368 OA 
HETATM    2  C   UNL     1      -9.665  18.421  67.997  1.00  0.00    -0.316 C  
HETATM    3  C   UNL     1      -8.855  17.176  68.080  1.00  0.00    -0.237 A  
HETATM    4  O   UNL     1     -10.715  18.497  67.383  1.00  0.00    -0.425 OA 
HETATM    5  C   UNL     1      -9.472  15.926  68.357  1.00  0.00    -0.201 A  
HETATM    6  I   UNL     1     -11.571  15.796  68.853  1.00  0.00    -0.219 I  
HETATM    7  C   UNL     1      -8.721  14.717  68.407  1.00  0.00    -0.175 A  
HETATM    8  I   UNL     1      -6.379  18.901  67.237  1.00  0.00    -0.204 I  
HETATM    9  C   UNL     1      -7.338  14.777  68.157  1.00  0.00    -0.119 A  
HETATM   10  C   UNL     1      -7.472  17.190  67.828  1.00  0.00    -0.174 A  
HETATM   11  C   UNL     1      -6.723  16.008  67.887  1.00  0.00    -0.158 A  
HETATM   12  I   UNL     1      -6.096  13.088  67.903  1.00  0.00    -0.137 I  
ENDROOT
BRANCH   7  13
HETATM   13  N   UNL     1      -9.414  13.489  68.626  1.00  0.00    -0.386 N  
HETATM   14  O   UNL     1      -9.846  13.007  66.398  1.00  0.00    -0.259 OA 
HETATM   15  C   UNL     1      -9.911  12.715  67.589  1.00  0.00    -0.210 C  
HETATM   16  H   UNL     1      -9.549  13.168  69.585  1.00  0.00     0.000 HD 
BRANCH  15  17
HETATM   17  C   UNL     1     -10.426  11.351  68.030  1.00  0.00    -0.215 C  
BRANCH  17  18
HETATM   18  C   UNL     1     -10.086  11.112  69.499  1.00  0.00     0.105 C  
BRANCH  18  19
HETATM   19  C   UNL     1     -10.123   9.645  69.941  1.00  0.00    -0.279 C  
BRANCH  19  20
HETATM   20  C   UNL     1      -8.805   9.103  70.504  1.00  0.00    -0.263 C  
BRANCH  20  21
HETATM   21  C   UNL     1      -8.140   8.165  69.501  1.00  0.00    -0.119 C  
HETATM   22  N   UNL     1      -8.922   7.902  68.385  1.00  0.00    -0.133 N  
HETATM   23  O   UNL     1      -7.053   7.643  69.721  1.00  0.00    -0.063 OA 
HETATM   24  H   UNL     1      -9.843   8.332  68.310  1.00  0.00     0.000 HD 
BRANCH  22  25
HETATM   25  C   UNL     1      -8.466   7.044  67.340  1.00  0.00    -0.122 A  
HETATM   26  C   UNL     1      -8.679   5.656  67.365  1.00  0.00    -0.107 A  
HETATM   27  I   UNL     1      -9.390   4.596  69.056  1.00  0.00    -0.243 I  
HETATM   28  C   UNL     1      -8.253   4.852  66.304  1.00  0.00    -0.108 A  
HETATM   29  C   UNL     1      -7.545   5.403  65.226  1.00  0.00    -0.079 A  
HETATM   30  I   UNL     1      -6.898   3.984  63.799  1.00  0.00    -0.046 I  
HETATM   31  C   UNL     1      -7.260   6.779  65.188  1.00  0.00    -0.074 A  
HETATM   32  C   UNL     1      -6.418   7.365  64.104  1.00  0.00    -0.048 C  
HETATM   33  C   UNL     1      -7.732   7.593  66.253  1.00  0.00    -0.089 A  
HETATM   34  O   UNL     1      -5.492   8.127  64.318  1.00  0.00    -0.043 OA 
HETATM   35  I   UNL     1      -7.485   9.740  66.231  1.00  0.00    -0.109 I  
HETATM   36  O   UNL     1      -6.784   7.022  62.850  1.00  0.00    -0.049 OA 
ENDBRANCH  22  25
ENDBRANCH  20  21
ENDBRANCH  19  20
ENDBRANCH  18  19
ENDBRANCH  17  18
ENDBRANCH  15  17
ENDBRANCH   7  13
TORSDOF 7
ENDMDL
MODEL      134
REMARK 921   NORMALIZED FREE ENERGY PREDICTED BY IDOCK:   -4.14 KCAL/MOL
REMARK 922        TOTAL FREE ENERGY PREDICTED BY IDOCK:   -6.75 KCAL/MOL
REMARK 923 INTER-LIGAND FREE ENERGY PREDICTED BY IDOCK:   -5.54 KCAL/MOL
REMARK 924 INTRA-LIGAND FREE ENERGY PREDICTED BY IDOCK:   -1.21 KCAL/MOL
REMARK 927      BINDING AFFINITY PREDICTED BY RF-SCORE:    0.00 PKD
ROOT
HETATM    1  O   UNL     1      -7.182   9.778  63.256  1.00  0.00    -0.112 OA 
HETATM    2  C   UNL     1      -6.721   9.470  64.488  1.00  0.00    -0.095 C  
HETATM    3  C   UNL     1      -7.639   8.626  65.300  1.00  0.00    -0.088 A  
HETATM    4  O   UNL     1      -5.618   9.819  64.869  1.00  0.00    -0.062 OA 
HETATM    5  C   UNL     1      -7.158   7.468  65.969  1.00  0.00    -0.069 A  
HETATM    6  I   UNL     1      -5.131   6.773  65.692  1.00  0.00    -0.024 I  
HETATM    7  C   UNL     1      -8.011   6.666  66.779  1.00  0.00    -0.108 A  
HETATM    8  I   UNL     1      -9.872  10.745  64.715  1.00  0.00    -0.428 I  
HETATM    9  C   UNL     1      -9.355   7.053  66.924  1.00  0.00    -0.153 A  
HETATM   10  C   UNL     1      -8.987   8.982  65.478  1.00  0.00    -0.204 A  
HETATM   11  C   UNL     1      -9.836   8.192  66.264  1.00  0.00    -0.193 A  
HETATM   12  I   UNL     1     -10.708   6.179  68.289  1.00  0.00    -0.312 I  
ENDROOT
BRANCH   7  13
HETATM   13  N   UNL     1      -7.447   5.554  67.474  1.00  0.00    -0.083 N  
HETATM   14  O   UNL     1      -6.383   6.771  69.139  1.00  0.00    -0.032 OA 
HETATM   15  C   UNL     1      -6.684   5.698  68.622  1.00  0.00    -0.057 C  
HETATM   16  H   UNL     1      -7.613   4.615  67.111  1.00  0.00     0.000 HD 
BRANCH  15  17
HETATM   17  C   UNL     1      -6.360   4.381  69.317  1.00  0.00    -0.032 C  
BRANCH  17  18
HETATM   18  C   UNL     1      -6.267   4.594  70.826  1.00  0.00    -0.019 C  
BRANCH  18  19
HETATM   19  C   UNL     1      -7.376   5.466  71.425  1.00  0.00    -0.080 C  
BRANCH  19  20
HETATM   20  C   UNL     1      -6.891   6.610  72.322  1.00  0.00    -0.067 C  
BRANCH  20  21
HETATM   21  C   UNL     1      -7.615   7.906  71.976  1.00  0.00    -0.083 C  
HETATM   22  N   UNL     1      -8.340   7.839  70.794  1.00  0.00    -0.114 N  
HETATM   23  O   UNL     1      -7.489   8.922  72.651  1.00  0.00    -0.354 OA 
HETATM   24  H   UNL     1      -8.342   6.970  70.261  1.00  0.00     0.000 HD 
BRANCH  22  25
HETATM   25  C   UNL     1      -9.081   8.956  70.308  1.00  0.00    -0.181 A  
HETATM   26  C   UNL     1      -8.528   9.893  69.421  1.00  0.00    -0.165 A  
HETATM   27  I   UNL     1      -6.469   9.990  68.931  1.00  0.00    -0.051 I  
HETATM   28  C   UNL     1      -9.299  10.953  68.934  1.00  0.00    -0.169 A  
HETATM   29  C   UNL     1     -10.615  11.144  69.376  1.00  0.00    -0.134 A  
HETATM   30  I   UNL     1     -11.546  12.877  68.600  1.00  0.00    -0.371 I  
HETATM   31  C   UNL     1     -11.191  10.263  70.308  1.00  0.00    -0.395 A  
HETATM   32  C   UNL     1     -12.552  10.510  70.868  1.00  0.00    -0.398 C  
HETATM   33  C   UNL     1     -10.412   9.166  70.765  1.00  0.00    -0.257 A  
HETATM   34  O   UNL     1     -12.803  10.454  72.058  1.00  0.00    -0.431 OA 
HETATM   35  I   UNL     1     -11.237   7.664  72.082  1.00  0.00    -0.431 I  
HETATM   36  O   UNL     1     -13.509  10.762  69.949  1.00  0.00     0.208 OA 
ENDBRANCH  22  25
ENDBRANCH  20  21
ENDBRANCH  19  20
ENDBRANCH  18  19
ENDBRANCH  17  18
ENDBRANCH  15  17
ENDBRANCH   7  13
TORSDOF 7
ENDMDL
MODEL      135
REMARK 921   NORMALIZED FREE ENERGY PREDICTED BY IDOCK:   -4.13 KCAL/MOL
REMARK 922        TOTAL FREE ENERGY PREDICTED BY IDOCK:   -6.74 KCAL/MOL
REMARK 923 INTER-LIGAND FREE ENERGY PREDICTED BY IDOCK:   -5.86 KCAL/MOL
REMARK 924 INTRA-LIGAND FREE ENERGY PREDICTED BY IDOCK:   -0.88 KCAL/MOL
REMARK 927      BINDING AFFINITY PREDICTED BY RF-SCORE:    0.00 PKD
ROOT
HETATM    1  O   UNL     1     -10.573  16.071  64.726  1.00  0.00    -0.600 OA 
HETATM    2  C   UNL     1     -10.515  15.512  65.955  1.00  0.00    -0.342 C  
HETATM    3  C   UNL     1     -10.057  14.097  65.969  1.00  0.00    -0.330 A  
HETATM    4  O   UNL     1     -10.768  16.145  66.964  1.00  0.00    -0.313 OA 
HETATM    5  C   UNL     1      -9.042  13.671  66.869  1.00  0.00    -0.240 A  
HETATM    6  I   UNL     1      -7.988  15.083  68.119  1.00  0.00    -0.177 I  
HETATM    7  C   UNL     1      -8.614  12.314  66.924  1.00  0.00    -0.182 A  
HETATM    8  I   UNL     1     -12.289  13.504  63.851  1.00  0.00    -0.020 I  
HETATM    9  C   UNL     1      -9.233  11.381  66.072  1.00  0.00    -0.214 A  
HETATM   10  C   UNL     1     -10.656  13.131  65.142  1.00  0.00    -0.319 A  
HETATM   11  C   UNL     1     -10.233  11.796  65.181  1.00  0.00    -0.309 A  
HETATM   12  I   UNL     1      -8.955   9.291  66.188  1.00  0.00    -0.266 I  
ENDROOT
BRANCH   7  13
HETATM   13  N   UNL     1      -7.637  11.944  67.896  1.00  0.00    -0.118 N  
HETATM   14  O   UNL     1      -5.838  11.784  66.439  1.00  0.00    -0.212 OA 
HETATM   15  C   UNL     1      -6.307  11.723  67.572  1.00  0.00    -0.095 C  
HETATM   16  H   UNL     1      -7.928  11.838  68.867  1.00  0.00     0.000 HD 
BRANCH  15  17
HETATM   17  C   UNL     1      -5.399  11.546  68.782  1.00  0.00    -0.042 C  
BRANCH  17  18
HETATM   18  C   UNL     1      -5.694  10.213  69.467  1.00  0.00    -0.037 C  
BRANCH  18  19
HETATM   19  C   UNL     1      -6.812  10.258  70.513  1.00  0.00    -0.047 C  
BRANCH  19  20
HETATM   20  C   UNL     1      -8.064   9.448  70.161  1.00  0.00    -0.167 C  
BRANCH  20  21
HETATM   21  C   UNL     1      -8.276   8.323  71.170  1.00  0.00    -0.120 C  
HETATM   22  N   UNL     1      -7.689   7.123  70.793  1.00  0.00    -0.092 N  
HETATM   23  O   UNL     1      -8.969   8.469  72.170  1.00  0.00    -0.207 OA 
HETATM   24  H   UNL     1      -7.180   7.074  69.912  1.00  0.00     0.000 HD 
BRANCH  22  25
HETATM   25  C   UNL     1      -7.784   5.958  71.610  1.00  0.00    -0.101 A  
HETATM   26  C   UNL     1      -7.006   5.789  72.767  1.00  0.00    -0.080 A  
HETATM   27  I   UNL     1      -5.379   7.040  73.294  1.00  0.00    -0.042 I  
HETATM   28  C   UNL     1      -7.155   4.651  73.565  1.00  0.00    -0.072 A  
HETATM   29  C   UNL     1      -8.032   3.623  73.191  1.00  0.00    -0.075 A  
HETATM   30  I   UNL     1      -8.005   1.950  74.483  1.00  0.00    -0.046 I  
HETATM   31  C   UNL     1      -8.789   3.724  72.011  1.00  0.00    -0.131 A  
HETATM   32  C   UNL     1      -9.647   2.597  71.543  1.00  0.00    -0.151 C  
HETATM   33  C   UNL     1      -8.659   4.903  71.228  1.00  0.00    -0.123 A  
HETATM   34  O   UNL     1      -9.637   2.183  70.397  1.00  0.00    -0.114 OA 
HETATM   35  I   UNL     1      -9.878   5.237  69.475  1.00  0.00    -0.319 I  
HETATM   36  O   UNL     1     -10.476   2.086  72.478  1.00  0.00    -0.154 OA 
ENDBRANCH  22  25
ENDBRANCH  20  21
ENDBRANCH  19  20
ENDBRANCH  18  19
ENDBRANCH  17  18
ENDBRANCH  15  17
ENDBRANCH   7  13
TORSDOF 7
ENDMDL
MODEL      136
REMARK 921   NORMALIZED FREE ENERGY PREDICTED BY IDOCK:   -4.13 KCAL/MOL
REMARK 922        TOTAL FREE ENERGY PREDICTED BY IDOCK:   -6.74 KCAL/MOL
REMARK 923 INTER-LIGAND FREE ENERGY PREDICTED BY IDOCK:   -5.79 KCAL/MOL
REMARK 924 INTRA-LIGAND FREE ENERGY PREDICTED BY IDOCK:   -0.94 KCAL/MOL
REMARK 927      BINDING AFFINITY PREDICTED BY RF-SCORE:    0.00 PKD
ROOT
HETATM    1  O   UNL     1     -11.733  17.118  68.426  1.00  0.00     0.349 OA 
HETATM    2  C   UNL     1     -10.815  16.208  68.035  1.00  0.00    -0.333 C  
HETATM    3  C   UNL     1     -11.169  14.797  68.346  1.00  0.00    -0.298 A  
HETATM    4  O   UNL     1      -9.808  16.528  67.428  1.00  0.00    -0.244 OA 
HETATM    5  C   UNL     1     -11.067  13.787  67.352  1.00  0.00    -0.296 A  
HETATM    6  I   UNL     1     -10.580  14.274  65.304  1.00  0.00    -0.464 I  
HETATM    7  C   UNL     1     -11.367  12.425  67.638  1.00  0.00    -0.312 A  
HETATM    8  I   UNL     1     -11.611  15.714  71.310  1.00  0.00    -0.553 I  
HETATM    9  C   UNL     1     -11.756  12.085  68.946  1.00  0.00    -0.326 A  
HETATM   10  C   UNL     1     -11.552  14.413  69.643  1.00  0.00    -0.292 A  
HETATM   11  C   UNL     1     -11.861  13.078  69.931  1.00  0.00    -0.377 A  
HETATM   12  I   UNL     1     -11.970  10.106  69.652  1.00  0.00     0.258 I  
ENDROOT
BRANCH   7  13
HETATM   13  N   UNL     1     -11.182  11.452  66.610  1.00  0.00    -0.283 N  
HETATM   14  O   UNL     1      -8.913  11.109  66.951  1.00  0.00    -0.154 OA 
HETATM   15  C   UNL     1      -9.957  10.853  66.359  1.00  0.00    -0.221 C  
HETATM   16  H   UNL     1     -11.983  11.188  66.036  1.00  0.00     0.000 HD 
BRANCH  15  17
HETATM   17  C   UNL     1     -10.027   9.700  65.366  1.00  0.00    -0.230 C  
BRANCH  17  18
HETATM   18  C   UNL     1      -8.714   8.920  65.377  1.00  0.00    -0.224 C  
BRANCH  18  19
HETATM   19  C   UNL     1      -8.827   7.472  65.864  1.00  0.00    -0.157 C  
BRANCH  19  20
HETATM   20  C   UNL     1     -10.102   7.147  66.649  1.00  0.00    -0.229 C  
BRANCH  20  21
HETATM   21  C   UNL     1      -9.773   6.316  67.885  1.00  0.00    -0.122 C  
HETATM   22  N   UNL     1      -8.421   6.294  68.195  1.00  0.00    -0.114 N  
HETATM   23  O   UNL     1     -10.629   5.673  68.482  1.00  0.00    -0.213 OA 
HETATM   24  H   UNL     1      -7.767   6.811  67.607  1.00  0.00     0.000 HD 
BRANCH  22  25
HETATM   25  C   UNL     1      -7.924   5.567  69.317  1.00  0.00    -0.095 A  
HETATM   26  C   UNL     1      -7.531   4.222  69.222  1.00  0.00    -0.055 A  
HETATM   27  I   UNL     1      -7.908   2.992  67.539  1.00  0.00    -0.080 I  
HETATM   28  C   UNL     1      -7.011   3.553  70.335  1.00  0.00    -0.034 A  
HETATM   29  C   UNL     1      -6.936   4.188  71.582  1.00  0.00    -0.037 A  
HETATM   30  I   UNL     1      -6.230   2.949  73.143  1.00  0.00    -0.010 I  
HETATM   31  C   UNL     1      -7.371   5.516  71.735  1.00  0.00    -0.091 A  
HETATM   32  C   UNL     1      -7.397   6.172  73.075  1.00  0.00    -0.092 C  
HETATM   33  C   UNL     1      -7.861   6.199  70.590  1.00  0.00    -0.106 A  
HETATM   34  O   UNL     1      -8.359   6.790  73.497  1.00  0.00    -0.115 OA 
HETATM   35  I   UNL     1      -8.419   8.285  70.669  1.00  0.00    -0.182 I  
HETATM   36  O   UNL     1      -6.251   6.069  73.782  1.00  0.00    -0.062 OA 
ENDBRANCH  22  25
ENDBRANCH  20  21
ENDBRANCH  19  20
ENDBRANCH  18  19
ENDBRANCH  17  18
ENDBRANCH  15  17
ENDBRANCH   7  13
TORSDOF 7
ENDMDL
MODEL      137
REMARK 921   NORMALIZED FREE ENERGY PREDICTED BY IDOCK:   -4.11 KCAL/MOL
REMARK 922        TOTAL FREE ENERGY PREDICTED BY IDOCK:   -6.71 KCAL/MOL
REMARK 923 INTER-LIGAND FREE ENERGY PREDICTED BY IDOCK:   -5.87 KCAL/MOL
REMARK 924 INTRA-LIGAND FREE ENERGY PREDICTED BY IDOCK:   -0.84 KCAL/MOL
REMARK 927      BINDING AFFINITY PREDICTED BY RF-SCORE:    0.00 PKD
ROOT
HETATM    1  O   UNL     1     -10.705  19.501  67.574  1.00  0.00    -0.465 OA 
HETATM    2  C   UNL     1     -10.238  18.875  66.472  1.00  0.00    -0.414 C  
HETATM    3  C   UNL     1      -9.530  17.594  66.741  1.00  0.00    -0.285 A  
HETATM    4  O   UNL     1     -10.435  19.309  65.351  1.00  0.00    -0.451 OA 
HETATM    5  C   UNL     1      -9.844  16.422  66.002  1.00  0.00    -0.335 A  
HETATM    6  I   UNL     1     -11.482  16.390  64.592  1.00  0.00     0.976 I  
HETATM    7  C   UNL     1      -9.155  15.195  66.218  1.00  0.00    -0.278 A  
HETATM    8  I   UNL     1      -7.748  19.174  68.779  1.00  0.00    -0.267 I  
HETATM    9  C   UNL     1      -8.129  15.164  67.180  1.00  0.00    -0.214 A  
HETATM   10  C   UNL     1      -8.492  17.523  67.686  1.00  0.00    -0.215 A  
HETATM   11  C   UNL     1      -7.816  16.317  67.915  1.00  0.00    -0.154 A  
HETATM   12  I   UNL     1      -6.802  13.545  67.458  1.00  0.00     0.229 I  
ENDROOT
BRANCH   7  13
HETATM   13  N   UNL     1      -9.477  14.074  65.396  1.00  0.00    -0.501 N  
HETATM   14  O   UNL     1     -10.866  13.001  66.914  1.00  0.00    -0.260 OA 
HETATM   15  C   UNL     1     -10.332  13.064  65.810  1.00  0.00    -0.286 C  
HETATM   16  H   UNL     1      -9.062  14.014  64.466  1.00  0.00     0.000 HD 
BRANCH  15  17
HETATM   17  C   UNL     1     -10.702  12.080  64.708  1.00  0.00    -0.352 C  
BRANCH  17  18
HETATM   18  C   UNL     1      -9.468  11.295  64.271  1.00  0.00    -0.203 C  
BRANCH  18  19
HETATM   19  C   UNL     1      -9.533   9.787  64.538  1.00  0.00    -0.269 C  
BRANCH  19  20
HETATM   20  C   UNL     1      -9.849   9.397  65.985  1.00  0.00    -0.366 C  
BRANCH  20  21
HETATM   21  C   UNL     1      -8.934   8.267  66.447  1.00  0.00    -0.166 C  
HETATM   22  N   UNL     1      -9.564   7.032  66.506  1.00  0.00    -0.283 N  
HETATM   23  O   UNL     1      -7.779   8.470  66.804  1.00  0.00    -0.089 OA 
HETATM   24  H   UNL     1     -10.548   6.963  66.248  1.00  0.00     0.000 HD 
BRANCH  22  25
HETATM   25  C   UNL     1      -8.867   5.857  66.919  1.00  0.00    -0.115 A  
HETATM   26  C   UNL     1      -7.940   5.206  66.089  1.00  0.00    -0.104 A  
HETATM   27  I   UNL     1      -7.675   5.646  64.034  1.00  0.00    -0.107 I  
HETATM   28  C   UNL     1      -7.247   4.081  66.544  1.00  0.00    -0.068 A  
HETATM   29  C   UNL     1      -7.513   3.537  67.808  1.00  0.00    -0.062 A  
HETATM   30  I   UNL     1      -6.435   1.769  68.235  1.00  0.00    -0.029 I  
HETATM   31  C   UNL     1      -8.474   4.124  68.650  1.00  0.00    -0.101 A  
HETATM   32  C   UNL     1      -8.845   3.499  69.954  1.00  0.00    -0.089 C  
HETATM   33  C   UNL     1      -9.144   5.291  68.194  1.00  0.00    -0.110 A  
HETATM   34  O   UNL     1      -9.998   3.326  70.306  1.00  0.00    -0.001 OA 
HETATM   35  I   UNL     1     -10.532   6.364  69.456  1.00  0.00    -0.388 I  
HETATM   36  O   UNL     1      -7.801   3.173  70.746  1.00  0.00    -0.046 OA 
ENDBRANCH  22  25
ENDBRANCH  20  21
ENDBRANCH  19  20
ENDBRANCH  18  19
ENDBRANCH  17  18
ENDBRANCH  15  17
ENDBRANCH   7  13
TORSDOF 7
ENDMDL
MODEL      138
REMARK 921   NORMALIZED FREE ENERGY PREDICTED BY IDOCK:   -4.09 KCAL/MOL
REMARK 922        TOTAL FREE ENERGY PREDICTED BY IDOCK:   -6.68 KCAL/MOL
REMARK 923 INTER-LIGAND FREE ENERGY PREDICTED BY IDOCK:   -5.73 KCAL/MOL
REMARK 924 INTRA-LIGAND FREE ENERGY PREDICTED BY IDOCK:   -0.96 KCAL/MOL
REMARK 927      BINDING AFFINITY PREDICTED BY RF-SCORE:    0.00 PKD
ROOT
HETATM    1  O   UNL     1     -11.148  17.506  68.800  1.00  0.00     0.011 OA 
HETATM    2  C   UNL     1     -10.028  16.764  68.943  1.00  0.00    -0.271 C  
HETATM    3  C   UNL     1     -10.217  15.306  68.718  1.00  0.00    -0.227 A  
HETATM    4  O   UNL     1      -8.946  17.271  69.184  1.00  0.00    -0.139 OA 
HETATM    5  C   UNL     1      -9.336  14.583  67.869  1.00  0.00    -0.201 A  
HETATM    6  I   UNL     1      -7.804  15.588  66.724  1.00  0.00     0.315 I  
HETATM    7  C   UNL     1      -9.477  13.180  67.667  1.00  0.00    -0.207 A  
HETATM    8  I   UNL     1     -12.545  15.431  70.812  1.00  0.00    -0.434 I  
HETATM    9  C   UNL     1     -10.510  12.507  68.345  1.00  0.00    -0.240 A  
HETATM   10  C   UNL     1     -11.230  14.593  69.383  1.00  0.00    -0.279 A  
HETATM   11  C   UNL     1     -11.384  13.216  69.181  1.00  0.00    -0.335 A  
HETATM   12  I   UNL     1     -10.722  10.407  68.412  1.00  0.00    -0.324 I  
ENDROOT
BRANCH   7  13
HETATM   13  N   UNL     1      -8.519  12.506  66.853  1.00  0.00    -0.321 N  
HETATM   14  O   UNL     1      -7.085  11.877  68.567  1.00  0.00    -0.077 OA 
HETATM   15  C   UNL     1      -7.395  11.886  67.378  1.00  0.00    -0.145 C  
HETATM   16  H   UNL     1      -8.666  12.479  65.844  1.00  0.00     0.000 HD 
BRANCH  15  17
HETATM   17  C   UNL     1      -6.621  11.051  66.366  1.00  0.00    -0.126 C  
BRANCH  17  18
HETATM   18  C   UNL     1      -5.564  10.212  67.079  1.00  0.00    -0.045 C  
BRANCH  18  19
HETATM   19  C   UNL     1      -5.938   8.740  67.283  1.00  0.00    -0.047 C  
BRANCH  19  20
HETATM   20  C   UNL     1      -7.392   8.490  67.696  1.00  0.00    -0.089 C  
BRANCH  20  21
HETATM   21  C   UNL     1      -7.493   7.247  68.575  1.00  0.00    -0.105 C  
HETATM   22  N   UNL     1      -8.797   6.899  68.895  1.00  0.00    -0.130 N  
HETATM   23  O   UNL     1      -6.499   6.676  69.011  1.00  0.00    -0.037 OA 
HETATM   24  H   UNL     1      -9.566   7.466  68.538  1.00  0.00     0.000 HD 
BRANCH  22  25
HETATM   25  C   UNL     1      -9.089   5.765  69.711  1.00  0.00    -0.136 A  
HETATM   26  C   UNL     1      -9.173   4.466  69.185  1.00  0.00    -0.140 A  
HETATM   27  I   UNL     1      -9.211   4.026  67.113  1.00  0.00    -0.230 I  
HETATM   28  C   UNL     1      -9.420   3.375  70.023  1.00  0.00    -0.243 A  
HETATM   29  C   UNL     1      -9.659   3.561  71.391  1.00  0.00    -0.169 A  
HETATM   30  I   UNL     1     -10.128   1.785  72.438  1.00  0.00    -0.211 I  
HETATM   31  C   UNL     1      -9.640   4.851  71.950  1.00  0.00    -0.205 A  
HETATM   32  C   UNL     1      -9.995   5.079  73.382  1.00  0.00    -0.157 C  
HETATM   33  C   UNL     1      -9.348   5.949  71.097  1.00  0.00    -0.153 A  
HETATM   34  O   UNL     1     -10.773   5.942  73.747  1.00  0.00    -0.264 OA 
HETATM   35  I   UNL     1      -9.146   7.958  71.868  1.00  0.00    -0.259 I  
HETATM   36  O   UNL     1      -9.355   4.279  74.262  1.00  0.00    -0.105 OA 
ENDBRANCH  22  25
ENDBRANCH  20  21
ENDBRANCH  19  20
ENDBRANCH  18  19
ENDBRANCH  17  18
ENDBRANCH  15  17
ENDBRANCH   7  13
TORSDOF 7
ENDMDL
MODEL      139
REMARK 921   NORMALIZED FREE ENERGY PREDICTED BY IDOCK:   -4.08 KCAL/MOL
REMARK 922        TOTAL FREE ENERGY PREDICTED BY IDOCK:   -6.68 KCAL/MOL
REMARK 923 INTER-LIGAND FREE ENERGY PREDICTED BY IDOCK:   -5.72 KCAL/MOL
REMARK 924 INTRA-LIGAND FREE ENERGY PREDICTED BY IDOCK:   -0.95 KCAL/MOL
REMARK 927      BINDING AFFINITY PREDICTED BY RF-SCORE:    0.00 PKD
ROOT
HETATM    1  O   UNL     1     -11.262   4.956  73.259  1.00  0.00    -0.307 OA 
HETATM    2  C   UNL     1     -10.108   5.273  72.631  1.00  0.00    -0.174 C  
HETATM    3  C   UNL     1      -9.846   4.499  71.388  1.00  0.00    -0.264 A  
HETATM    4  O   UNL     1      -9.378   6.160  73.035  1.00  0.00    -0.140 OA 
HETATM    5  C   UNL     1      -9.464   5.159  70.189  1.00  0.00    -0.168 A  
HETATM    6  I   UNL     1      -9.427   7.316  70.059  1.00  0.00    -0.157 I  
HETATM    7  C   UNL     1      -9.175   4.436  68.998  1.00  0.00    -0.140 A  
HETATM    8  I   UNL     1     -10.294   1.901  73.082  1.00  0.00    -0.249 I  
HETATM    9  C   UNL     1      -9.258   3.032  69.029  1.00  0.00    -0.156 A  
HETATM   10  C   UNL     1      -9.909   3.094  71.379  1.00  0.00    -0.108 A  
HETATM   11  C   UNL     1      -9.637   2.375  70.208  1.00  0.00    -0.096 A  
HETATM   12  I   UNL     1      -8.604   1.762  67.475  1.00  0.00    -0.144 I  
ENDROOT
BRANCH   7  13
HETATM   13  N   UNL     1      -8.734   5.158  67.848  1.00  0.00    -0.103 N  
HETATM   14  O   UNL     1     -10.745   5.101  66.692  1.00  0.00    -0.279 OA 
HETATM   15  C   UNL     1      -9.572   5.451  66.782  1.00  0.00    -0.147 C  
HETATM   16  H   UNL     1      -7.764   5.471  67.809  1.00  0.00     0.000 HD 
BRANCH  15  17
HETATM   17  C   UNL     1      -8.962   6.404  65.763  1.00  0.00    -0.068 C  
BRANCH  17  18
HETATM   18  C   UNL     1      -8.376   7.624  66.471  1.00  0.00    -0.129 C  
BRANCH  18  19
HETATM   19  C   UNL     1      -6.904   7.908  66.158  1.00  0.00    -0.058 C  
BRANCH  19  20
HETATM   20  C   UNL     1      -6.254   8.997  67.018  1.00  0.00    -0.059 C  
BRANCH  20  21
HETATM   21  C   UNL     1      -6.717  10.379  66.571  1.00  0.00    -0.099 C  
HETATM   22  N   UNL     1      -7.764  10.885  67.329  1.00  0.00    -0.108 N  
HETATM   23  O   UNL     1      -6.248  10.935  65.584  1.00  0.00    -0.111 OA 
HETATM   24  H   UNL     1      -8.136  10.328  68.098  1.00  0.00     0.000 HD 
BRANCH  22  25
HETATM   25  C   UNL     1      -8.332  12.165  67.057  1.00  0.00    -0.173 A  
HETATM   26  C   UNL     1      -9.391  12.338  66.152  1.00  0.00    -0.176 A  
HETATM   27  I   UNL     1     -10.080  10.830  64.833  1.00  0.00    -0.335 I  
HETATM   28  C   UNL     1      -9.948  13.603  65.942  1.00  0.00    -0.304 A  
HETATM   29  C   UNL     1      -9.417  14.734  66.576  1.00  0.00    -0.293 A  
HETATM   30  I   UNL     1     -10.340  16.553  66.017  1.00  0.00    -0.207 I  
HETATM   31  C   UNL     1      -8.320  14.616  67.447  1.00  0.00    -0.223 A  
HETATM   32  C   UNL     1      -7.675  15.820  68.048  1.00  0.00    -0.129 C  
HETATM   33  C   UNL     1      -7.787  13.320  67.684  1.00  0.00    -0.168 A  
HETATM   34  O   UNL     1      -6.471  16.000  68.051  1.00  0.00    -0.118 OA 
HETATM   35  I   UNL     1      -6.199  12.994  69.114  1.00  0.00    -0.105 I  
HETATM   36  O   UNL     1      -8.527  16.690  68.633  1.00  0.00    -0.231 OA 
ENDBRANCH  22  25
ENDBRANCH  20  21
ENDBRANCH  19  20
ENDBRANCH  18  19
ENDBRANCH  17  18
ENDBRANCH  15  17
ENDBRANCH   7  13
TORSDOF 7
ENDMDL
MODEL      140
REMARK 921   NORMALIZED FREE ENERGY PREDICTED BY IDOCK:   -4.08 KCAL/MOL
REMARK 922        TOTAL FREE ENERGY PREDICTED BY IDOCK:   -6.67 KCAL/MOL
REMARK 923 INTER-LIGAND FREE ENERGY PREDICTED BY IDOCK:   -5.39 KCAL/MOL
REMARK 924 INTRA-LIGAND FREE ENERGY PREDICTED BY IDOCK:   -1.29 KCAL/MOL
REMARK 927      BINDING AFFINITY PREDICTED BY RF-SCORE:    0.00 PKD
ROOT
HETATM    1  O   UNL     1      -7.831   5.502  62.487  1.00  0.00    -0.069 OA 
HETATM    2  C   UNL     1      -8.102   6.248  63.579  1.00  0.00    -0.049 C  
HETATM    3  C   UNL     1      -8.208   5.476  64.846  1.00  0.00    -0.136 A  
HETATM    4  O   UNL     1      -8.197   7.461  63.524  1.00  0.00    -0.060 OA 
HETATM    5  C   UNL     1      -7.515   5.898  66.013  1.00  0.00    -0.085 A  
HETATM    6  I   UNL     1      -6.135   7.560  65.960  1.00  0.00    -0.039 I  
HETATM    7  C   UNL     1      -7.630   5.193  67.246  1.00  0.00    -0.091 A  
HETATM    8  I   UNL     1     -10.286   3.640  63.386  1.00  0.00    -0.208 I  
HETATM    9  C   UNL     1      -8.467   4.064  67.296  1.00  0.00    -0.100 A  
HETATM   10  C   UNL     1      -9.041   4.347  64.942  1.00  0.00    -0.151 A  
HETATM   11  C   UNL     1      -9.150   3.641  66.147  1.00  0.00    -0.155 A  
HETATM   12  I   UNL     1      -8.998   3.051  69.071  1.00  0.00    -0.227 I  
ENDROOT
BRANCH   7  13
HETATM   13  N   UNL     1      -6.958   5.709  68.394  1.00  0.00    -0.063 N  
HETATM   14  O   UNL     1      -8.687   7.059  69.151  1.00  0.00    -0.132 OA 
HETATM   15  C   UNL     1      -7.556   6.598  69.275  1.00  0.00    -0.100 C  
HETATM   16  H   UNL     1      -5.999   5.412  68.575  1.00  0.00     0.000 HD 
BRANCH  15  17
HETATM   17  C   UNL     1      -6.743   6.856  70.537  1.00  0.00    -0.053 C  
BRANCH  17  18
HETATM   18  C   UNL     1      -6.607   8.358  70.774  1.00  0.00    -0.039 C  
BRANCH  18  19
HETATM   19  C   UNL     1      -5.782   9.106  69.721  1.00  0.00    -0.032 C  
BRANCH  19  20
HETATM   20  C   UNL     1      -5.626  10.610  69.965  1.00  0.00    -0.060 C  
BRANCH  20  21
HETATM   21  C   UNL     1      -6.291  11.406  68.847  1.00  0.00    -0.057 C  
HETATM   22  N   UNL     1      -7.467  12.032  69.235  1.00  0.00    -0.336 N  
HETATM   23  O   UNL     1      -5.852  11.410  67.702  1.00  0.00    -0.047 OA 
HETATM   24  H   UNL     1      -7.794  11.926  70.195  1.00  0.00     0.000 HD 
BRANCH  22  25
HETATM   25  C   UNL     1      -8.230  12.820  68.322  1.00  0.00    -0.159 A  
HETATM   26  C   UNL     1      -7.899  14.151  68.024  1.00  0.00    -0.146 A  
HETATM   27  I   UNL     1      -6.461  15.283  69.092  1.00  0.00    -0.156 I  
HETATM   28  C   UNL     1      -8.647  14.879  67.094  1.00  0.00    -0.248 A  
HETATM   29  C   UNL     1      -9.782  14.319  66.492  1.00  0.00    -0.291 A  
HETATM   30  I   UNL     1     -10.824  15.641  65.212  1.00  0.00    -0.283 I  
HETATM   31  C   UNL     1     -10.184  13.009  66.804  1.00  0.00    -0.246 A  
HETATM   32  C   UNL     1     -11.447  12.435  66.255  1.00  0.00    -0.371 C  
HETATM   33  C   UNL     1      -9.394  12.264  67.721  1.00  0.00    -0.194 A  
HETATM   34  O   UNL     1     -12.270  11.856  66.941  1.00  0.00    -0.493 OA 
HETATM   35  I   UNL     1      -9.825  10.194  68.165  1.00  0.00    -0.193 I  
HETATM   36  O   UNL     1     -11.599  12.566  64.919  1.00  0.00    -0.317 OA 
ENDBRANCH  22  25
ENDBRANCH  20  21
ENDBRANCH  19  20
ENDBRANCH  18  19
ENDBRANCH  17  18
ENDBRANCH  15  17
ENDBRANCH   7  13
TORSDOF 7
ENDMDL
MODEL      141
REMARK 921   NORMALIZED FREE ENERGY PREDICTED BY IDOCK:   -4.06 KCAL/MOL
REMARK 922        TOTAL FREE ENERGY PREDICTED BY IDOCK:   -6.64 KCAL/MOL
REMARK 923 INTER-LIGAND FREE ENERGY PREDICTED BY IDOCK:   -6.00 KCAL/MOL
REMARK 924 INTRA-LIGAND FREE ENERGY PREDICTED BY IDOCK:   -0.65 KCAL/MOL
REMARK 927      BINDING AFFINITY PREDICTED BY RF-SCORE:    0.00 PKD
ROOT
HETATM    1  O   UNL     1      -9.817   2.097  70.783  1.00  0.00    -0.082 OA 
HETATM    2  C   UNL     1      -9.646   3.281  71.411  1.00  0.00    -0.160 C  
HETATM    3  C   UNL     1      -9.846   4.475  70.546  1.00  0.00    -0.297 A  
HETATM    4  O   UNL     1      -9.401   3.349  72.602  1.00  0.00    -0.100 OA 
HETATM    5  C   UNL     1     -10.670   5.551  70.975  1.00  0.00    -0.205 A  
HETATM    6  I   UNL     1     -11.815   5.428  72.803  1.00  0.00     0.446 I  
HETATM    7  C   UNL     1     -10.847   6.718  70.179  1.00  0.00    -0.266 A  
HETATM    8  I   UNL     1      -7.784   3.203  68.559  1.00  0.00    -0.061 I  
HETATM    9  C   UNL     1     -10.169   6.799  68.949  1.00  0.00    -0.175 A  
HETATM   10  C   UNL     1      -9.180   4.600  69.315  1.00  0.00    -0.127 A  
HETATM   11  C   UNL     1      -9.358   5.740  68.520  1.00  0.00    -0.133 A  
HETATM   12  I   UNL     1     -10.065   8.539  67.756  1.00  0.00    -0.302 I  
ENDROOT
BRANCH   7  13
HETATM   13  N   UNL     1     -11.636   7.788  70.698  1.00  0.00    -0.399 N  
HETATM   14  O   UNL     1      -9.953   8.809  71.927  1.00  0.00    -0.290 OA 
HETATM   15  C   UNL     1     -11.114   8.769  71.527  1.00  0.00    -0.307 C  
HETATM   16  H   UNL     1     -12.624   7.832  70.450  1.00  0.00     0.000 HD 
BRANCH  15  17
HETATM   17  C   UNL     1     -12.070   9.924  71.794  1.00  0.00    -0.382 C  
BRANCH  17  18
HETATM   18  C   UNL     1     -12.609  10.473  70.475  1.00  0.00    -0.423 C  
BRANCH  18  19
HETATM   19  C   UNL     1     -12.110  11.874  70.106  1.00  0.00    -0.382 C  
BRANCH  19  20
HETATM   20  C   UNL     1     -12.213  12.231  68.620  1.00  0.00     0.051 C  
BRANCH  20  21
HETATM   21  C   UNL     1     -11.462  13.526  68.327  1.00  0.00    -0.310 C  
HETATM   22  N   UNL     1     -10.321  13.344  67.559  1.00  0.00    -0.225 N  
HETATM   23  O   UNL     1     -11.810  14.601  68.803  1.00  0.00    -0.315 OA 
HETATM   24  H   UNL     1     -10.071  12.404  67.255  1.00  0.00     0.000 HD 
BRANCH  22  25
HETATM   25  C   UNL     1      -9.489  14.442  67.187  1.00  0.00    -0.222 A  
HETATM   26  C   UNL     1      -9.947  15.483  66.364  1.00  0.00    -0.283 A  
HETATM   27  I   UNL     1     -11.779  15.434  65.300  1.00  0.00     0.342 I  
HETATM   28  C   UNL     1      -9.115  16.562  66.053  1.00  0.00    -0.290 A  
HETATM   29  C   UNL     1      -7.786  16.595  66.498  1.00  0.00    -0.307 A  
HETATM   30  I   UNL     1      -6.682  18.261  65.808  1.00  0.00    -0.109 I  
HETATM   31  C   UNL     1      -7.268  15.545  67.277  1.00  0.00    -0.242 A  
HETATM   32  C   UNL     1      -5.829  15.511  67.671  1.00  0.00    -0.107 C  
HETATM   33  C   UNL     1      -8.134  14.473  67.620  1.00  0.00    -0.179 A  
HETATM   34  O   UNL     1      -5.128  14.523  67.547  1.00  0.00    -0.326 OA 
HETATM   35  I   UNL     1      -7.496  12.879  68.934  1.00  0.00     0.284 I  
HETATM   36  O   UNL     1      -5.361  16.653  68.219  1.00  0.00    -0.109 OA 
ENDBRANCH  22  25
ENDBRANCH  20  21
ENDBRANCH  19  20
ENDBRANCH  18  19
ENDBRANCH  17  18
ENDBRANCH  15  17
ENDBRANCH   7  13
TORSDOF 7
ENDMDL
MODEL      142
REMARK 921   NORMALIZED FREE ENERGY PREDICTED BY IDOCK:   -4.06 KCAL/MOL
REMARK 922        TOTAL FREE ENERGY PREDICTED BY IDOCK:   -6.64 KCAL/MOL
REMARK 923 INTER-LIGAND FREE ENERGY PREDICTED BY IDOCK:   -6.67 KCAL/MOL
REMARK 924 INTRA-LIGAND FREE ENERGY PREDICTED BY IDOCK:    0.04 KCAL/MOL
REMARK 927      BINDING AFFINITY PREDICTED BY RF-SCORE:    0.00 PKD
ROOT
HETATM    1  O   UNL     1     -10.181  15.038  65.520  1.00  0.00    -0.324 OA 
HETATM    2  C   UNL     1      -9.894  14.115  66.463  1.00  0.00    -0.290 C  
HETATM    3  C   UNL     1     -10.719  14.213  67.697  1.00  0.00    -0.260 A  
HETATM    4  O   UNL     1      -9.060  13.246  66.282  1.00  0.00    -0.126 OA 
HETATM    5  C   UNL     1     -11.343  13.060  68.246  1.00  0.00    -0.288 A  
HETATM    6  I   UNL     1     -11.283  11.157  67.222  1.00  0.00    -0.087 I  
HETATM    7  C   UNL     1     -12.108  13.124  69.445  1.00  0.00    -0.231 A  
HETATM    8  I   UNL     1      -9.882  17.229  67.846  1.00  0.00    -0.330 I  
HETATM    9  C   UNL     1     -12.226  14.364  70.099  1.00  0.00    -0.341 A  
HETATM   10  C   UNL     1     -10.854  15.430  68.387  1.00  0.00    -0.268 A  
HETATM   11  C   UNL     1     -11.615  15.505  69.561  1.00  0.00    -0.361 A  
HETATM   12  I   UNL     1     -13.066  14.626  72.018  1.00  0.00    -0.576 I  
ENDROOT
BRANCH   7  13
HETATM   13  N   UNL     1     -12.654  11.916  69.974  1.00  0.00     0.009 N  
HETATM   14  O   UNL     1     -10.637  10.927  70.556  1.00  0.00     0.302 OA 
HETATM   15  C   UNL     1     -11.864  10.910  70.510  1.00  0.00    -0.360 C  
HETATM   16  H   UNL     1     -13.665  11.788  69.958  1.00  0.00     0.000 HD 
BRANCH  15  17
HETATM   17  C   UNL     1     -12.654   9.810  71.206  1.00  0.00    -0.460 C  
BRANCH  17  18
HETATM   18  C   UNL     1     -11.825   8.529  71.266  1.00  0.00    -0.335 C  
BRANCH  18  19
HETATM   19  C   UNL     1     -10.829   8.459  72.428  1.00  0.00    -0.416 C  
BRANCH  19  20
HETATM   20  C   UNL     1     -10.941   7.209  73.307  1.00  0.00    -0.325 C  
BRANCH  20  21
HETATM   21  C   UNL     1     -10.174   6.046  72.685  1.00  0.00    -0.183 C  
HETATM   22  N   UNL     1      -9.100   6.445  71.903  1.00  0.00    -0.146 N  
HETATM   23  O   UNL     1     -10.541   4.883  72.813  1.00  0.00    -0.198 OA 
HETATM   24  H   UNL     1      -8.901   7.440  71.801  1.00  0.00     0.000 HD 
BRANCH  22  25
HETATM   25  C   UNL     1      -8.267   5.496  71.238  1.00  0.00    -0.125 A  
HETATM   26  C   UNL     1      -7.178   4.880  71.875  1.00  0.00    -0.068 A  
HETATM   27  I   UNL     1      -6.410   5.481  73.756  1.00  0.00    -0.067 I  
HETATM   28  C   UNL     1      -6.409   3.925  71.204  1.00  0.00    -0.018 A  
HETATM   29  C   UNL     1      -6.665   3.613  69.861  1.00  0.00    -0.034 A  
HETATM   30  I   UNL     1      -5.303   2.233  69.018  1.00  0.00    -0.014 I  
HETATM   31  C   UNL     1      -7.710   4.248  69.167  1.00  0.00    -0.054 A  
HETATM   32  C   UNL     1      -7.930   4.007  67.711  1.00  0.00    -0.090 C  
HETATM   33  C   UNL     1      -8.510   5.188  69.871  1.00  0.00    -0.096 A  
HETATM   34  O   UNL     1      -8.097   4.905  66.905  1.00  0.00    -0.106 OA 
HETATM   35  I   UNL     1     -10.234   6.116  68.955  1.00  0.00    -0.337 I  
HETATM   36  O   UNL     1      -7.974   2.707  67.349  1.00  0.00    -0.068 OA 
ENDBRANCH  22  25
ENDBRANCH  20  21
ENDBRANCH  19  20
ENDBRANCH  18  19
ENDBRANCH  17  18
ENDBRANCH  15  17
ENDBRANCH   7  13
TORSDOF 7
ENDMDL
MODEL      143
REMARK 921   NORMALIZED FREE ENERGY PREDICTED BY IDOCK:   -4.03 KCAL/MOL
REMARK 922        TOTAL FREE ENERGY PREDICTED BY IDOCK:   -6.60 KCAL/MOL
REMARK 923 INTER-LIGAND FREE ENERGY PREDICTED BY IDOCK:   -6.28 KCAL/MOL
REMARK 924 INTRA-LIGAND FREE ENERGY PREDICTED BY IDOCK:   -0.33 KCAL/MOL
REMARK 927      BINDING AFFINITY PREDICTED BY RF-SCORE:    0.00 PKD
ROOT
HETATM    1  O   UNL     1      -6.162   7.840  65.206  1.00  0.00    -0.038 OA 
HETATM    2  C   UNL     1      -6.232   9.099  65.692  1.00  0.00    -0.056 C  
HETATM    3  C   UNL     1      -7.534   9.780  65.462  1.00  0.00    -0.115 A  
HETATM    4  O   UNL     1      -5.313   9.602  66.313  1.00  0.00    -0.042 OA 
HETATM    5  C   UNL     1      -8.202  10.447  66.525  1.00  0.00    -0.131 A  
HETATM    6  I   UNL     1      -7.462  10.346  68.553  1.00  0.00    -0.107 I  
HETATM    7  C   UNL     1      -9.431  11.135  66.319  1.00  0.00    -0.196 A  
HETATM    8  I   UNL     1      -7.211   9.061  62.429  1.00  0.00    -0.103 I  
HETATM    9  C   UNL     1      -9.976  11.160  65.023  1.00  0.00    -0.273 A  
HETATM   10  C   UNL     1      -8.108   9.837  64.180  1.00  0.00    -0.153 A  
HETATM   11  C   UNL     1      -9.324  10.501  63.971  1.00  0.00    -0.308 A  
HETATM   12  I   UNL     1     -11.623  12.347  64.443  1.00  0.00    -0.506 I  
ENDROOT
BRANCH   7  13
HETATM   13  N   UNL     1     -10.015  11.837  67.417  1.00  0.00    -0.184 N  
HETATM   14  O   UNL     1     -11.729  10.330  67.837  1.00  0.00    -0.281 OA 
HETATM   15  C   UNL     1     -11.120  11.362  68.106  1.00  0.00    -0.248 C  
HETATM   16  H   UNL     1      -9.602  12.724  67.705  1.00  0.00     0.000 HD 
BRANCH  15  17
HETATM   17  C   UNL     1     -11.449  12.154  69.365  1.00  0.00    -0.355 C  
BRANCH  17  18
HETATM   18  C   UNL     1     -11.991  11.220  70.445  1.00  0.00    -0.471 C  
BRANCH  18  19
HETATM   19  C   UNL     1     -11.269   9.873  70.555  1.00  0.00    -0.399 C  
BRANCH  19  20
HETATM   20  C   UNL     1     -11.445   9.149  71.894  1.00  0.00    -0.423 C  
BRANCH  20  21
HETATM   21  C   UNL     1     -10.924   7.719  71.801  1.00  0.00    -0.239 C  
HETATM   22  N   UNL     1      -9.671   7.621  71.212  1.00  0.00    -0.161 N  
HETATM   23  O   UNL     1     -11.601   6.757  72.147  1.00  0.00    -0.269 OA 
HETATM   24  H   UNL     1      -9.203   8.470  70.896  1.00  0.00     0.000 HD 
BRANCH  22  25
HETATM   25  C   UNL     1      -9.024   6.362  71.038  1.00  0.00    -0.146 A  
HETATM   26  C   UNL     1      -8.930   5.736  69.785  1.00  0.00    -0.129 A  
HETATM   27  I   UNL     1      -9.985   6.369  68.060  1.00  0.00    -0.233 I  
HETATM   28  C   UNL     1      -8.253   4.520  69.646  1.00  0.00    -0.066 A  
HETATM   29  C   UNL     1      -7.715   3.868  70.764  1.00  0.00    -0.051 A  
HETATM   30  I   UNL     1      -6.844   1.990  70.334  1.00  0.00    -0.033 I  
HETATM   31  C   UNL     1      -7.836   4.431  72.047  1.00  0.00    -0.090 A  
HETATM   32  C   UNL     1      -7.364   3.701  73.260  1.00  0.00    -0.057 C  
HETATM   33  C   UNL     1      -8.492   5.685  72.170  1.00  0.00    -0.126 A  
HETATM   34  O   UNL     1      -8.037   3.577  74.267  1.00  0.00    -0.073 OA 
HETATM   35  I   UNL     1      -8.608   6.719  74.065  1.00  0.00    -0.211 I  
HETATM   36  O   UNL     1      -6.106   3.217  73.179  1.00  0.00    -0.008 OA 
ENDBRANCH  22  25
ENDBRANCH  20  21
ENDBRANCH  19  20
ENDBRANCH  18  19
ENDBRANCH  17  18
ENDBRANCH  15  17
ENDBRANCH   7  13
TORSDOF 7
ENDMDL
MODEL      144
REMARK 921   NORMALIZED FREE ENERGY PREDICTED BY IDOCK:   -4.00 KCAL/MOL
REMARK 922        TOTAL FREE ENERGY PREDICTED BY IDOCK:   -6.56 KCAL/MOL
REMARK 923 INTER-LIGAND FREE ENERGY PREDICTED BY IDOCK:   -5.86 KCAL/MOL
REMARK 924 INTRA-LIGAND FREE ENERGY PREDICTED BY IDOCK:   -0.69 KCAL/MOL
REMARK 927      BINDING AFFINITY PREDICTED BY RF-SCORE:    0.00 PKD
ROOT
HETATM    1  O   UNL     1     -13.677   9.842  70.408  1.00  0.00     0.096 OA 
HETATM    2  C   UNL     1     -12.457   9.819  70.987  1.00  0.00    -0.323 C  
HETATM    3  C   UNL     1     -11.783   8.493  70.958  1.00  0.00    -0.310 A  
HETATM    4  O   UNL     1     -11.941  10.823  71.444  1.00  0.00    -0.262 OA 
HETATM    5  C   UNL     1     -10.433   8.375  70.530  1.00  0.00    -0.207 A  
HETATM    6  I   UNL     1      -9.358  10.069  69.727  1.00  0.00    -0.014 I  
HETATM    7  C   UNL     1      -9.757   7.121  70.528  1.00  0.00    -0.176 A  
HETATM    8  I   UNL     1     -14.382   7.304  72.242  1.00  0.00     0.148 I  
HETATM    9  C   UNL     1     -10.453   5.985  70.979  1.00  0.00    -0.229 A  
HETATM   10  C   UNL     1     -12.438   7.335  71.410  1.00  0.00    -0.383 A  
HETATM   11  C   UNL     1     -11.785   6.095  71.400  1.00  0.00    -0.236 A  
HETATM   12  I   UNL     1      -9.564   4.101  71.324  1.00  0.00    -0.231 I  
ENDROOT
BRANCH   7  13
HETATM   13  N   UNL     1      -8.383   7.085  70.146  1.00  0.00    -0.136 N  
HETATM   14  O   UNL     1      -8.717   6.431  67.945  1.00  0.00    -0.116 OA 
HETATM   15  C   UNL     1      -7.970   6.756  68.864  1.00  0.00    -0.116 C  
HETATM   16  H   UNL     1      -7.675   7.311  70.845  1.00  0.00     0.000 HD 
BRANCH  15  17
HETATM   17  C   UNL     1      -6.484   6.982  68.617  1.00  0.00    -0.036 C  
BRANCH  17  18
HETATM   18  C   UNL     1      -6.123   8.440  68.893  1.00  0.00    -0.044 C  
BRANCH  18  19
HETATM   19  C   UNL     1      -5.149   9.065  67.889  1.00  0.00    -0.034 C  
BRANCH  19  20
HETATM   20  C   UNL     1      -5.221  10.591  67.778  1.00  0.00    -0.037 C  
BRANCH  20  21
HETATM   21  C   UNL     1      -6.259  11.005  66.739  1.00  0.00    -0.110 C  
HETATM   22  N   UNL     1      -7.559  11.006  67.224  1.00  0.00    -0.106 N  
HETATM   23  O   UNL     1      -5.957  11.230  65.572  1.00  0.00    -0.010 OA 
HETATM   24  H   UNL     1      -7.728  10.746  68.195  1.00  0.00     0.000 HD 
BRANCH  22  25
HETATM   25  C   UNL     1      -8.664  11.364  66.395  1.00  0.00    -0.185 A  
HETATM   26  C   UNL     1      -9.211  10.478  65.453  1.00  0.00    -0.192 A  
HETATM   27  I   UNL     1      -8.309   8.646  64.886  1.00  0.00    -0.100 I  
HETATM   28  C   UNL     1     -10.320  10.850  64.687  1.00  0.00    -0.407 A  
HETATM   29  C   UNL     1     -10.865  12.136  64.793  1.00  0.00    -0.307 A  
HETATM   30  I   UNL     1     -12.458  12.514  63.455  1.00  0.00    -0.163 I  
HETATM   31  C   UNL     1     -10.314  13.075  65.683  1.00  0.00    -0.294 A  
HETATM   32  C   UNL     1     -10.814  14.480  65.734  1.00  0.00    -0.315 C  
HETATM   33  C   UNL     1      -9.212  12.673  66.485  1.00  0.00    -0.200 A  
HETATM   34  O   UNL     1     -10.078  15.450  65.719  1.00  0.00    -0.308 OA 
HETATM   35  I   UNL     1      -8.376  13.977  67.993  1.00  0.00    -0.205 I  
HETATM   36  O   UNL     1     -12.155  14.604  65.840  1.00  0.00    -0.315 OA 
ENDBRANCH  22  25
ENDBRANCH  20  21
ENDBRANCH  19  20
ENDBRANCH  18  19
ENDBRANCH  17  18
ENDBRANCH  15  17
ENDBRANCH   7  13
TORSDOF 7
ENDMDL
MODEL      145
REMARK 921   NORMALIZED FREE ENERGY PREDICTED BY IDOCK:   -4.00 KCAL/MOL
REMARK 922        TOTAL FREE ENERGY PREDICTED BY IDOCK:   -6.56 KCAL/MOL
REMARK 923 INTER-LIGAND FREE ENERGY PREDICTED BY IDOCK:   -6.03 KCAL/MOL
REMARK 924 INTRA-LIGAND FREE ENERGY PREDICTED BY IDOCK:   -0.53 KCAL/MOL
REMARK 927      BINDING AFFINITY PREDICTED BY RF-SCORE:    0.00 PKD
ROOT
HETATM    1  O   UNL     1     -11.889  17.408  68.576  1.00  0.00     0.909 OA 
HETATM    2  C   UNL     1     -10.888  16.589  68.186  1.00  0.00    -0.345 C  
HETATM    3  C   UNL     1     -11.173  15.138  68.356  1.00  0.00    -0.307 A  
HETATM    4  O   UNL     1      -9.862  17.016  67.688  1.00  0.00    -0.247 OA 
HETATM    5  C   UNL     1     -10.935  14.223  67.295  1.00  0.00    -0.297 A  
HETATM    6  I   UNL     1     -10.331  14.908  65.337  1.00  0.00    -0.409 I  
HETATM    7  C   UNL     1     -11.168  12.827  67.448  1.00  0.00    -0.294 A  
HETATM    8  I   UNL     1     -11.889  15.775  71.340  1.00  0.00    -0.585 I  
HETATM    9  C   UNL     1     -11.629  12.356  68.691  1.00  0.00    -0.319 A  
HETATM   10  C   UNL     1     -11.626  14.626  69.585  1.00  0.00    -0.307 A  
HETATM   11  C   UNL     1     -11.869  13.255  69.740  1.00  0.00    -0.394 A  
HETATM   12  I   UNL     1     -11.767  10.316  69.218  1.00  0.00     0.142 I  
ENDROOT
BRANCH   7  13
HETATM   13  N   UNL     1     -10.847  11.957  66.363  1.00  0.00    -0.267 N  
HETATM   14  O   UNL     1      -8.687  11.445  67.042  1.00  0.00    -0.150 OA 
HETATM   15  C   UNL     1      -9.622  11.314  66.257  1.00  0.00    -0.209 C  
HETATM   16  H   UNL     1     -11.546  11.800  65.637  1.00  0.00     0.000 HD 
BRANCH  15  17
HETATM   17  C   UNL     1      -9.565  10.276  65.144  1.00  0.00    -0.337 C  
BRANCH  17  18
HETATM   18  C   UNL     1      -9.304   8.892  65.732  1.00  0.00    -0.286 C  
BRANCH  18  19
HETATM   19  C   UNL     1      -7.838   8.600  66.070  1.00  0.00    -0.102 C  
BRANCH  19  20
HETATM   20  C   UNL     1      -7.498   7.119  66.267  1.00  0.00    -0.087 C  
BRANCH  20  21
HETATM   21  C   UNL     1      -7.501   6.762  67.750  1.00  0.00    -0.098 C  
HETATM   22  N   UNL     1      -8.773   6.615  68.282  1.00  0.00    -0.119 N  
HETATM   23  O   UNL     1      -6.466   6.696  68.404  1.00  0.00    -0.045 OA 
HETATM   24  H   UNL     1      -9.584   6.747  67.678  1.00  0.00     0.000 HD 
BRANCH  22  25
HETATM   25  C   UNL     1      -8.974   6.283  69.655  1.00  0.00    -0.135 A  
HETATM   26  C   UNL     1      -8.943   7.251  70.672  1.00  0.00    -0.156 A  
HETATM   27  I   UNL     1      -8.284   9.245  70.390  1.00  0.00    -0.193 I  
HETATM   28  C   UNL     1      -9.184   6.894  72.002  1.00  0.00    -0.146 A  
HETATM   29  C   UNL     1      -9.393   5.554  72.358  1.00  0.00    -0.143 A  
HETATM   30  I   UNL     1      -9.617   5.235  74.436  1.00  0.00    -0.226 I  
HETATM   31  C   UNL     1      -9.376   4.544  71.380  1.00  0.00    -0.206 A  
HETATM   32  C   UNL     1      -9.492   3.104  71.753  1.00  0.00    -0.145 C  
HETATM   33  C   UNL     1      -9.170   4.923  70.026  1.00  0.00    -0.127 A  
HETATM   34  O   UNL     1      -8.746   2.242  71.322  1.00  0.00    -0.061 OA 
HETATM   35  I   UNL     1      -9.271   3.481  68.419  1.00  0.00    -0.190 I  
HETATM   36  O   UNL     1     -10.519   2.810  72.579  1.00  0.00    -0.149 OA 
ENDBRANCH  22  25
ENDBRANCH  20  21
ENDBRANCH  19  20
ENDBRANCH  18  19
ENDBRANCH  17  18
ENDBRANCH  15  17
ENDBRANCH   7  13
TORSDOF 7
ENDMDL
MODEL      146
REMARK 921   NORMALIZED FREE ENERGY PREDICTED BY IDOCK:   -3.96 KCAL/MOL
REMARK 922        TOTAL FREE ENERGY PREDICTED BY IDOCK:   -6.49 KCAL/MOL
REMARK 923 INTER-LIGAND FREE ENERGY PREDICTED BY IDOCK:   -5.55 KCAL/MOL
REMARK 924 INTRA-LIGAND FREE ENERGY PREDICTED BY IDOCK:   -0.95 KCAL/MOL
REMARK 927      BINDING AFFINITY PREDICTED BY RF-SCORE:    0.00 PKD
ROOT
HETATM    1  O   UNL     1     -11.412  15.055  64.645  1.00  0.00    -0.404 OA 
HETATM    2  C   UNL     1     -11.215  14.472  65.848  1.00  0.00    -0.331 C  
HETATM    3  C   UNL     1     -10.494  13.172  65.795  1.00  0.00    -0.291 A  
HETATM    4  O   UNL     1     -11.558  15.006  66.887  1.00  0.00    -0.323 OA 
HETATM    5  C   UNL     1      -9.393  12.917  66.657  1.00  0.00    -0.240 A  
HETATM    6  I   UNL     1      -8.596  14.459  67.945  1.00  0.00    -0.213 I  
HETATM    7  C   UNL     1      -8.711  11.667  66.649  1.00  0.00    -0.187 A  
HETATM    8  I   UNL     1     -12.625  12.239  63.696  1.00  0.00    -0.181 I  
HETATM    9  C   UNL     1      -9.162  10.664  65.771  1.00  0.00    -0.189 A  
HETATM   10  C   UNL     1     -10.917  12.140  64.940  1.00  0.00    -0.309 A  
HETATM   11  C   UNL     1     -10.245  10.911  64.916  1.00  0.00    -0.381 A  
HETATM   12  I   UNL     1      -8.485   8.665  65.795  1.00  0.00    -0.208 I  
ENDROOT
BRANCH   7  13
HETATM   13  N   UNL     1      -7.655  11.456  67.586  1.00  0.00    -0.103 N  
HETATM   14  O   UNL     1      -5.897  11.821  66.116  1.00  0.00    -0.143 OA 
HETATM   15  C   UNL     1      -6.317  11.569  67.242  1.00  0.00    -0.107 C  
HETATM   16  H   UNL     1      -7.895  11.213  68.547  1.00  0.00     0.000 HD 
BRANCH  15  17
HETATM   17  C   UNL     1      -5.368  11.512  68.433  1.00  0.00    -0.042 C  
BRANCH  17  18
HETATM   18  C   UNL     1      -5.437  10.136  69.091  1.00  0.00    -0.038 C  
BRANCH  18  19
HETATM   19  C   UNL     1      -6.157  10.103  70.443  1.00  0.00    -0.102 C  
BRANCH  19  20
HETATM   20  C   UNL     1      -7.653   9.779  70.375  1.00  0.00    -0.165 C  
BRANCH  20  21
HETATM   21  C   UNL     1      -7.876   8.270  70.386  1.00  0.00    -0.089 C  
HETATM   22  N   UNL     1      -8.169   7.744  69.136  1.00  0.00    -0.128 N  
HETATM   23  O   UNL     1      -7.871   7.620  71.426  1.00  0.00    -0.086 OA 
HETATM   24  H   UNL     1      -8.212   8.368  68.331  1.00  0.00     0.000 HD 
BRANCH  22  25
HETATM   25  C   UNL     1      -8.410   6.350  68.951  1.00  0.00    -0.121 A  
HETATM   26  C   UNL     1      -9.670   5.772  69.178  1.00  0.00    -0.147 A  
HETATM   27  I   UNL     1     -11.282   6.773  70.120  1.00  0.00    -0.379 I  
HETATM   28  C   UNL     1      -9.878   4.409  68.947  1.00  0.00    -0.163 A  
HETATM   29  C   UNL     1      -8.820   3.578  68.553  1.00  0.00    -0.116 A  
HETATM   30  I   UNL     1      -9.340   1.536  68.380  1.00  0.00    -0.132 I  
HETATM   31  C   UNL     1      -7.529   4.104  68.369  1.00  0.00    -0.059 A  
HETATM   32  C   UNL     1      -6.371   3.219  68.052  1.00  0.00    -0.036 C  
HETATM   33  C   UNL     1      -7.337   5.498  68.568  1.00  0.00    -0.076 A  
HETATM   34  O   UNL     1      -5.304   3.282  68.637  1.00  0.00    -0.011 OA 
HETATM   35  I   UNL     1      -5.435   6.446  68.173  1.00  0.00    -0.009 I  
HETATM   36  O   UNL     1      -6.574   2.358  67.032  1.00  0.00    -0.037 OA 
ENDBRANCH  22  25
ENDBRANCH  20  21
ENDBRANCH  19  20
ENDBRANCH  18  19
ENDBRANCH  17  18
ENDBRANCH  15  17
ENDBRANCH   7  13
TORSDOF 7
ENDMDL
MODEL      147
REMARK 921   NORMALIZED FREE ENERGY PREDICTED BY IDOCK:   -3.93 KCAL/MOL
REMARK 922        TOTAL FREE ENERGY PREDICTED BY IDOCK:   -6.45 KCAL/MOL
REMARK 923 INTER-LIGAND FREE ENERGY PREDICTED BY IDOCK:   -5.59 KCAL/MOL
REMARK 924 INTRA-LIGAND FREE ENERGY PREDICTED BY IDOCK:   -0.87 KCAL/MOL
REMARK 927      BINDING AFFINITY PREDICTED BY RF-SCORE:    0.00 PKD
ROOT
HETATM    1  O   UNL     1     -11.197  17.428  66.357  1.00  0.00     0.326 OA 
HETATM    2  C   UNL     1     -10.179  16.572  66.123  1.00  0.00    -0.346 C  
HETATM    3  C   UNL     1      -9.090  16.613  67.135  1.00  0.00    -0.227 A  
HETATM    4  O   UNL     1     -10.191  15.797  65.183  1.00  0.00    -0.430 OA 
HETATM    5  C   UNL     1      -8.588  15.414  67.711  1.00  0.00    -0.157 A  
HETATM    6  I   UNL     1      -9.501  13.500  67.290  1.00  0.00    -0.258 I  
HETATM    7  C   UNL     1      -7.523  15.427  68.655  1.00  0.00    -0.130 A  
HETATM    8  I   UNL     1      -8.957  19.707  66.657  1.00  0.00    -0.494 I  
HETATM    9  C   UNL     1      -6.953  16.665  69.004  1.00  0.00    -0.212 A  
HETATM   10  C   UNL     1      -8.486  17.827  67.505  1.00  0.00    -0.227 A  
HETATM   11  C   UNL     1      -7.445  17.851  68.442  1.00  0.00    -0.272 A  
HETATM   12  I   UNL     1      -5.197  16.888  70.155  1.00  0.00    -0.222 I  
ENDROOT
BRANCH   7  13
HETATM   13  N   UNL     1      -7.026  14.182  69.144  1.00  0.00    -0.112 N  
HETATM   14  O   UNL     1      -5.492  13.804  67.444  1.00  0.00    -0.347 OA 
HETATM   15  C   UNL     1      -6.025  13.471  68.500  1.00  0.00    -0.090 C  
HETATM   16  H   UNL     1      -7.422  13.800  70.003  1.00  0.00     0.000 HD 
BRANCH  15  17
HETATM   17  C   UNL     1      -5.500  12.284  69.297  1.00  0.00    -0.071 C  
BRANCH  17  18
HETATM   18  C   UNL     1      -6.225  11.008  68.873  1.00  0.00    -0.042 C  
BRANCH  18  19
HETATM   19  C   UNL     1      -7.689  10.920  69.315  1.00  0.00    -0.100 C  
BRANCH  19  20
HETATM   20  C   UNL     1      -8.046   9.679  70.140  1.00  0.00    -0.205 C  
BRANCH  20  21
HETATM   21  C   UNL     1      -7.918   8.418  69.292  1.00  0.00    -0.113 C  
HETATM   22  N   UNL     1      -8.973   8.234  68.409  1.00  0.00    -0.137 N  
HETATM   23  O   UNL     1      -7.004   7.617  69.452  1.00  0.00    -0.060 OA 
HETATM   24  H   UNL     1      -9.726   8.921  68.384  1.00  0.00     0.000 HD 
BRANCH  22  25
HETATM   25  C   UNL     1      -9.028   7.107  67.536  1.00  0.00    -0.121 A  
HETATM   26  C   UNL     1      -9.629   5.896  67.913  1.00  0.00    -0.115 A  
HETATM   27  I   UNL     1     -10.238   5.441  69.891  1.00  0.00    -0.325 I  
HETATM   28  C   UNL     1      -9.699   4.827  67.016  1.00  0.00    -0.205 A  
HETATM   29  C   UNL     1      -9.110   4.916  65.747  1.00  0.00    -0.148 A  
HETATM   30  I   UNL     1      -9.235   3.140  64.607  1.00  0.00    -0.144 I  
HETATM   31  C   UNL     1      -8.448   6.091  65.348  1.00  0.00    -0.145 A  
HETATM   32  C   UNL     1      -7.726   6.167  64.044  1.00  0.00    -0.106 C  
HETATM   33  C   UNL     1      -8.418   7.185  66.253  1.00  0.00    -0.138 A  
HETATM   34  O   UNL     1      -6.593   6.601  63.934  1.00  0.00    -0.039 OA 
HETATM   35  I   UNL     1      -7.560   9.090  65.697  1.00  0.00    -0.090 I  
HETATM   36  O   UNL     1      -8.439   5.755  62.973  1.00  0.00    -0.084 OA 
ENDBRANCH  22  25
ENDBRANCH  20  21
ENDBRANCH  19  20
ENDBRANCH  18  19
ENDBRANCH  17  18
ENDBRANCH  15  17
ENDBRANCH   7  13
TORSDOF 7
ENDMDL
MODEL      148
REMARK 921   NORMALIZED FREE ENERGY PREDICTED BY IDOCK:   -3.91 KCAL/MOL
REMARK 922        TOTAL FREE ENERGY PREDICTED BY IDOCK:   -6.42 KCAL/MOL
REMARK 923 INTER-LIGAND FREE ENERGY PREDICTED BY IDOCK:   -5.66 KCAL/MOL
REMARK 924 INTRA-LIGAND FREE ENERGY PREDICTED BY IDOCK:   -0.77 KCAL/MOL
REMARK 927      BINDING AFFINITY PREDICTED BY RF-SCORE:    0.00 PKD
ROOT
HETATM    1  O   UNL     1     -13.137  12.632  64.679  1.00  0.00    -0.821 OA 
HETATM    2  C   UNL     1     -11.811  12.401  64.786  1.00  0.00    -0.382 C  
HETATM    3  C   UNL     1     -11.093  13.325  65.704  1.00  0.00    -0.299 A  
HETATM    4  O   UNL     1     -11.269  11.473  64.211  1.00  0.00    -0.338 OA 
HETATM    5  C   UNL     1     -10.204  12.822  66.692  1.00  0.00    -0.238 A  
HETATM    6  I   UNL     1      -9.992  10.698  67.033  1.00  0.00    -0.279 I  
HETATM    7  C   UNL     1      -9.480  13.690  67.558  1.00  0.00    -0.222 A  
HETATM    8  I   UNL     1     -12.361  15.689  64.084  1.00  0.00     1.513 I  
HETATM    9  C   UNL     1      -9.649  15.078  67.408  1.00  0.00    -0.205 A  
HETATM   10  C   UNL     1     -11.226  14.719  65.582  1.00  0.00    -0.343 A  
HETATM   11  C   UNL     1     -10.527  15.581  66.438  1.00  0.00    -0.310 A  
HETATM   12  I   UNL     1      -8.473  16.535  68.384  1.00  0.00    -0.233 I  
ENDROOT
BRANCH   7  13
HETATM   13  N   UNL     1      -8.555  13.119  68.483  1.00  0.00    -0.334 N  
HETATM   14  O   UNL     1      -6.641  13.465  67.218  1.00  0.00    -0.234 OA 
HETATM   15  C   UNL     1      -7.191  13.068  68.242  1.00  0.00    -0.113 C  
HETATM   16  H   UNL     1      -8.913  12.733  69.357  1.00  0.00     0.000 HD 
BRANCH  15  17
HETATM   17  C   UNL     1      -6.369  12.613  69.441  1.00  0.00    -0.112 C  
BRANCH  17  18
HETATM   18  C   UNL     1      -6.623  11.133  69.718  1.00  0.00    -0.138 C  
BRANCH  18  19
HETATM   19  C   UNL     1      -5.361  10.270  69.823  1.00  0.00    -0.038 C  
BRANCH  19  20
HETATM   20  C   UNL     1      -5.141   9.602  71.184  1.00  0.00    -0.045 C  
BRANCH  20  21
HETATM   21  C   UNL     1      -6.006   8.353  71.314  1.00  0.00    -0.037 C  
HETATM   22  N   UNL     1      -6.969   8.445  72.308  1.00  0.00    -0.092 N  
HETATM   23  O   UNL     1      -5.797   7.345  70.647  1.00  0.00    -0.027 OA 
HETATM   24  H   UNL     1      -7.035   9.301  72.859  1.00  0.00     0.000 HD 
BRANCH  22  25
HETATM   25  C   UNL     1      -7.870   7.372  72.577  1.00  0.00    -0.096 A  
HETATM   26  C   UNL     1      -7.536   6.312  73.435  1.00  0.00    -0.091 A  
HETATM   27  I   UNL     1      -5.585   5.964  74.186  1.00  0.00    -0.051 I  
HETATM   28  C   UNL     1      -8.460   5.298  73.706  1.00  0.00    -0.111 A  
HETATM   29  C   UNL     1      -9.711   5.282  73.075  1.00  0.00    -0.146 A  
HETATM   30  I   UNL     1     -10.895   3.594  73.544  1.00  0.00    -0.268 I  
HETATM   31  C   UNL     1     -10.066   6.293  72.165  1.00  0.00    -0.203 A  
HETATM   32  C   UNL     1     -11.349   6.235  71.406  1.00  0.00    -0.296 C  
HETATM   33  C   UNL     1      -9.135   7.340  71.927  1.00  0.00    -0.133 A  
HETATM   34  O   UNL     1     -11.421   6.417  70.204  1.00  0.00    -0.385 OA 
HETATM   35  I   UNL     1      -9.625   9.025  70.666  1.00  0.00    -0.346 I  
HETATM   36  O   UNL     1     -12.447   6.005  72.159  1.00  0.00    -0.203 OA 
ENDBRANCH  22  25
ENDBRANCH  20  21
ENDBRANCH  19  20
ENDBRANCH  18  19
ENDBRANCH  17  18
ENDBRANCH  15  17
ENDBRANCH   7  13
TORSDOF 7
ENDMDL
MODEL      149
REMARK 921   NORMALIZED FREE ENERGY PREDICTED BY IDOCK:   -3.89 KCAL/MOL
REMARK 922        TOTAL FREE ENERGY PREDICTED BY IDOCK:   -6.40 KCAL/MOL
REMARK 923 INTER-LIGAND FREE ENERGY PREDICTED BY IDOCK:   -5.59 KCAL/MOL
REMARK 924 INTRA-LIGAND FREE ENERGY PREDICTED BY IDOCK:   -0.82 KCAL/MOL
REMARK 927      BINDING AFFINITY PREDICTED BY RF-SCORE:    0.00 PKD
ROOT
HETATM    1  O   UNL     1      -6.947  17.511  67.711  1.00  0.00    -0.167 OA 
HETATM    2  C   UNL     1      -7.105  16.433  68.511  1.00  0.00    -0.157 C  
HETATM    3  C   UNL     1      -7.630  15.223  67.823  1.00  0.00    -0.171 A  
HETATM    4  O   UNL     1      -6.788  16.451  69.687  1.00  0.00    -0.214 OA 
HETATM    5  C   UNL     1      -7.003  13.960  67.997  1.00  0.00    -0.141 A  
HETATM    6  I   UNL     1      -5.161  13.766  69.110  1.00  0.00    -0.076 I  
HETATM    7  C   UNL     1      -7.510  12.783  67.376  1.00  0.00    -0.145 A  
HETATM    8  I   UNL     1      -9.976  17.015  66.771  1.00  0.00    -0.333 I  
HETATM    9  C   UNL     1      -8.669  12.888  66.587  1.00  0.00    -0.037 A  
HETATM   10  C   UNL     1      -8.792  15.283  67.033  1.00  0.00    -0.237 A  
HETATM   11  C   UNL     1      -9.290  14.132  66.409  1.00  0.00    -0.254 A  
HETATM   12  I   UNL     1      -9.741  11.240  65.816  1.00  0.00    -0.303 I  
ENDROOT
BRANCH   7  13
HETATM   13  N   UNL     1      -6.869  11.536  67.646  1.00  0.00    -0.077 N  
HETATM   14  O   UNL     1      -5.349  11.615  65.895  1.00  0.00    -0.262 OA 
HETATM   15  C   UNL     1      -5.815  11.056  66.884  1.00  0.00    -0.083 C  
HETATM   16  H   UNL     1      -7.199  10.976  68.432  1.00  0.00     0.000 HD 
BRANCH  15  17
HETATM   17  C   UNL     1      -5.145   9.819  67.467  1.00  0.00    -0.035 C  
BRANCH  17  18
HETATM   18  C   UNL     1      -6.127   9.065  68.361  1.00  0.00    -0.046 C  
BRANCH  18  19
HETATM   19  C   UNL     1      -5.538   8.554  69.681  1.00  0.00    -0.030 C  
BRANCH  19  20
HETATM   20  C   UNL     1      -6.066   7.193  70.145  1.00  0.00    -0.024 C  
BRANCH  20  21
HETATM   21  C   UNL     1      -7.386   7.357  70.892  1.00  0.00    -0.073 C  
HETATM   22  N   UNL     1      -8.503   7.212  70.083  1.00  0.00    -0.137 N  
HETATM   23  O   UNL     1      -7.427   7.667  72.078  1.00  0.00    -0.067 OA 
HETATM   24  H   UNL     1      -8.377   7.014  69.091  1.00  0.00     0.000 HD 
BRANCH  22  25
HETATM   25  C   UNL     1      -9.825   7.334  70.606  1.00  0.00    -0.179 A  
HETATM   26  C   UNL     1     -10.495   6.256  71.206  1.00  0.00    -0.218 A  
HETATM   27  I   UNL     1      -9.814   4.251  71.138  1.00  0.00    -0.114 I  
HETATM   28  C   UNL     1     -11.775   6.425  71.743  1.00  0.00    -0.376 A  
HETATM   29  C   UNL     1     -12.442   7.652  71.634  1.00  0.00    -0.335 A  
HETATM   30  I   UNL     1     -14.409   7.641  72.411  1.00  0.00     0.198 I  
HETATM   31  C   UNL     1     -11.831   8.743  70.991  1.00  0.00    -0.315 A  
HETATM   32  C   UNL     1     -12.566  10.023  70.772  1.00  0.00    -0.285 C  
HETATM   33  C   UNL     1     -10.515   8.572  70.483  1.00  0.00    -0.204 A  
HETATM   34  O   UNL     1     -12.593  10.602  69.701  1.00  0.00    -0.222 OA 
HETATM   35  I   UNL     1      -9.418  10.216  69.609  1.00  0.00    -0.023 I  
HETATM   36  O   UNL     1     -13.174  10.526  71.869  1.00  0.00    -0.446 OA 
ENDBRANCH  22  25
ENDBRANCH  20  21
ENDBRANCH  19  20
ENDBRANCH  18  19
ENDBRANCH  17  18
ENDBRANCH  15  17
ENDBRANCH   7  13
TORSDOF 7
ENDMDL
MODEL      150
REMARK 921   NORMALIZED FREE ENERGY PREDICTED BY IDOCK:   -3.88 KCAL/MOL
REMARK 922        TOTAL FREE ENERGY PREDICTED BY IDOCK:   -6.39 KCAL/MOL
REMARK 923 INTER-LIGAND FREE ENERGY PREDICTED BY IDOCK:   -5.39 KCAL/MOL
REMARK 924 INTRA-LIGAND FREE ENERGY PREDICTED BY IDOCK:   -1.00 KCAL/MOL
REMARK 927      BINDING AFFINITY PREDICTED BY RF-SCORE:    0.00 PKD
ROOT
HETATM    1  O   UNL     1     -13.422  10.022  69.961  1.00  0.00     0.238 OA 
HETATM    2  C   UNL     1     -12.267  10.023  70.661  1.00  0.00    -0.269 C  
HETATM    3  C   UNL     1     -11.647   8.682  70.837  1.00  0.00    -0.307 A  
HETATM    4  O   UNL     1     -11.758  11.055  71.063  1.00  0.00    -0.232 OA 
HETATM    5  C   UNL     1     -10.267   8.479  70.563  1.00  0.00    -0.194 A  
HETATM    6  I   UNL     1      -9.051  10.045  69.704  1.00  0.00    -0.077 I  
HETATM    7  C   UNL     1      -9.646   7.213  70.758  1.00  0.00    -0.168 A  
HETATM    8  I   UNL     1     -14.406   7.714  71.964  1.00  0.00    -0.350 I  
HETATM    9  C   UNL     1     -10.428   6.152  71.250  1.00  0.00    -0.224 A  
HETATM   10  C   UNL     1     -12.390   7.598  71.336  1.00  0.00    -0.333 A  
HETATM   11  C   UNL     1     -11.790   6.346  71.520  1.00  0.00    -0.355 A  
HETATM   12  I   UNL     1      -9.654   4.289  71.875  1.00  0.00    -0.241 I  
ENDROOT
BRANCH   7  13
HETATM   13  N   UNL     1      -8.243   7.095  70.524  1.00  0.00    -0.123 N  
HETATM   14  O   UNL     1      -8.386   5.868  68.560  1.00  0.00    -0.108 OA 
HETATM   15  C   UNL     1      -7.721   6.439  69.420  1.00  0.00    -0.101 C  
HETATM   16  H   UNL     1      -7.599   7.511  71.197  1.00  0.00     0.000 HD 
BRANCH  15  17
HETATM   17  C   UNL     1      -6.216   6.612  69.255  1.00  0.00    -0.030 C  
BRANCH  17  18
HETATM   18  C   UNL     1      -5.912   7.966  68.620  1.00  0.00    -0.035 C  
BRANCH  18  19
HETATM   19  C   UNL     1      -6.319   8.096  67.148  1.00  0.00    -0.056 C  
BRANCH  19  20
HETATM   20  C   UNL     1      -5.414   8.995  66.300  1.00  0.00    -0.041 C  
BRANCH  20  21
HETATM   21  C   UNL     1      -6.092  10.334  66.028  1.00  0.00    -0.092 C  
HETATM   22  N   UNL     1      -7.060  10.666  66.965  1.00  0.00    -0.095 N  
HETATM   23  O   UNL     1      -5.844  10.997  65.027  1.00  0.00     0.006 OA 
HETATM   24  H   UNL     1      -7.246  10.026  67.736  1.00  0.00     0.000 HD 
BRANCH  22  25
HETATM   25  C   UNL     1      -7.802  11.881  66.873  1.00  0.00    -0.120 A  
HETATM   26  C   UNL     1      -8.976  11.986  66.110  1.00  0.00    -0.079 A  
HETATM   27  I   UNL     1      -9.638  10.507  64.744  1.00  0.00    -0.419 I  
HETATM   28  C   UNL     1      -9.698  13.182  66.076  1.00  0.00    -0.234 A  
HETATM   29  C   UNL     1      -9.230  14.321  66.747  1.00  0.00    -0.264 A  
HETATM   30  I   UNL     1     -10.420  16.045  66.459  1.00  0.00    -0.219 I  
HETATM   31  C   UNL     1      -8.030  14.277  67.478  1.00  0.00    -0.203 A  
HETATM   32  C   UNL     1      -7.463  15.504  68.110  1.00  0.00    -0.114 C  
HETATM   33  C   UNL     1      -7.325  13.045  67.537  1.00  0.00    -0.152 A  
HETATM   34  O   UNL     1      -6.296  15.834  67.996  1.00  0.00    -0.109 OA 
HETATM   35  I   UNL     1      -5.549  12.815  68.748  1.00  0.00    -0.080 I  
HETATM   36  O   UNL     1      -8.334  16.212  68.860  1.00  0.00    -0.208 OA 
ENDBRANCH  22  25
ENDBRANCH  20  21
ENDBRANCH  19  20
ENDBRANCH  18  19
ENDBRANCH  17  18
ENDBRANCH  15  17
ENDBRANCH   7  13
TORSDOF 7
ENDMDL
MODEL      151
REMARK 921   NORMALIZED FREE ENERGY PREDICTED BY IDOCK:   -3.84 KCAL/MOL
REMARK 922        TOTAL FREE ENERGY PREDICTED BY IDOCK:   -6.33 KCAL/MOL
REMARK 923 INTER-LIGAND FREE ENERGY PREDICTED BY IDOCK:   -5.62 KCAL/MOL
REMARK 924 INTRA-LIGAND FREE ENERGY PREDICTED BY IDOCK:   -0.72 KCAL/MOL
REMARK 927      BINDING AFFINITY PREDICTED BY RF-SCORE:    0.00 PKD
ROOT
HETATM    1  O   UNL     1      -9.783   1.611  68.340  1.00  0.00    -0.182 OA 
HETATM    2  C   UNL     1      -8.734   2.330  68.793  1.00  0.00    -0.084 C  
HETATM    3  C   UNL     1      -8.463   3.579  68.031  1.00  0.00    -0.109 A  
HETATM    4  O   UNL     1      -8.102   1.998  69.781  1.00  0.00    -0.042 OA 
HETATM    5  C   UNL     1      -8.266   4.814  68.707  1.00  0.00    -0.083 A  
HETATM    6  I   UNL     1      -8.532   4.977  70.845  1.00  0.00    -0.147 I  
HETATM    7  C   UNL     1      -7.971   6.013  67.999  1.00  0.00    -0.109 A  
HETATM    8  I   UNL     1      -8.425   1.818  65.439  1.00  0.00    -0.115 I  
HETATM    9  C   UNL     1      -7.860   5.955  66.598  1.00  0.00    -0.101 A  
HETATM   10  C   UNL     1      -8.335   3.563  66.631  1.00  0.00    -0.101 A  
HETATM   11  C   UNL     1      -8.057   4.741  65.926  1.00  0.00    -0.107 A  
HETATM   12  I   UNL     1      -7.158   7.537  65.389  1.00  0.00    -0.070 I  
ENDROOT
BRANCH   7  13
HETATM   13  N   UNL     1      -7.721   7.204  68.745  1.00  0.00    -0.114 N  
HETATM   14  O   UNL     1      -5.443   6.874  69.047  1.00  0.00    -0.016 OA 
HETATM   15  C   UNL     1      -6.457   7.551  69.199  1.00  0.00    -0.040 C  
HETATM   16  H   UNL     1      -8.503   7.825  68.953  1.00  0.00     0.000 HD 
BRANCH  15  17
HETATM   17  C   UNL     1      -6.376   8.954  69.786  1.00  0.00    -0.035 C  
BRANCH  17  18
HETATM   18  C   UNL     1      -5.172   9.695  69.209  1.00  0.00    -0.036 C  
BRANCH  18  19
HETATM   19  C   UNL     1      -5.480  10.580  67.997  1.00  0.00    -0.036 C  
BRANCH  19  20
HETATM   20  C   UNL     1      -6.969  10.813  67.722  1.00  0.00    -0.077 C  
BRANCH  20  21
HETATM   21  C   UNL     1      -7.221  12.266  67.331  1.00  0.00    -0.147 C  
HETATM   22  N   UNL     1      -8.536  12.668  67.513  1.00  0.00    -0.174 N  
HETATM   23  O   UNL     1      -6.347  12.965  66.830  1.00  0.00    -0.109 OA 
HETATM   24  H   UNL     1      -9.215  12.002  67.879  1.00  0.00     0.000 HD 
BRANCH  22  25
HETATM   25  C   UNL     1      -8.961  13.994  67.199  1.00  0.00    -0.232 A  
HETATM   26  C   UNL     1      -8.480  15.117  67.889  1.00  0.00    -0.149 A  
HETATM   27  I   UNL     1      -7.339  15.015  69.671  1.00  0.00     0.089 I  
HETATM   28  C   UNL     1      -8.890  16.404  67.526  1.00  0.00    -0.187 A  
HETATM   29  C   UNL     1      -9.840  16.595  66.514  1.00  0.00    -0.281 A  
HETATM   30  I   UNL     1     -10.396  18.614  66.218  1.00  0.00    -0.281 I  
HETATM   31  C   UNL     1     -10.390  15.495  65.834  1.00  0.00    -0.365 A  
HETATM   32  C   UNL     1     -11.478  15.672  64.828  1.00  0.00    -0.283 C  
HETATM   33  C   UNL     1      -9.938  14.194  66.184  1.00  0.00    -0.314 A  
HETATM   34  O   UNL     1     -12.495  15.001  64.820  1.00  0.00    -0.258 OA 
HETATM   35  I   UNL     1     -10.600  12.439  65.110  1.00  0.00    -0.367 I  
HETATM   36  O   UNL     1     -11.237  16.612  63.888  1.00  0.00    -0.955 OA 
ENDBRANCH  22  25
ENDBRANCH  20  21
ENDBRANCH  19  20
ENDBRANCH  18  19
ENDBRANCH  17  18
ENDBRANCH  15  17
ENDBRANCH   7  13
TORSDOF 7
ENDMDL
MODEL      152
REMARK 921   NORMALIZED FREE ENERGY PREDICTED BY IDOCK:   -3.84 KCAL/MOL
REMARK 922        TOTAL FREE ENERGY PREDICTED BY IDOCK:   -6.33 KCAL/MOL
REMARK 923 INTER-LIGAND FREE ENERGY PREDICTED BY IDOCK:   -5.77 KCAL/MOL
REMARK 924 INTRA-LIGAND FREE ENERGY PREDICTED BY IDOCK:   -0.56 KCAL/MOL
REMARK 927      BINDING AFFINITY PREDICTED BY RF-SCORE:    0.00 PKD
ROOT
HETATM    1  O   UNL     1     -10.390  18.990  66.050  1.00  0.00    -0.440 OA 
HETATM    2  C   UNL     1      -9.955  17.736  66.301  1.00  0.00    -0.318 C  
HETATM    3  C   UNL     1     -10.496  17.131  67.548  1.00  0.00    -0.348 A  
HETATM    4  O   UNL     1      -9.222  17.141  65.531  1.00  0.00    -0.376 OA 
HETATM    5  C   UNL     1     -11.047  15.820  67.539  1.00  0.00    -0.258 A  
HETATM    6  I   UNL     1     -11.298  14.721  65.696  1.00  0.00    -0.249 I  
HETATM    7  C   UNL     1     -11.537  15.209  68.728  1.00  0.00    -0.349 A  
HETATM    8  I   UNL     1      -9.497  19.691  69.053  1.00  0.00     0.048 I  
HETATM    9  C   UNL     1     -11.452  15.926  69.935  1.00  0.00    -0.344 A  
HETATM   10  C   UNL     1     -10.422  17.809  68.777  1.00  0.00    -0.249 A  
HETATM   11  C   UNL     1     -10.913  17.220  69.949  1.00  0.00     0.602 A  
HETATM   12  I   UNL     1     -11.854  15.109  71.840  1.00  0.00    -0.458 I  
ENDROOT
BRANCH   7  13
HETATM   13  N   UNL     1     -12.018  13.867  68.659  1.00  0.00    -0.379 N  
HETATM   14  O   UNL     1      -9.950  12.820  68.776  1.00  0.00    -0.139 OA 
HETATM   15  C   UNL     1     -11.175  12.767  68.707  1.00  0.00    -0.283 C  
HETATM   16  H   UNL     1     -13.022  13.710  68.571  1.00  0.00     0.000 HD 
BRANCH  15  17
HETATM   17  C   UNL     1     -11.905  11.435  68.830  1.00  0.00    -0.388 C  
BRANCH  17  18
HETATM   18  C   UNL     1     -11.884  10.702  67.491  1.00  0.00     0.683 C  
BRANCH  18  19
HETATM   19  C   UNL     1     -10.822   9.604  67.372  1.00  0.00    -0.242 C  
BRANCH  19  20
HETATM   20  C   UNL     1      -9.417  10.005  67.836  1.00  0.00    -0.159 C  
BRANCH  20  21
HETATM   21  C   UNL     1      -8.826   8.932  68.744  1.00  0.00    -0.137 C  
HETATM   22  N   UNL     1      -9.064   9.155  70.093  1.00  0.00    -0.188 N  
HETATM   23  O   UNL     1      -8.141   8.014  68.306  1.00  0.00    -0.122 OA 
HETATM   24  H   UNL     1      -9.593   9.979  70.375  1.00  0.00     0.000 HD 
BRANCH  22  25
HETATM   25  C   UNL     1      -8.585   8.258  71.094  1.00  0.00    -0.142 A  
HETATM   26  C   UNL     1      -7.282   8.340  71.611  1.00  0.00    -0.088 A  
HETATM   27  I   UNL     1      -5.753   9.553  70.787  1.00  0.00    -0.083 I  
HETATM   28  C   UNL     1      -6.862   7.469  72.620  1.00  0.00    -0.065 A  
HETATM   29  C   UNL     1      -7.705   6.451  73.087  1.00  0.00    -0.098 A  
HETATM   30  I   UNL     1      -6.818   5.181  74.525  1.00  0.00    -0.079 I  
HETATM   31  C   UNL     1      -8.998   6.296  72.556  1.00  0.00    -0.137 A  
HETATM   32  C   UNL     1      -9.871   5.156  72.964  1.00  0.00    -0.154 C  
HETATM   33  C   UNL     1      -9.430   7.212  71.559  1.00  0.00    -0.157 A  
HETATM   34  O   UNL     1     -10.467   4.455  72.167  1.00  0.00    -0.171 OA 
HETATM   35  I   UNL     1     -11.444   7.166  70.776  1.00  0.00    -0.341 I  
HETATM   36  O   UNL     1      -9.988   4.978  74.298  1.00  0.00    -0.166 OA 
ENDBRANCH  22  25
ENDBRANCH  20  21
ENDBRANCH  19  20
ENDBRANCH  18  19
ENDBRANCH  17  18
ENDBRANCH  15  17
ENDBRANCH   7  13
TORSDOF 7
ENDMDL
MODEL      153
REMARK 921   NORMALIZED FREE ENERGY PREDICTED BY IDOCK:   -3.82 KCAL/MOL
REMARK 922        TOTAL FREE ENERGY PREDICTED BY IDOCK:   -6.31 KCAL/MOL
REMARK 923 INTER-LIGAND FREE ENERGY PREDICTED BY IDOCK:   -5.42 KCAL/MOL
REMARK 924 INTRA-LIGAND FREE ENERGY PREDICTED BY IDOCK:   -0.88 KCAL/MOL
REMARK 927      BINDING AFFINITY PREDICTED BY RF-SCORE:    0.00 PKD
ROOT
HETATM    1  O   UNL     1     -12.188  12.134  63.896  1.00  0.00    -0.450 OA 
HETATM    2  C   UNL     1     -11.132  11.941  64.716  1.00  0.00    -0.311 C  
HETATM    3  C   UNL     1     -11.285  12.532  66.073  1.00  0.00    -0.354 A  
HETATM    4  O   UNL     1     -10.162  11.288  64.375  1.00  0.00    -0.270 OA 
HETATM    5  C   UNL     1     -11.000  11.765  67.235  1.00  0.00    -0.267 A  
HETATM    6  I   UNL     1     -10.515   9.663  67.101  1.00  0.00    -0.199 I  
HETATM    7  C   UNL     1     -11.105  12.321  68.541  1.00  0.00    -0.249 A  
HETATM    8  I   UNL     1     -11.964  15.244  64.658  1.00  0.00     0.162 I  
HETATM    9  C   UNL     1     -11.487  13.669  68.667  1.00  0.00    -0.307 A  
HETATM   10  C   UNL     1     -11.654  13.878  66.242  1.00  0.00    -0.365 A  
HETATM   11  C   UNL     1     -11.772  14.430  67.524  1.00  0.00    -0.416 A  
HETATM   12  I   UNL     1     -11.432  14.762  70.472  1.00  0.00    -0.176 I  
ENDROOT
BRANCH   7  13
HETATM   13  N   UNL     1     -10.742  11.513  69.661  1.00  0.00    -0.456 N  
HETATM   14  O   UNL     1     -12.847  10.623  70.062  1.00  0.00    -0.235 OA 
HETATM   15  C   UNL     1     -11.651  10.706  70.327  1.00  0.00    -0.336 C  
HETATM   16  H   UNL     1      -9.774  11.530  69.983  1.00  0.00     0.000 HD 
BRANCH  15  17
HETATM   17  C   UNL     1     -11.014   9.775  71.351  1.00  0.00    -0.258 C  
BRANCH  17  18
HETATM   18  C   UNL     1     -10.086   8.784  70.652  1.00  0.00    -0.248 C  
BRANCH  18  19
HETATM   19  C   UNL     1      -8.793   8.465  71.410  1.00  0.00    -0.230 C  
BRANCH  19  20
HETATM   20  C   UNL     1      -7.587   8.132  70.526  1.00  0.00    -0.079 C  
BRANCH  20  21
HETATM   21  C   UNL     1      -7.833   6.846  69.745  1.00  0.00    -0.115 C  
HETATM   22  N   UNL     1      -8.002   7.048  68.383  1.00  0.00    -0.121 N  
HETATM   23  O   UNL     1      -7.946   5.759  70.301  1.00  0.00    -0.100 OA 
HETATM   24  H   UNL     1      -7.952   7.996  68.010  1.00  0.00     0.000 HD 
BRANCH  22  25
HETATM   25  C   UNL     1      -8.245   5.961  67.491  1.00  0.00    -0.105 A  
HETATM   26  C   UNL     1      -9.516   5.383  67.344  1.00  0.00    -0.120 A  
HETATM   27  I   UNL     1     -11.159   5.790  68.618  1.00  0.00     0.822 I  
HETATM   28  C   UNL     1      -9.724   4.345  66.430  1.00  0.00    -0.227 A  
HETATM   29  C   UNL     1      -8.656   3.813  65.694  1.00  0.00    -0.112 A  
HETATM   30  I   UNL     1      -9.182   2.174  64.467  1.00  0.00    -0.076 I  
HETATM   31  C   UNL     1      -7.355   4.324  65.852  1.00  0.00    -0.080 A  
HETATM   32  C   UNL     1      -6.190   3.702  65.157  1.00  0.00    -0.024 C  
HETATM   33  C   UNL     1      -7.163   5.405  66.754  1.00  0.00    -0.078 A  
HETATM   34  O   UNL     1      -5.148   3.423  65.723  1.00  0.00    -0.008 OA 
HETATM   35  I   UNL     1      -5.240   6.368  66.970  1.00  0.00    -0.009 I  
HETATM   36  O   UNL     1      -6.358   3.503  63.832  1.00  0.00    -0.025 OA 
ENDBRANCH  22  25
ENDBRANCH  20  21
ENDBRANCH  19  20
ENDBRANCH  18  19
ENDBRANCH  17  18
ENDBRANCH  15  17
ENDBRANCH   7  13
TORSDOF 7
ENDMDL
MODEL      154
REMARK 921   NORMALIZED FREE ENERGY PREDICTED BY IDOCK:   -3.80 KCAL/MOL
REMARK 922        TOTAL FREE ENERGY PREDICTED BY IDOCK:   -6.27 KCAL/MOL
REMARK 923 INTER-LIGAND FREE ENERGY PREDICTED BY IDOCK:   -5.30 KCAL/MOL
REMARK 924 INTRA-LIGAND FREE ENERGY PREDICTED BY IDOCK:   -0.97 KCAL/MOL
REMARK 927      BINDING AFFINITY PREDICTED BY RF-SCORE:    0.00 PKD
ROOT
HETATM    1  O   UNL     1     -11.769  15.349  65.922  1.00  0.00    -0.021 OA 
HETATM    2  C   UNL     1     -10.574  14.743  65.752  1.00  0.00    -0.327 C  
HETATM    3  C   UNL     1      -9.565  15.060  66.798  1.00  0.00    -0.260 A  
HETATM    4  O   UNL     1     -10.371  13.961  64.840  1.00  0.00    -0.397 OA 
HETATM    5  C   UNL     1      -8.826  14.024  67.432  1.00  0.00    -0.206 A  
HETATM    6  I   UNL     1      -9.260  11.942  67.050  1.00  0.00    -0.213 I  
HETATM    7  C   UNL     1      -7.831  14.308  68.410  1.00  0.00    -0.140 A  
HETATM    8  I   UNL     1     -10.122  18.088  66.214  1.00  0.00    -0.213 I  
HETATM    9  C   UNL     1      -7.573  15.652  68.733  1.00  0.00    -0.162 A  
HETATM   10  C   UNL     1      -9.269  16.391  67.143  1.00  0.00    -0.213 A  
HETATM   11  C   UNL     1      -8.300  16.678  68.113  1.00  0.00    -0.193 A  
HETATM   12  I   UNL     1      -5.962  16.304  69.933  1.00  0.00    -0.051 I  
ENDROOT
BRANCH   7  13
HETATM   13  N   UNL     1      -7.083  13.224  68.959  1.00  0.00    -0.224 N  
HETATM   14  O   UNL     1      -5.437  13.159  67.325  1.00  0.00    -0.345 OA 
HETATM   15  C   UNL     1      -5.922  12.743  68.374  1.00  0.00    -0.068 C  
HETATM   16  H   UNL     1      -7.416  12.785  69.818  1.00  0.00     0.000 HD 
BRANCH  15  17
HETATM   17  C   UNL     1      -5.173  11.730  69.230  1.00  0.00    -0.051 C  
BRANCH  17  18
HETATM   18  C   UNL     1      -5.947  10.415  69.283  1.00  0.00    -0.037 C  
BRANCH  18  19
HETATM   19  C   UNL     1      -5.571   9.400  68.199  1.00  0.00    -0.037 C  
BRANCH  19  20
HETATM   20  C   UNL     1      -6.747   8.619  67.604  1.00  0.00    -0.066 C  
BRANCH  20  21
HETATM   21  C   UNL     1      -7.641   8.070  68.711  1.00  0.00    -0.103 C  
HETATM   22  N   UNL     1      -7.358   6.755  69.052  1.00  0.00    -0.091 N  
HETATM   23  O   UNL     1      -8.567   8.721  69.182  1.00  0.00    -0.125 OA 
HETATM   24  H   UNL     1      -6.607   6.266  68.566  1.00  0.00     0.000 HD 
BRANCH  22  25
HETATM   25  C   UNL     1      -8.093   6.072  70.066  1.00  0.00    -0.114 A  
HETATM   26  C   UNL     1      -9.302   5.412  69.798  1.00  0.00    -0.142 A  
HETATM   27  I   UNL     1     -10.375   5.594  67.980  1.00  0.00    -0.217 I  
HETATM   28  C   UNL     1      -9.974   4.719  70.810  1.00  0.00    -0.291 A  
HETATM   29  C   UNL     1      -9.491   4.726  72.126  1.00  0.00    -0.139 A  
HETATM   30  I   UNL     1     -10.730   3.715  73.509  1.00  0.00    -0.321 I  
HETATM   31  C   UNL     1      -8.313   5.422  72.451  1.00  0.00    -0.118 A  
HETATM   32  C   UNL     1      -7.842   5.529  73.863  1.00  0.00    -0.104 C  
HETATM   33  C   UNL     1      -7.618   6.089  71.407  1.00  0.00    -0.099 A  
HETATM   34  O   UNL     1      -7.497   6.580  74.373  1.00  0.00    -0.098 OA 
HETATM   35  I   UNL     1      -5.721   7.066  71.755  1.00  0.00    -0.037 I  
HETATM   36  O   UNL     1      -7.784   4.358  74.534  1.00  0.00    -0.079 OA 
ENDBRANCH  22  25
ENDBRANCH  20  21
ENDBRANCH  19  20
ENDBRANCH  18  19
ENDBRANCH  17  18
ENDBRANCH  15  17
ENDBRANCH   7  13
TORSDOF 7
ENDMDL
MODEL      155
REMARK 921   NORMALIZED FREE ENERGY PREDICTED BY IDOCK:   -3.79 KCAL/MOL
REMARK 922        TOTAL FREE ENERGY PREDICTED BY IDOCK:   -6.27 KCAL/MOL
REMARK 923 INTER-LIGAND FREE ENERGY PREDICTED BY IDOCK:   -5.36 KCAL/MOL
REMARK 924 INTRA-LIGAND FREE ENERGY PREDICTED BY IDOCK:   -0.91 KCAL/MOL
REMARK 927      BINDING AFFINITY PREDICTED BY RF-SCORE:    0.00 PKD
ROOT
HETATM    1  O   UNL     1     -12.519  13.985  66.966  1.00  0.00    -0.326 OA 
HETATM    2  C   UNL     1     -11.682  12.937  66.802  1.00  0.00    -0.383 C  
HETATM    3  C   UNL     1     -10.313  13.147  67.343  1.00  0.00    -0.239 A  
HETATM    4  O   UNL     1     -12.051  11.891  66.297  1.00  0.00    -0.535 OA 
HETATM    5  C   UNL     1      -9.702  12.167  68.171  1.00  0.00    -0.208 A  
HETATM    6  I   UNL     1     -10.791  10.423  68.837  1.00  0.00    -0.330 I  
HETATM    7  C   UNL     1      -8.378  12.331  68.671  1.00  0.00    -0.002 A  
HETATM    8  I   UNL     1     -10.207  15.786  65.657  1.00  0.00    -0.340 I  
HETATM    9  C   UNL     1      -7.666  13.490  68.313  1.00  0.00    -0.137 A  
HETATM   10  C   UNL     1      -9.563  14.286  67.002  1.00  0.00    -0.257 A  
HETATM   11  C   UNL     1      -8.265  14.462  67.498  1.00  0.00    -0.201 A  
HETATM   12  I   UNL     1      -5.614  13.799  68.704  1.00  0.00    -0.109 I  
ENDROOT
BRANCH   7  13
HETATM   13  N   UNL     1      -7.803  11.278  69.444  1.00  0.00    -0.368 N  
HETATM   14  O   UNL     1      -6.801  10.149  67.681  1.00  0.00    -0.074 OA 
HETATM   15  C   UNL     1      -7.036  10.270  68.881  1.00  0.00    -0.075 C  
HETATM   16  H   UNL     1      -7.962  11.268  70.451  1.00  0.00     0.000 HD 
BRANCH  15  17
HETATM   17  C   UNL     1      -6.349   9.374  69.903  1.00  0.00    -0.044 C  
BRANCH  17  18
HETATM   18  C   UNL     1      -5.656   8.210  69.197  1.00  0.00    -0.031 C  
BRANCH  18  19
HETATM   19  C   UNL     1      -5.654   6.891  69.976  1.00  0.00    -0.023 C  
BRANCH  19  20
HETATM   20  C   UNL     1      -6.996   6.151  70.005  1.00  0.00    -0.070 C  
BRANCH  20  21
HETATM   21  C   UNL     1      -7.123   5.225  68.799  1.00  0.00    -0.061 C  
HETATM   22  N   UNL     1      -8.371   5.270  68.194  1.00  0.00    -0.098 N  
HETATM   23  O   UNL     1      -6.221   4.464  68.467  1.00  0.00    -0.030 OA 
HETATM   24  H   UNL     1      -9.086   5.889  68.574  1.00  0.00     0.000 HD 
BRANCH  22  25
HETATM   25  C   UNL     1      -8.676   4.470  67.054  1.00  0.00    -0.104 A  
HETATM   26  C   UNL     1      -9.063   3.125  67.164  1.00  0.00    -0.178 A  
HETATM   27  I   UNL     1      -8.939   1.999  68.955  1.00  0.00    -0.210 I  
HETATM   28  C   UNL     1      -9.393   2.384  66.026  1.00  0.00     0.056 A  
HETATM   29  C   UNL     1      -9.280   2.945  64.747  1.00  0.00    -0.146 A  
HETATM   30  I   UNL     1      -9.716   1.606  63.170  1.00  0.00    -0.114 I  
HETATM   31  C   UNL     1      -8.842   4.272  64.585  1.00  0.00    -0.141 A  
HETATM   32  C   UNL     1      -8.614   4.852  63.230  1.00  0.00    -0.122 C  
HETATM   33  C   UNL     1      -8.547   5.028  65.751  1.00  0.00    -0.131 A  
HETATM   34  O   UNL     1      -7.606   5.465  62.928  1.00  0.00    -0.058 OA 
HETATM   35  I   UNL     1      -8.009   7.118  65.638  1.00  0.00    -0.141 I  
HETATM   36  O   UNL     1      -9.634   4.685  62.360  1.00  0.00    -0.125 OA 
ENDBRANCH  22  25
ENDBRANCH  20  21
ENDBRANCH  19  20
ENDBRANCH  18  19
ENDBRANCH  17  18
ENDBRANCH  15  17
ENDBRANCH   7  13
TORSDOF 7
ENDMDL
MODEL      156
REMARK 921   NORMALIZED FREE ENERGY PREDICTED BY IDOCK:   -3.77 KCAL/MOL
REMARK 922        TOTAL FREE ENERGY PREDICTED BY IDOCK:   -6.23 KCAL/MOL
REMARK 923 INTER-LIGAND FREE ENERGY PREDICTED BY IDOCK:   -5.31 KCAL/MOL
REMARK 924 INTRA-LIGAND FREE ENERGY PREDICTED BY IDOCK:   -0.92 KCAL/MOL
REMARK 927      BINDING AFFINITY PREDICTED BY RF-SCORE:    0.00 PKD
ROOT
HETATM    1  O   UNL     1      -9.827  19.274  69.020  1.00  0.00    -0.422 OA 
HETATM    2  C   UNL     1      -9.952  18.234  68.167  1.00  0.00    -0.360 C  
HETATM    3  C   UNL     1      -9.173  17.025  68.547  1.00  0.00    -0.266 A  
HETATM    4  O   UNL     1     -10.688  18.279  67.198  1.00  0.00    -0.385 OA 
HETATM    5  C   UNL     1      -9.784  15.742  68.558  1.00  0.00    -0.206 A  
HETATM    6  I   UNL     1     -11.904  15.506  68.209  1.00  0.00     0.285 I  
HETATM    7  C   UNL     1      -9.049  14.567  68.885  1.00  0.00    -0.111 A  
HETATM    8  I   UNL     1      -6.655  18.880  68.731  1.00  0.00    -0.332 I  
HETATM    9  C   UNL     1      -7.681  14.695  69.186  1.00  0.00    -0.113 A  
HETATM   10  C   UNL     1      -7.802  17.107  68.846  1.00  0.00    -0.217 A  
HETATM   11  C   UNL     1      -7.073  15.959  69.180  1.00  0.00    -0.185 A  
HETATM   12  I   UNL     1      -6.352  13.070  69.417  1.00  0.00    -0.013 I  
ENDROOT
BRANCH   7  13
HETATM   13  N   UNL     1      -9.709  13.304  68.813  1.00  0.00    -0.417 N  
HETATM   14  O   UNL     1      -9.593  13.055  66.508  1.00  0.00    -0.252 OA 
HETATM   15  C   UNL     1      -9.914  12.634  67.617  1.00  0.00    -0.216 C  
HETATM   16  H   UNL     1     -10.044  12.877  69.677  1.00  0.00     0.000 HD 
BRANCH  15  17
HETATM   17  C   UNL     1     -10.446  11.216  67.787  1.00  0.00    -0.225 C  
BRANCH  17  18
HETATM   18  C   UNL     1     -10.411  10.817  69.260  1.00  0.00    -0.228 C  
BRANCH  18  19
HETATM   19  C   UNL     1      -9.996   9.367  69.527  1.00  0.00    -0.200 C  
BRANCH  19  20
HETATM   20  C   UNL     1      -8.716   9.197  70.351  1.00  0.00    -0.245 C  
BRANCH  20  21
HETATM   21  C   UNL     1      -7.798   8.162  69.709  1.00  0.00    -0.105 C  
HETATM   22  N   UNL     1      -8.360   7.528  68.610  1.00  0.00    -0.128 N  
HETATM   23  O   UNL     1      -6.705   7.877  70.186  1.00  0.00    -0.037 OA 
HETATM   24  H   UNL     1      -9.303   7.784  68.317  1.00  0.00     0.000 HD 
BRANCH  22  25
HETATM   25  C   UNL     1      -7.651   6.527  67.882  1.00  0.00    -0.103 A  
HETATM   26  C   UNL     1      -6.612   6.844  66.992  1.00  0.00    -0.047 A  
HETATM   27  I   UNL     1      -6.160   8.811  66.349  1.00  0.00    -0.062 I  
HETATM   28  C   UNL     1      -5.913   5.832  66.327  1.00  0.00    -0.022 A  
HETATM   29  C   UNL     1      -6.279   4.488  66.480  1.00  0.00    -0.032 A  
HETATM   30  I   UNL     1      -5.163   3.146  65.287  1.00  0.00    -0.010 I  
HETATM   31  C   UNL     1      -7.350   4.130  67.317  1.00  0.00    -0.069 A  
HETATM   32  C   UNL     1      -7.821   2.717  67.410  1.00  0.00    -0.069 C  
HETATM   33  C   UNL     1      -8.028   5.162  68.019  1.00  0.00    -0.091 A  
HETATM   34  O   UNL     1      -8.994   2.398  67.330  1.00  0.00    -0.129 OA 
HETATM   35  I   UNL     1      -9.591   4.722  69.446  1.00  0.00    -0.264 I  
HETATM   36  O   UNL     1      -6.848   1.806  67.633  1.00  0.00    -0.034 OA 
ENDBRANCH  22  25
ENDBRANCH  20  21
ENDBRANCH  19  20
ENDBRANCH  18  19
ENDBRANCH  17  18
ENDBRANCH  15  17
ENDBRANCH   7  13
TORSDOF 7
ENDMDL
MODEL      157
REMARK 921   NORMALIZED FREE ENERGY PREDICTED BY IDOCK:   -3.72 KCAL/MOL
REMARK 922        TOTAL FREE ENERGY PREDICTED BY IDOCK:   -6.16 KCAL/MOL
REMARK 923 INTER-LIGAND FREE ENERGY PREDICTED BY IDOCK:   -5.29 KCAL/MOL
REMARK 924 INTRA-LIGAND FREE ENERGY PREDICTED BY IDOCK:   -0.87 KCAL/MOL
REMARK 927      BINDING AFFINITY PREDICTED BY RF-SCORE:    0.00 PKD
ROOT
HETATM    1  O   UNL     1      -6.999   3.913  62.812  1.00  0.00    -0.034 OA 
HETATM    2  C   UNL     1      -7.651   4.808  63.586  1.00  0.00    -0.064 C  
HETATM    3  C   UNL     1      -7.731   4.440  65.025  1.00  0.00    -0.081 A  
HETATM    4  O   UNL     1      -8.086   5.853  63.137  1.00  0.00    -0.112 OA 
HETATM    5  C   UNL     1      -7.391   5.380  66.035  1.00  0.00    -0.078 A  
HETATM    6  I   UNL     1      -6.568   7.315  65.535  1.00  0.00    -0.049 I  
HETATM    7  C   UNL     1      -7.494   5.060  67.419  1.00  0.00    -0.083 A  
HETATM    8  I   UNL     1      -8.915   1.687  64.107  1.00  0.00    -0.119 I  
HETATM    9  C   UNL     1      -7.961   3.783  67.778  1.00  0.00    -0.085 A  
HETATM   10  C   UNL     1      -8.201   3.177  65.428  1.00  0.00    -0.094 A  
HETATM   11  C   UNL     1      -8.294   2.850  66.787  1.00  0.00    -0.094 A  
HETATM   12  I   UNL     1      -8.455   3.203  69.747  1.00  0.00    -0.133 I  
ENDROOT
BRANCH   7  13
HETATM   13  N   UNL     1      -7.198   6.073  68.379  1.00  0.00    -0.081 N  
HETATM   14  O   UNL     1      -9.327   6.991  68.487  1.00  0.00    -0.137 OA 
HETATM   15  C   UNL     1      -8.156   6.956  68.855  1.00  0.00    -0.120 C  
HETATM   16  H   UNL     1      -6.244   6.151  68.731  1.00  0.00     0.000 HD 
BRANCH  15  17
HETATM   17  C   UNL     1      -7.680   7.813  70.021  1.00  0.00    -0.091 C  
BRANCH  17  18
HETATM   18  C   UNL     1      -6.851   8.987  69.504  1.00  0.00    -0.048 C  
BRANCH  18  19
HETATM   19  C   UNL     1      -7.663  10.120  68.868  1.00  0.00    -0.093 C  
BRANCH  19  20
HETATM   20  C   UNL     1      -7.434  10.321  67.367  1.00  0.00    -0.094 C  
BRANCH  20  21
HETATM   21  C   UNL     1      -7.612  11.788  66.989  1.00  0.00    -0.147 C  
HETATM   22  N   UNL     1      -8.853  12.303  67.335  1.00  0.00    -0.176 N  
HETATM   23  O   UNL     1      -6.757  12.407  66.366  1.00  0.00     0.356 OA 
HETATM   24  H   UNL     1      -9.531  11.698  67.799  1.00  0.00     0.000 HD 
BRANCH  22  25
HETATM   25  C   UNL     1      -9.202  13.658  67.059  1.00  0.00    -0.250 A  
HETATM   26  C   UNL     1      -8.653  14.734  67.774  1.00  0.00    -0.166 A  
HETATM   27  I   UNL     1      -7.508  14.519  69.544  1.00  0.00     0.238 I  
HETATM   28  C   UNL     1      -8.989  16.051  67.447  1.00  0.00    -0.202 A  
HETATM   29  C   UNL     1      -9.933  16.323  66.447  1.00  0.00    -0.300 A  
HETATM   30  I   UNL     1     -10.373  18.377  66.207  1.00  0.00    -0.193 I  
HETATM   31  C   UNL     1     -10.551  15.274  65.744  1.00  0.00    -0.359 A  
HETATM   32  C   UNL     1     -11.633  15.540  64.751  1.00  0.00    -0.256 C  
HETATM   33  C   UNL     1     -10.172  13.941  66.057  1.00  0.00    -0.310 A  
HETATM   34  O   UNL     1     -12.686  14.929  64.734  1.00  0.00    -0.376 OA 
HETATM   35  I   UNL     1     -10.942  12.255  64.944  1.00  0.00    -0.400 I  
HETATM   36  O   UNL     1     -11.344  16.488  63.834  1.00  0.00    -1.057 OA 
ENDBRANCH  22  25
ENDBRANCH  20  21
ENDBRANCH  19  20
ENDBRANCH  18  19
ENDBRANCH  17  18
ENDBRANCH  15  17
ENDBRANCH   7  13
TORSDOF 7
ENDMDL
MODEL      158
REMARK 921   NORMALIZED FREE ENERGY PREDICTED BY IDOCK:   -3.70 KCAL/MOL
REMARK 922        TOTAL FREE ENERGY PREDICTED BY IDOCK:   -6.13 KCAL/MOL
REMARK 923 INTER-LIGAND FREE ENERGY PREDICTED BY IDOCK:   -5.33 KCAL/MOL
REMARK 924 INTRA-LIGAND FREE ENERGY PREDICTED BY IDOCK:   -0.80 KCAL/MOL
REMARK 927      BINDING AFFINITY PREDICTED BY RF-SCORE:    0.00 PKD
ROOT
HETATM    1  O   UNL     1      -9.406   7.223  71.713  1.00  0.00    -0.149 OA 
HETATM    2  C   UNL     1      -9.592   8.556  71.594  1.00  0.00    -0.249 C  
HETATM    3  C   UNL     1      -8.815   9.194  70.498  1.00  0.00    -0.263 A  
HETATM    4  O   UNL     1     -10.376   9.163  72.301  1.00  0.00    -0.162 OA 
HETATM    5  C   UNL     1      -9.446  10.076  69.580  1.00  0.00    -0.226 A  
HETATM    6  I   UNL     1     -11.584  10.387  69.612  1.00  0.00    -0.233 I  
HETATM    7  C   UNL     1      -8.715  10.725  68.545  1.00  0.00    -0.149 A  
HETATM    8  I   UNL     1      -6.260   7.857  71.724  1.00  0.00    -0.049 I  
HETATM    9  C   UNL     1      -7.331  10.489  68.453  1.00  0.00    -0.086 A  
HETATM   10  C   UNL     1      -7.429   8.993  70.376  1.00  0.00    -0.089 A  
HETATM   11  C   UNL     1      -6.704   9.617  69.354  1.00  0.00    -0.053 A  
HETATM   12  I   UNL     1      -6.020  11.555  67.187  1.00  0.00    -0.140 I  
ENDROOT
BRANCH   7  13
HETATM   13  N   UNL     1      -9.399  11.648  67.698  1.00  0.00    -0.174 N  
HETATM   14  O   UNL     1      -8.735  13.583  68.795  1.00  0.00    -0.052 OA 
HETATM   15  C   UNL     1      -9.338  13.021  67.884  1.00  0.00    -0.212 C  
HETATM   16  H   UNL     1      -9.956  11.284  66.925  1.00  0.00     0.000 HD 
BRANCH  15  17
HETATM   17  C   UNL     1      -9.964  13.825  66.752  1.00  0.00    -0.270 C  
BRANCH  17  18
HETATM   18  C   UNL     1     -11.174  13.083  66.189  1.00  0.00    -0.320 C  
BRANCH  18  19
HETATM   19  C   UNL     1     -10.849  11.763  65.481  1.00  0.00    -0.348 C  
BRANCH  19  20
HETATM   20  C   UNL     1     -10.130  11.908  64.136  1.00  0.00    -0.338 C  
BRANCH  20  21
HETATM   21  C   UNL     1      -9.440  10.602  63.755  1.00  0.00    -0.290 C  
HETATM   22  N   UNL     1      -8.514  10.169  64.694  1.00  0.00    -0.164 N  
HETATM   23  O   UNL     1      -9.642  10.050  62.679  1.00  0.00    -0.271 OA 
HETATM   24  H   UNL     1      -8.364  10.723  65.536  1.00  0.00     0.000 HD 
BRANCH  22  25
HETATM   25  C   UNL     1      -7.769   8.967  64.508  1.00  0.00    -0.116 A  
HETATM   26  C   UNL     1      -6.638   8.909  63.677  1.00  0.00    -0.089 A  
HETATM   27  I   UNL     1      -6.063  10.454  62.346  1.00  0.00    -0.134 I  
HETATM   28  C   UNL     1      -5.908   7.723  63.551  1.00  0.00    -0.057 A  
HETATM   29  C   UNL     1      -6.329   6.551  64.195  1.00  0.00    -0.037 A  
HETATM   30  I   UNL     1      -5.143   4.854  63.765  1.00  0.00    -0.010 I  
HETATM   31  C   UNL     1      -7.488   6.549  64.990  1.00  0.00    -0.085 A  
HETATM   32  C   UNL     1      -8.010   5.289  65.596  1.00  0.00    -0.106 C  
HETATM   33  C   UNL     1      -8.200   7.770  65.143  1.00  0.00    -0.132 A  
HETATM   34  O   UNL     1      -9.178   4.952  65.531  1.00  0.00    -0.153 OA 
HETATM   35  I   UNL     1      -9.908   7.926  66.458  1.00  0.00    -0.053 I  
HETATM   36  O   UNL     1      -7.093   4.558  66.266  1.00  0.00    -0.071 OA 
ENDBRANCH  22  25
ENDBRANCH  20  21
ENDBRANCH  19  20
ENDBRANCH  18  19
ENDBRANCH  17  18
ENDBRANCH  15  17
ENDBRANCH   7  13
TORSDOF 7
ENDMDL
MODEL      159
REMARK 921   NORMALIZED FREE ENERGY PREDICTED BY IDOCK:   -3.65 KCAL/MOL
REMARK 922        TOTAL FREE ENERGY PREDICTED BY IDOCK:   -6.06 KCAL/MOL
REMARK 923 INTER-LIGAND FREE ENERGY PREDICTED BY IDOCK:   -5.24 KCAL/MOL
REMARK 924 INTRA-LIGAND FREE ENERGY PREDICTED BY IDOCK:   -0.82 KCAL/MOL
REMARK 927      BINDING AFFINITY PREDICTED BY RF-SCORE:    0.00 PKD
ROOT
HETATM    1  O   UNL     1      -7.050   9.568  62.875  1.00  0.00    -0.102 OA 
HETATM    2  C   UNL     1      -6.604   9.311  64.124  1.00  0.00    -0.091 C  
HETATM    3  C   UNL     1      -7.559   8.556  64.979  1.00  0.00    -0.093 A  
HETATM    4  O   UNL     1      -5.486   9.630  64.487  1.00  0.00    -0.058 OA 
HETATM    5  C   UNL     1      -7.131   7.418  65.714  1.00  0.00    -0.065 A  
HETATM    6  I   UNL     1      -5.137   6.617  65.483  1.00  0.00    -0.019 I  
HETATM    7  C   UNL     1      -8.019   6.702  66.567  1.00  0.00    -0.106 A  
HETATM    8  I   UNL     1      -9.695  10.737  64.269  1.00  0.00    -0.418 I  
HETATM    9  C   UNL     1      -9.345   7.157  66.685  1.00  0.00    -0.166 A  
HETATM   10  C   UNL     1      -8.890   8.982  65.134  1.00  0.00    -0.182 A  
HETATM   11  C   UNL     1      -9.774   8.278  65.961  1.00  0.00    -0.100 A  
HETATM   12  I   UNL     1     -10.736   6.424  68.095  1.00  0.00    -0.382 I  
ENDROOT
BRANCH   7  13
HETATM   13  N   UNL     1      -7.507   5.607  67.325  1.00  0.00    -0.083 N  
HETATM   14  O   UNL     1      -6.512   6.866  69.001  1.00  0.00    -0.034 OA 
HETATM   15  C   UNL     1      -6.801   5.780  68.506  1.00  0.00    -0.063 C  
HETATM   16  H   UNL     1      -7.667   4.659  66.985  1.00  0.00     0.000 HD 
BRANCH  15  17
HETATM   17  C   UNL     1      -6.530   4.483  69.258  1.00  0.00    -0.036 C  
BRANCH  17  18
HETATM   18  C   UNL     1      -6.723   4.698  70.757  1.00  0.00    -0.036 C  
BRANCH  18  19
HETATM   19  C   UNL     1      -7.878   5.632  71.133  1.00  0.00    -0.110 C  
BRANCH  19  20
HETATM   20  C   UNL     1      -7.563   6.643  72.240  1.00  0.00    -0.095 C  
BRANCH  20  21
HETATM   21  C   UNL     1      -8.251   7.975  71.960  1.00  0.00    -0.137 C  
HETATM   22  N   UNL     1      -8.668   8.119  70.644  1.00  0.00    -0.132 N  
HETATM   23  O   UNL     1      -8.343   8.851  72.813  1.00  0.00    -0.385 OA 
HETATM   24  H   UNL     1      -8.497   7.362  69.983  1.00  0.00     0.000 HD 
BRANCH  22  25
HETATM   25  C   UNL     1      -9.329   9.301  70.195  1.00  0.00    -0.228 A  
HETATM   26  C   UNL     1     -10.677   9.561  70.489  1.00  0.00    -0.298 A  
HETATM   27  I   UNL     1     -12.003   8.141  71.332  1.00  0.00    -0.342 I  
HETATM   28  C   UNL     1     -11.280  10.750  70.065  1.00  0.00    -0.366 A  
HETATM   29  C   UNL     1     -10.573  11.673  69.282  1.00  0.00    -0.044 A  
HETATM   30  I   UNL     1     -11.720  13.336  68.658  1.00  0.00    -0.333 I  
HETATM   31  C   UNL     1      -9.238  11.425  68.916  1.00  0.00    -0.035 A  
HETATM   32  C   UNL     1      -8.505  12.344  67.997  1.00  0.00    -0.176 C  
HETATM   33  C   UNL     1      -8.623  10.233  69.385  1.00  0.00    -0.156 A  
HETATM   34  O   UNL     1      -7.863  11.954  67.038  1.00  0.00    -0.158 OA 
HETATM   35  I   UNL     1      -6.535   9.816  69.014  1.00  0.00    -0.046 I  
HETATM   36  O   UNL     1      -8.568  13.651  68.328  1.00  0.00    -0.164 OA 
ENDBRANCH  22  25
ENDBRANCH  20  21
ENDBRANCH  19  20
ENDBRANCH  18  19
ENDBRANCH  17  18
ENDBRANCH  15  17
ENDBRANCH   7  13
TORSDOF 7
ENDMDL
MODEL      160
REMARK 921   NORMALIZED FREE ENERGY PREDICTED BY IDOCK:   -3.65 KCAL/MOL
REMARK 922        TOTAL FREE ENERGY PREDICTED BY IDOCK:   -6.06 KCAL/MOL
REMARK 923 INTER-LIGAND FREE ENERGY PREDICTED BY IDOCK:   -5.56 KCAL/MOL
REMARK 924 INTRA-LIGAND FREE ENERGY PREDICTED BY IDOCK:   -0.50 KCAL/MOL
REMARK 927      BINDING AFFINITY PREDICTED BY RF-SCORE:    0.00 PKD
ROOT
HETATM    1  O   UNL     1      -7.946  19.496  69.646  1.00  0.00    -0.026 OA 
HETATM    2  C   UNL     1      -8.190  18.847  68.487  1.00  0.00    -0.353 C  
HETATM    3  C   UNL     1      -8.204  17.364  68.599  1.00  0.00    -0.264 A  
HETATM    4  O   UNL     1      -8.432  19.443  67.452  1.00  0.00    -0.285 OA 
HETATM    5  C   UNL     1      -9.266  16.603  68.039  1.00  0.00    -0.223 A  
HETATM    6  I   UNL     1     -10.996  17.562  67.170  1.00  0.00     0.586 I  
HETATM    7  C   UNL     1      -9.280  15.181  68.104  1.00  0.00    -0.184 A  
HETATM    8  I   UNL     1      -5.386  17.584  69.953  1.00  0.00    -0.257 I  
HETATM    9  C   UNL     1      -8.201  14.527  68.726  1.00  0.00    -0.146 A  
HETATM   10  C   UNL     1      -7.140  16.671  69.204  1.00  0.00    -0.226 A  
HETATM   11  C   UNL     1      -7.152  15.272  69.282  1.00  0.00    -0.177 A  
HETATM   12  I   UNL     1      -7.885  12.440  68.683  1.00  0.00     0.171 I  
ENDROOT
BRANCH   7  13
HETATM   13  N   UNL     1     -10.345  14.477  67.465  1.00  0.00    -0.243 N  
HETATM   14  O   UNL     1      -9.413  14.423  65.341  1.00  0.00    -0.083 OA 
HETATM   15  C   UNL     1     -10.316  14.136  66.122  1.00  0.00    -0.300 C  
HETATM   16  H   UNL     1     -11.160  14.215  68.019  1.00  0.00     0.000 HD 
BRANCH  15  17
HETATM   17  C   UNL     1     -11.449  13.211  65.696  1.00  0.00    -0.351 C  
BRANCH  17  18
HETATM   18  C   UNL     1     -10.881  11.899  65.159  1.00  0.00    -0.350 C  
BRANCH  18  19
HETATM   19  C   UNL     1     -10.275  11.985  63.754  1.00  0.00    -0.447 C  
BRANCH  19  20
HETATM   20  C   UNL     1      -9.732  10.665  63.198  1.00  0.00    -0.375 C  
BRANCH  20  21
HETATM   21  C   UNL     1      -8.789  10.009  64.201  1.00  0.00    -0.221 C  
HETATM   22  N   UNL     1      -9.254   8.797  64.690  1.00  0.00    -0.363 N  
HETATM   23  O   UNL     1      -7.762  10.559  64.584  1.00  0.00    -0.099 OA 
HETATM   24  H   UNL     1     -10.151   8.440  64.362  1.00  0.00     0.000 HD 
BRANCH  22  25
HETATM   25  C   UNL     1      -8.508   8.039  65.640  1.00  0.00    -0.149 A  
HETATM   26  C   UNL     1      -7.448   7.200  65.261  1.00  0.00    -0.092 A  
HETATM   27  I   UNL     1      -7.007   6.677  63.256  1.00  0.00    -0.065 I  
HETATM   28  C   UNL     1      -6.713   6.503  66.225  1.00  0.00    -0.053 A  
HETATM   29  C   UNL     1      -7.062   6.572  67.581  1.00  0.00    -0.084 A  
HETATM   30  I   UNL     1      -5.889   5.345  68.841  1.00  0.00    -0.022 I  
HETATM   31  C   UNL     1      -8.153   7.355  67.999  1.00  0.00    -0.124 A  
HETATM   32  C   UNL     1      -8.603   7.358  69.421  1.00  0.00    -0.134 C  
HETATM   33  C   UNL     1      -8.867   8.091  67.015  1.00  0.00    -0.133 A  
HETATM   34  O   UNL     1      -9.768   7.225  69.752  1.00  0.00    -0.166 OA 
HETATM   35  I   UNL     1     -10.466   9.443  67.553  1.00  0.00    -0.232 I  
HETATM   36  O   UNL     1      -7.624   7.563  70.329  1.00  0.00    -0.086 OA 
ENDBRANCH  22  25
ENDBRANCH  20  21
ENDBRANCH  19  20
ENDBRANCH  18  19
ENDBRANCH  17  18
ENDBRANCH  15  17
ENDBRANCH   7  13
TORSDOF 7
ENDMDL
MODEL      161
REMARK 921   NORMALIZED FREE ENERGY PREDICTED BY IDOCK:   -3.64 KCAL/MOL
REMARK 922        TOTAL FREE ENERGY PREDICTED BY IDOCK:   -6.05 KCAL/MOL
REMARK 923 INTER-LIGAND FREE ENERGY PREDICTED BY IDOCK:   -5.26 KCAL/MOL
REMARK 924 INTRA-LIGAND FREE ENERGY PREDICTED BY IDOCK:   -0.79 KCAL/MOL
REMARK 927      BINDING AFFINITY PREDICTED BY RF-SCORE:    0.00 PKD
ROOT
HETATM    1  O   UNL     1     -10.728  15.562  64.712  1.00  0.00    -0.421 OA 
HETATM    2  C   UNL     1     -10.607  14.978  65.924  1.00  0.00    -0.329 C  
HETATM    3  C   UNL     1     -10.045  13.601  65.894  1.00  0.00    -0.320 A  
HETATM    4  O   UNL     1     -10.889  15.565  66.953  1.00  0.00    -0.314 OA 
HETATM    5  C   UNL     1      -8.986  13.230  66.766  1.00  0.00    -0.174 A  
HETATM    6  I   UNL     1      -8.018  14.685  68.037  1.00  0.00    -0.199 I  
HETATM    7  C   UNL     1      -8.458  11.908  66.779  1.00  0.00    -0.167 A  
HETATM    8  I   UNL     1     -12.263  12.897  63.795  1.00  0.00    -0.461 I  
HETATM    9  C   UNL     1      -9.021  10.953  65.913  1.00  0.00    -0.192 A  
HETATM   10  C   UNL     1     -10.585  12.614  65.050  1.00  0.00    -0.303 A  
HETATM   11  C   UNL     1     -10.063  11.314  65.048  1.00  0.00    -0.331 A  
HETATM   12  I   UNL     1      -8.587   8.887  65.969  1.00  0.00    -0.212 I  
ENDROOT
BRANCH   7  13
HETATM   13  N   UNL     1      -7.439  11.587  67.726  1.00  0.00    -0.096 N  
HETATM   14  O   UNL     1      -5.651  11.655  66.248  1.00  0.00    -0.256 OA 
HETATM   15  C   UNL     1      -6.098  11.503  67.382  1.00  0.00    -0.083 C  
HETATM   16  H   UNL     1      -7.708  11.413  68.694  1.00  0.00     0.000 HD 
BRANCH  15  17
HETATM   17  C   UNL     1      -5.164  11.357  68.576  1.00  0.00    -0.043 C  
BRANCH  17  18
HETATM   18  C   UNL     1      -5.583  10.161  69.426  1.00  0.00    -0.037 C  
BRANCH  18  19
HETATM   19  C   UNL     1      -6.035  10.506  70.849  1.00  0.00    -0.024 C  
BRANCH  19  20
HETATM   20  C   UNL     1      -5.896   9.371  71.869  1.00  0.00    -0.014 C  
BRANCH  20  21
HETATM   21  C   UNL     1      -6.770   8.186  71.473  1.00  0.00    -0.058 C  
HETATM   22  N   UNL     1      -6.218   6.956  71.800  1.00  0.00    -0.038 N  
HETATM   23  O   UNL     1      -7.819   8.329  70.854  1.00  0.00    -0.080 OA 
HETATM   24  H   UNL     1      -5.310   6.925  72.262  1.00  0.00     0.000 HD 
BRANCH  22  25
HETATM   25  C   UNL     1      -6.891   5.733  71.505  1.00  0.00    -0.067 A  
HETATM   26  C   UNL     1      -6.641   5.005  70.331  1.00  0.00    -0.035 A  
HETATM   27  I   UNL     1      -5.509   5.742  68.698  1.00  0.00    -0.013 I  
HETATM   28  C   UNL     1      -7.291   3.790  70.095  1.00  0.00    -0.042 A  
HETATM   29  C   UNL     1      -8.255   3.307  70.991  1.00  0.00    -0.062 A  
HETATM   30  I   UNL     1      -9.192   1.516  70.372  1.00  0.00    -0.134 I  
HETATM   31  C   UNL     1      -8.578   4.032  72.151  1.00  0.00    -0.114 A  
HETATM   32  C   UNL     1      -9.675   3.588  73.061  1.00  0.00    -0.123 C  
HETATM   33  C   UNL     1      -7.883   5.246  72.401  1.00  0.00    -0.102 A  
HETATM   34  O   UNL     1     -10.542   4.337  73.475  1.00  0.00    -0.173 OA 
HETATM   35  I   UNL     1      -8.186   6.369  74.222  1.00  0.00    -0.154 I  
HETATM   36  O   UNL     1      -9.617   2.290  73.432  1.00  0.00    -0.085 OA 
ENDBRANCH  22  25
ENDBRANCH  20  21
ENDBRANCH  19  20
ENDBRANCH  18  19
ENDBRANCH  17  18
ENDBRANCH  15  17
ENDBRANCH   7  13
TORSDOF 7
ENDMDL
MODEL      162
REMARK 921   NORMALIZED FREE ENERGY PREDICTED BY IDOCK:   -3.59 KCAL/MOL
REMARK 922        TOTAL FREE ENERGY PREDICTED BY IDOCK:   -5.98 KCAL/MOL
REMARK 923 INTER-LIGAND FREE ENERGY PREDICTED BY IDOCK:   -5.71 KCAL/MOL
REMARK 924 INTRA-LIGAND FREE ENERGY PREDICTED BY IDOCK:   -0.27 KCAL/MOL
REMARK 927      BINDING AFFINITY PREDICTED BY RF-SCORE:    0.00 PKD
ROOT
HETATM    1  O   UNL     1     -11.563  13.779  64.033  1.00  0.00    -0.361 OA 
HETATM    2  C   UNL     1     -10.703  13.287  64.951  1.00  0.00    -0.351 C  
HETATM    3  C   UNL     1     -10.968  13.727  66.347  1.00  0.00    -0.298 A  
HETATM    4  O   UNL     1      -9.818  12.504  64.652  1.00  0.00    -0.174 OA 
HETATM    5  C   UNL     1     -11.011  12.784  67.409  1.00  0.00    -0.253 A  
HETATM    6  I   UNL     1     -10.883  10.661  67.031  1.00  0.00    -0.116 I  
HETATM    7  C   UNL     1     -11.229  13.188  68.757  1.00  0.00    -0.281 A  
HETATM    8  I   UNL     1     -10.931  16.671  65.273  1.00  0.00     0.393 I  
HETATM    9  C   UNL     1     -11.387  14.559  69.029  1.00  0.00    -0.272 A  
HETATM   10  C   UNL     1     -11.122  15.088  66.663  1.00  0.00    -0.326 A  
HETATM   11  C   UNL     1     -11.348  15.493  67.985  1.00  0.00    -0.332 A  
HETATM   12  I   UNL     1     -11.435  15.393  70.968  1.00  0.00    -0.458 I  
ENDROOT
BRANCH   7  13
HETATM   13  N   UNL     1     -11.196  12.196  69.783  1.00  0.00    -0.488 N  
HETATM   14  O   UNL     1     -13.389  12.454  70.496  1.00  0.00     0.526 OA 
HETATM   15  C   UNL     1     -12.299  11.893  70.567  1.00  0.00    -0.284 C  
HETATM   16  H   UNL     1     -10.326  11.688  69.945  1.00  0.00     0.000 HD 
BRANCH  15  17
HETATM   17  C   UNL     1     -12.109  10.667  71.451  1.00  0.00    -0.342 C  
BRANCH  17  18
HETATM   18  C   UNL     1     -11.126   9.698  70.798  1.00  0.00    -0.403 C  
BRANCH  18  19
HETATM   19  C   UNL     1     -11.363   8.220  71.125  1.00  0.00    -0.298 C  
BRANCH  19  20
HETATM   20  C   UNL     1     -10.102   7.350  71.155  1.00  0.00    -0.189 C  
BRANCH  20  21
HETATM   21  C   UNL     1      -9.817   6.772  69.773  1.00  0.00    -0.166 C  
HETATM   22  N   UNL     1      -8.594   6.123  69.684  1.00  0.00    -0.127 N  
HETATM   23  O   UNL     1     -10.576   6.948  68.826  1.00  0.00    -0.202 OA 
HETATM   24  H   UNL     1      -7.995   6.075  70.508  1.00  0.00     0.000 HD 
BRANCH  22  25
HETATM   25  C   UNL     1      -8.155   5.521  68.468  1.00  0.00    -0.099 A  
HETATM   26  C   UNL     1      -8.215   4.135  68.254  1.00  0.00    -0.088 A  
HETATM   27  I   UNL     1      -8.640   2.719  69.771  1.00  0.00    -0.152 I  
HETATM   28  C   UNL     1      -7.812   3.586  67.033  1.00  0.00    -0.080 A  
HETATM   29  C   UNL     1      -7.276   4.397  66.023  1.00  0.00    -0.076 A  
HETATM   30  I   UNL     1      -6.625   3.337  64.314  1.00  0.00    -0.037 I  
HETATM   31  C   UNL     1      -7.144   5.784  66.216  1.00  0.00    -0.068 A  
HETATM   32  C   UNL     1      -6.480   6.647  65.196  1.00  0.00    -0.042 C  
HETATM   33  C   UNL     1      -7.594   6.337  67.446  1.00  0.00    -0.093 A  
HETATM   34  O   UNL     1      -5.624   7.468  65.474  1.00  0.00    -0.032 OA 
HETATM   35  I   UNL     1      -7.580   8.469  67.799  1.00  0.00    -0.099 I  
HETATM   36  O   UNL     1      -6.929   6.484  63.933  1.00  0.00    -0.043 OA 
ENDBRANCH  22  25
ENDBRANCH  20  21
ENDBRANCH  19  20
ENDBRANCH  18  19
ENDBRANCH  17  18
ENDBRANCH  15  17
ENDBRANCH   7  13
TORSDOF 7
ENDMDL
MODEL      163
REMARK 921   NORMALIZED FREE ENERGY PREDICTED BY IDOCK:   -3.59 KCAL/MOL
REMARK 922        TOTAL FREE ENERGY PREDICTED BY IDOCK:   -5.98 KCAL/MOL
REMARK 923 INTER-LIGAND FREE ENERGY PREDICTED BY IDOCK:   -5.44 KCAL/MOL
REMARK 924 INTRA-LIGAND FREE ENERGY PREDICTED BY IDOCK:   -0.54 KCAL/MOL
REMARK 927      BINDING AFFINITY PREDICTED BY RF-SCORE:    0.00 PKD
ROOT
HETATM    1  O   UNL     1      -9.852  18.078  68.612  1.00  0.00    -0.346 OA 
HETATM    2  C   UNL     1     -10.651  17.048  68.258  1.00  0.00    -0.372 C  
HETATM    3  C   UNL     1      -9.945  15.752  68.075  1.00  0.00    -0.222 A  
HETATM    4  O   UNL     1     -11.858  17.175  68.154  1.00  0.00     0.563 OA 
HETATM    5  C   UNL     1     -10.438  14.565  68.681  1.00  0.00    -0.247 A  
HETATM    6  I   UNL     1     -12.115  14.614  70.043  1.00  0.00    -0.384 I  
HETATM    7  C   UNL     1      -9.799  13.307  68.490  1.00  0.00    -0.168 A  
HETATM    8  I   UNL     1      -8.005  17.249  66.122  1.00  0.00     0.101 I  
HETATM    9  C   UNL     1      -8.661  13.253  67.664  1.00  0.00    -0.195 A  
HETATM   10  C   UNL     1      -8.811  15.652  67.250  1.00  0.00    -0.198 A  
HETATM   11  C   UNL     1      -8.169  14.421  67.066  1.00  0.00    -0.138 A  
HETATM   12  I   UNL     1      -7.736  11.466  67.023  1.00  0.00    -0.134 I  
ENDROOT
BRANCH   7  13
HETATM   13  N   UNL     1     -10.384  12.145  69.076  1.00  0.00    -0.421 N  
HETATM   14  O   UNL     1     -11.922  11.723  67.391  1.00  0.00    -0.617 OA 
HETATM   15  C   UNL     1     -11.400  11.428  68.462  1.00  0.00    -0.271 C  
HETATM   16  H   UNL     1     -10.041  11.829  69.983  1.00  0.00     0.000 HD 
BRANCH  15  17
HETATM   17  C   UNL     1     -11.732  10.112  69.154  1.00  0.00    -0.027 C  
BRANCH  17  18
HETATM   18  C   UNL     1     -10.474   9.255  69.281  1.00  0.00    -0.228 C  
BRANCH  18  19
HETATM   19  C   UNL     1      -9.548   9.634  70.441  1.00  0.00    -0.292 C  
BRANCH  19  20
HETATM   20  C   UNL     1      -8.070   9.291  70.233  1.00  0.00    -0.165 C  
BRANCH  20  21
HETATM   21  C   UNL     1      -7.754   7.913  70.806  1.00  0.00    -0.083 C  
HETATM   22  N   UNL     1      -8.741   7.423  71.649  1.00  0.00    -0.116 N  
HETATM   23  O   UNL     1      -6.687   7.349  70.592  1.00  0.00    -0.046 OA 
HETATM   24  H   UNL     1      -9.573   7.987  71.821  1.00  0.00     0.000 HD 
BRANCH  22  25
HETATM   25  C   UNL     1      -8.620   6.150  72.281  1.00  0.00    -0.119 A  
HETATM   26  C   UNL     1      -7.911   5.974  73.480  1.00  0.00    -0.100 A  
HETATM   27  I   UNL     1      -6.665   7.452  74.348  1.00  0.00    -0.121 I  
HETATM   28  C   UNL     1      -7.847   4.718  74.091  1.00  0.00    -0.100 A  
HETATM   29  C   UNL     1      -8.429   3.596  73.485  1.00  0.00    -0.083 A  
HETATM   30  I   UNL     1      -8.105   1.785  74.526  1.00  0.00    -0.042 I  
HETATM   31  C   UNL     1      -9.100   3.716  72.256  1.00  0.00    -0.149 A  
HETATM   32  C   UNL     1      -9.634   2.517  71.545  1.00  0.00    -0.150 C  
HETATM   33  C   UNL     1      -9.193   5.004  71.663  1.00  0.00    -0.145 A  
HETATM   34  O   UNL     1      -9.444   2.304  70.361  1.00  0.00    -0.129 OA 
HETATM   35  I   UNL     1     -10.325   5.338  69.853  1.00  0.00    -0.147 I  
HETATM   36  O   UNL     1     -10.386   1.693  72.306  1.00  0.00    -0.150 OA 
ENDBRANCH  22  25
ENDBRANCH  20  21
ENDBRANCH  19  20
ENDBRANCH  18  19
ENDBRANCH  17  18
ENDBRANCH  15  17
ENDBRANCH   7  13
TORSDOF 7
ENDMDL
MODEL      164
REMARK 921   NORMALIZED FREE ENERGY PREDICTED BY IDOCK:   -3.55 KCAL/MOL
REMARK 922        TOTAL FREE ENERGY PREDICTED BY IDOCK:   -5.93 KCAL/MOL
REMARK 923 INTER-LIGAND FREE ENERGY PREDICTED BY IDOCK:   -5.42 KCAL/MOL
REMARK 924 INTRA-LIGAND FREE ENERGY PREDICTED BY IDOCK:   -0.51 KCAL/MOL
REMARK 927      BINDING AFFINITY PREDICTED BY RF-SCORE:    0.00 PKD
ROOT
HETATM    1  O   UNL     1      -6.710  19.948  67.844  1.00  0.00    -0.234 OA 
HETATM    2  C   UNL     1      -6.958  19.081  68.849  1.00  0.00    -0.323 C  
HETATM    3  C   UNL     1      -7.944  18.017  68.520  1.00  0.00    -0.310 A  
HETATM    4  O   UNL     1      -6.373  19.145  69.916  1.00  0.00    -0.255 OA 
HETATM    5  C   UNL     1      -7.663  16.653  68.807  1.00  0.00    -0.233 A  
HETATM    6  I   UNL     1      -5.732  16.039  69.556  1.00  0.00    -0.158 I  
HETATM    7  C   UNL     1      -8.607  15.623  68.533  1.00  0.00    -0.180 A  
HETATM    8  I   UNL     1      -9.892  20.301  67.622  1.00  0.00    -0.354 I  
HETATM    9  C   UNL     1      -9.849  15.982  67.979  1.00  0.00    -0.222 A  
HETATM   10  C   UNL     1      -9.200  18.334  67.975  1.00  0.00    -0.290 A  
HETATM   11  C   UNL     1     -10.130  17.325  67.691  1.00  0.00    -0.313 A  
HETATM   12  I   UNL     1     -11.484  14.664  67.759  1.00  0.00    -0.356 I  
ENDROOT
BRANCH   7  13
HETATM   13  N   UNL     1      -8.286  14.283  68.905  1.00  0.00    -0.293 N  
HETATM   14  O   UNL     1      -8.286  13.387  66.765  1.00  0.00    -0.064 OA 
HETATM   15  C   UNL     1      -8.132  13.265  67.977  1.00  0.00    -0.157 C  
HETATM   16  H   UNL     1      -8.164  14.066  69.894  1.00  0.00     0.000 HD 
BRANCH  15  17
HETATM   17  C   UNL     1      -7.587  11.970  68.566  1.00  0.00    -0.126 C  
BRANCH  17  18
HETATM   18  C   UNL     1      -6.396  11.482  67.745  1.00  0.00    -0.063 C  
BRANCH  18  19
HETATM   19  C   UNL     1      -6.716  10.363  66.747  1.00  0.00    -0.086 C  
BRANCH  19  20
HETATM   20  C   UNL     1      -5.502   9.582  66.236  1.00  0.00    -0.047 C  
BRANCH  20  21
HETATM   21  C   UNL     1      -5.939   8.262  65.607  1.00  0.00    -0.045 C  
HETATM   22  N   UNL     1      -7.295   8.004  65.749  1.00  0.00    -0.077 N  
HETATM   23  O   UNL     1      -5.137   7.485  65.103  1.00  0.00    -0.027 OA 
HETATM   24  H   UNL     1      -7.882   8.679  66.238  1.00  0.00     0.000 HD 
BRANCH  22  25
HETATM   25  C   UNL     1      -7.887   6.815  65.227  1.00  0.00    -0.121 A  
HETATM   26  C   UNL     1      -8.105   6.629  63.853  1.00  0.00    -0.012 A  
HETATM   27  I   UNL     1      -7.909   8.161  62.403  1.00  0.00    -0.145 I  
HETATM   28  C   UNL     1      -8.651   5.434  63.375  1.00  0.00    -0.001 A  
HETATM   29  C   UNL     1      -9.055   4.425  64.261  1.00  0.00    -0.151 A  
HETATM   30  I   UNL     1      -9.961   2.761  63.323  1.00  0.00    -0.150 I  
HETATM   31  C   UNL     1      -8.908   4.593  65.649  1.00  0.00    -0.131 A  
HETATM   32  C   UNL     1      -9.428   3.577  66.611  1.00  0.00    -0.156 C  
HETATM   33  C   UNL     1      -8.316   5.795  66.121  1.00  0.00    -0.122 A  
HETATM   34  O   UNL     1     -10.098   3.865  67.586  1.00  0.00     0.015 OA 
HETATM   35  I   UNL     1      -7.902   6.103  68.220  1.00  0.00    -0.105 I  
HETATM   36  O   UNL     1      -9.066   2.304  66.345  1.00  0.00    -0.125 OA 
ENDBRANCH  22  25
ENDBRANCH  20  21
ENDBRANCH  19  20
ENDBRANCH  18  19
ENDBRANCH  17  18
ENDBRANCH  15  17
ENDBRANCH   7  13
TORSDOF 7
ENDMDL
MODEL      165
REMARK 921   NORMALIZED FREE ENERGY PREDICTED BY IDOCK:   -3.52 KCAL/MOL
REMARK 922        TOTAL FREE ENERGY PREDICTED BY IDOCK:   -5.88 KCAL/MOL
REMARK 923 INTER-LIGAND FREE ENERGY PREDICTED BY IDOCK:   -4.63 KCAL/MOL
REMARK 924 INTRA-LIGAND FREE ENERGY PREDICTED BY IDOCK:   -1.25 KCAL/MOL
REMARK 927      BINDING AFFINITY PREDICTED BY RF-SCORE:    0.00 PKD
ROOT
HETATM    1  O   UNL     1      -7.825   5.261  65.866  1.00  0.00    -0.100 OA 
HETATM    2  C   UNL     1      -8.013   6.299  66.710  1.00  0.00    -0.108 C  
HETATM    3  C   UNL     1      -7.555   6.054  68.104  1.00  0.00    -0.094 A  
HETATM    4  O   UNL     1      -8.472   7.362  66.333  1.00  0.00    -0.117 OA 
HETATM    5  C   UNL     1      -6.741   7.004  68.778  1.00  0.00    -0.060 A  
HETATM    6  I   UNL     1      -5.976   8.750  67.759  1.00  0.00    -0.048 I  
HETATM    7  C   UNL     1      -6.320   6.807  70.124  1.00  0.00    -0.039 A  
HETATM    8  I   UNL     1      -9.301   3.453  68.068  1.00  0.00    -0.105 I  
HETATM    9  C   UNL     1      -6.744   5.644  70.794  1.00  0.00    -0.048 A  
HETATM   10  C   UNL     1      -7.963   4.911  68.813  1.00  0.00    -0.080 A  
HETATM   11  C   UNL     1      -7.544   4.702  70.133  1.00  0.00    -0.054 A  
HETATM   12  I   UNL     1      -6.476   5.293  72.859  1.00  0.00    -0.066 I  
ENDROOT
BRANCH   7  13
HETATM   13  N   UNL     1      -5.558   7.831  70.761  1.00  0.00    -0.030 N  
HETATM   14  O   UNL     1      -7.354   9.054  71.576  1.00  0.00    -0.245 OA 
HETATM   15  C   UNL     1      -6.144   8.876  71.459  1.00  0.00    -0.063 C  
HETATM   16  H   UNL     1      -4.541   7.794  70.700  1.00  0.00     0.000 HD 
BRANCH  15  17
HETATM   17  C   UNL     1      -5.152   9.734  72.233  1.00  0.00    -0.065 C  
BRANCH  17  18
HETATM   18  C   UNL     1      -5.484  11.213  72.046  1.00  0.00     0.489 C  
BRANCH  18  19
HETATM   19  C   UNL     1      -5.203  11.767  70.646  1.00  0.00    -0.131 C  
BRANCH  19  20
HETATM   20  C   UNL     1      -5.528  13.252  70.455  1.00  0.00    -0.155 C  
BRANCH  20  21
HETATM   21  C   UNL     1      -6.309  13.468  69.163  1.00  0.00    -0.101 C  
HETATM   22  N   UNL     1      -7.664  13.692  69.365  1.00  0.00    -0.277 N  
HETATM   23  O   UNL     1      -5.783  13.368  68.061  1.00  0.00    -0.099 OA 
HETATM   24  H   UNL     1      -8.031  13.699  70.316  1.00  0.00     0.000 HD 
BRANCH  22  25
HETATM   25  C   UNL     1      -8.555  13.912  68.273  1.00  0.00    -0.177 A  
HETATM   26  C   UNL     1      -8.679  15.164  67.649  1.00  0.00    -0.170 A  
HETATM   27  I   UNL     1      -7.843  16.956  68.410  1.00  0.00    -0.257 I  
HETATM   28  C   UNL     1      -9.533  15.332  66.555  1.00  0.00    -0.308 A  
HETATM   29  C   UNL     1     -10.334  14.275  66.102  1.00  0.00    -0.299 A  
HETATM   30  I   UNL     1     -11.633  14.790  64.515  1.00  0.00    -0.172 I  
HETATM   31  C   UNL     1     -10.284  13.019  66.733  1.00  0.00    -0.246 A  
HETATM   32  C   UNL     1     -11.204  11.915  66.333  1.00  0.00    -0.331 C  
HETATM   33  C   UNL     1      -9.383  12.849  67.819  1.00  0.00    -0.203 A  
HETATM   34  O   UNL     1     -11.841  11.254  67.135  1.00  0.00    -0.524 OA 
HETATM   35  I   UNL     1      -9.110  10.928  68.771  1.00  0.00    -0.063 I  
HETATM   36  O   UNL     1     -11.253  11.667  65.007  1.00  0.00    -0.283 OA 
ENDBRANCH  22  25
ENDBRANCH  20  21
ENDBRANCH  19  20
ENDBRANCH  18  19
ENDBRANCH  17  18
ENDBRANCH  15  17
ENDBRANCH   7  13
TORSDOF 7
ENDMDL
MODEL      166
REMARK 921   NORMALIZED FREE ENERGY PREDICTED BY IDOCK:   -3.52 KCAL/MOL
REMARK 922        TOTAL FREE ENERGY PREDICTED BY IDOCK:   -5.88 KCAL/MOL
REMARK 923 INTER-LIGAND FREE ENERGY PREDICTED BY IDOCK:   -6.03 KCAL/MOL
REMARK 924 INTRA-LIGAND FREE ENERGY PREDICTED BY IDOCK:    0.15 KCAL/MOL
REMARK 927      BINDING AFFINITY PREDICTED BY RF-SCORE:    0.00 PKD
ROOT
HETATM    1  O   UNL     1      -9.029  19.575  69.180  1.00  0.00    -0.296 OA 
HETATM    2  C   UNL     1      -9.233  18.563  68.309  1.00  0.00    -0.321 C  
HETATM    3  C   UNL     1      -8.540  17.294  68.661  1.00  0.00    -0.265 A  
HETATM    4  O   UNL     1      -9.970  18.679  67.346  1.00  0.00    -0.308 OA 
HETATM    5  C   UNL     1      -9.241  16.058  68.652  1.00  0.00    -0.216 A  
HETATM    6  I   UNL     1     -11.374  15.980  68.314  1.00  0.00    -0.086 I  
HETATM    7  C   UNL     1      -8.589  14.828  68.952  1.00  0.00    -0.160 A  
HETATM    8  I   UNL     1      -5.895  18.962  68.861  1.00  0.00    -0.256 I  
HETATM    9  C   UNL     1      -7.214  14.853  69.245  1.00  0.00    -0.172 A  
HETATM   10  C   UNL     1      -7.165  17.273  68.951  1.00  0.00    -0.243 A  
HETATM   11  C   UNL     1      -6.518  16.069  69.259  1.00  0.00    -0.169 A  
HETATM   12  I   UNL     1      -6.003  13.133  69.437  1.00  0.00    -0.116 I  
ENDROOT
BRANCH   7  13
HETATM   13  N   UNL     1      -9.338  13.616  68.862  1.00  0.00    -0.398 N  
HETATM   14  O   UNL     1      -8.914  13.188  66.620  1.00  0.00    -0.210 OA 
HETATM   15  C   UNL     1      -9.426  12.876  67.692  1.00  0.00    -0.197 C  
HETATM   16  H   UNL     1      -9.829  13.281  69.691  1.00  0.00     0.000 HD 
BRANCH  15  17
HETATM   17  C   UNL     1     -10.096  11.520  67.870  1.00  0.00    -0.202 C  
BRANCH  17  18
HETATM   18  C   UNL     1      -9.348  10.458  67.067  1.00  0.00    -0.176 C  
BRANCH  18  19
HETATM   19  C   UNL     1      -9.674  10.431  65.570  1.00  0.00    -0.307 C  
BRANCH  19  20
HETATM   20  C   UNL     1      -9.116   9.228  64.804  1.00  0.00    -0.201 C  
BRANCH  20  21
HETATM   21  C   UNL     1      -8.552   8.192  65.771  1.00  0.00    -0.154 C  
HETATM   22  N   UNL     1      -9.304   7.027  65.837  1.00  0.00    -0.387 N  
HETATM   23  O   UNL     1      -7.573   8.422  66.472  1.00  0.00    -0.086 OA 
HETATM   24  H   UNL     1     -10.141   6.943  65.262  1.00  0.00     0.000 HD 
BRANCH  22  25
HETATM   25  C   UNL     1      -8.932   5.946  66.690  1.00  0.00    -0.125 A  
HETATM   26  C   UNL     1      -9.297   5.902  68.045  1.00  0.00    -0.111 A  
HETATM   27  I   UNL     1     -10.146   7.533  69.099  1.00  0.00    -0.208 I  
HETATM   28  C   UNL     1      -8.949   4.806  68.840  1.00  0.00    -0.142 A  
HETATM   29  C   UNL     1      -8.169   3.763  68.321  1.00  0.00    -0.082 A  
HETATM   30  I   UNL     1      -7.665   2.273  69.735  1.00  0.00    -0.055 I  
HETATM   31  C   UNL     1      -7.733   3.793  66.985  1.00  0.00    -0.080 A  
HETATM   32  C   UNL     1      -6.817   2.746  66.446  1.00  0.00    -0.044 C  
HETATM   33  C   UNL     1      -8.127   4.892  66.175  1.00  0.00    -0.107 A  
HETATM   34  O   UNL     1      -5.815   3.004  65.804  1.00  0.00    -0.018 OA 
HETATM   35  I   UNL     1      -7.643   4.977  64.070  1.00  0.00    -0.082 I  
HETATM   36  O   UNL     1      -7.201   1.474  66.687  1.00  0.00    -0.048 OA 
ENDBRANCH  22  25
ENDBRANCH  20  21
ENDBRANCH  19  20
ENDBRANCH  18  19
ENDBRANCH  17  18
ENDBRANCH  15  17
ENDBRANCH   7  13
TORSDOF 7
ENDMDL
MODEL      167
REMARK 921   NORMALIZED FREE ENERGY PREDICTED BY IDOCK:   -3.43 KCAL/MOL
REMARK 922        TOTAL FREE ENERGY PREDICTED BY IDOCK:   -5.76 KCAL/MOL
REMARK 923 INTER-LIGAND FREE ENERGY PREDICTED BY IDOCK:   -5.21 KCAL/MOL
REMARK 924 INTRA-LIGAND FREE ENERGY PREDICTED BY IDOCK:   -0.55 KCAL/MOL
REMARK 927      BINDING AFFINITY PREDICTED BY RF-SCORE:    0.00 PKD
ROOT
HETATM    1  O   UNL     1      -9.547  20.443  68.965  1.00  0.00     0.170 OA 
HETATM    2  C   UNL     1      -9.680  19.325  68.219  1.00  0.00    -0.385 C  
HETATM    3  C   UNL     1      -8.668  18.270  68.498  1.00  0.00    -0.325 A  
HETATM    4  O   UNL     1     -10.593  19.185  67.425  1.00  0.00    -0.433 OA 
HETATM    5  C   UNL     1      -9.065  16.922  68.710  1.00  0.00    -0.254 A  
HETATM    6  I   UNL     1     -11.151  16.371  68.826  1.00  0.00    -0.178 I  
HETATM    7  C   UNL     1      -8.111  15.891  68.943  1.00  0.00    -0.214 A  
HETATM    8  I   UNL     1      -6.472  20.459  68.043  1.00  0.00    -0.337 I  
HETATM    9  C   UNL     1      -6.746  16.229  68.943  1.00  0.00    -0.156 A  
HETATM   10  C   UNL     1      -7.294  18.564  68.497  1.00  0.00    -0.295 A  
HETATM   11  C   UNL     1      -6.349  17.558  68.738  1.00  0.00    -0.197 A  
HETATM   12  I   UNL     1      -5.168  14.826  68.985  1.00  0.00    -0.101 I  
ENDROOT
BRANCH   7  13
HETATM   13  N   UNL     1      -8.574  14.549  69.084  1.00  0.00    -0.359 N  
HETATM   14  O   UNL     1      -8.752  14.072  66.820  1.00  0.00    -0.203 OA 
HETATM   15  C   UNL     1      -8.844  13.732  67.996  1.00  0.00    -0.182 C  
HETATM   16  H   UNL     1      -8.713  14.175  70.023  1.00  0.00     0.000 HD 
BRANCH  15  17
HETATM   17  C   UNL     1      -9.123  12.281  68.368  1.00  0.00    -0.146 C  
BRANCH  17  18
HETATM   18  C   UNL     1      -8.998  11.391  67.134  1.00  0.00    -0.162 C  
BRANCH  18  19
HETATM   19  C   UNL     1      -7.806  10.429  67.149  1.00  0.00    -0.110 C  
BRANCH  19  20
HETATM   20  C   UNL     1      -7.238  10.076  65.771  1.00  0.00    -0.117 C  
BRANCH  20  21
HETATM   21  C   UNL     1      -7.619   8.651  65.383  1.00  0.00    -0.087 C  
HETATM   22  N   UNL     1      -6.767   7.687  65.904  1.00  0.00    -0.046 N  
HETATM   23  O   UNL     1      -8.546   8.412  64.617  1.00  0.00    -0.131 OA 
HETATM   24  H   UNL     1      -5.981   7.979  66.485  1.00  0.00     0.000 HD 
BRANCH  22  25
HETATM   25  C   UNL     1      -6.964   6.298  65.646  1.00  0.00    -0.057 A  
HETATM   26  C   UNL     1      -6.536   5.690  64.455  1.00  0.00    -0.037 A  
HETATM   27  I   UNL     1      -5.848   6.757  62.759  1.00  0.00    -0.041 I  
HETATM   28  C   UNL     1      -6.711   4.317  64.255  1.00  0.00    -0.044 A  
HETATM   29  C   UNL     1      -7.379   3.534  65.206  1.00  0.00    -0.072 A  
HETATM   30  I   UNL     1      -7.633   1.513  64.639  1.00  0.00    -0.065 I  
HETATM   31  C   UNL     1      -7.875   4.112  66.387  1.00  0.00    -0.094 A  
HETATM   32  C   UNL     1      -8.679   3.317  67.361  1.00  0.00    -0.119 C  
HETATM   33  C   UNL     1      -7.656   5.500  66.599  1.00  0.00    -0.088 A  
HETATM   34  O   UNL     1      -9.733   3.706  67.830  1.00  0.00    -0.167 OA 
HETATM   35  I   UNL     1      -8.241   6.470  68.440  1.00  0.00    -0.112 I  
HETATM   36  O   UNL     1      -8.131   2.136  67.722  1.00  0.00    -0.062 OA 
ENDBRANCH  22  25
ENDBRANCH  20  21
ENDBRANCH  19  20
ENDBRANCH  18  19
ENDBRANCH  17  18
ENDBRANCH  15  17
ENDBRANCH   7  13
TORSDOF 7
ENDMDL
MODEL      168
REMARK 921   NORMALIZED FREE ENERGY PREDICTED BY IDOCK:   -3.38 KCAL/MOL
REMARK 922        TOTAL FREE ENERGY PREDICTED BY IDOCK:   -5.68 KCAL/MOL
REMARK 923 INTER-LIGAND FREE ENERGY PREDICTED BY IDOCK:   -4.90 KCAL/MOL
REMARK 924 INTRA-LIGAND FREE ENERGY PREDICTED BY IDOCK:   -0.78 KCAL/MOL
REMARK 927      BINDING AFFINITY PREDICTED BY RF-SCORE:    0.00 PKD
ROOT
HETATM    1  O   UNL     1     -10.161  13.375  68.680  1.00  0.00    -0.225 OA 
HETATM    2  C   UNL     1     -10.113  12.050  68.420  1.00  0.00    -0.210 C  
HETATM    3  C   UNL     1      -9.731  11.707  67.023  1.00  0.00    -0.201 A  
HETATM    4  O   UNL     1     -10.316  11.215  69.283  1.00  0.00    -0.203 OA 
HETATM    5  C   UNL     1      -8.727  10.736  66.763  1.00  0.00    -0.143 A  
HETATM    6  I   UNL     1      -7.579   9.852  68.367  1.00  0.00    -0.087 I  
HETATM    7  C   UNL     1      -8.371  10.366  65.435  1.00  0.00    -0.165 A  
HETATM    8  I   UNL     1     -12.024  13.622  66.078  1.00  0.00    -0.512 I  
HETATM    9  C   UNL     1      -9.052  10.975  64.365  1.00  0.00    -0.103 A  
HETATM   10  C   UNL     1     -10.394  12.284  65.926  1.00  0.00    -0.252 A  
HETATM   11  C   UNL     1     -10.042  11.936  64.616  1.00  0.00    -0.301 A  
HETATM   12  I   UNL     1      -8.884  10.375  62.348  1.00  0.00    -0.373 I  
ENDROOT
BRANCH   7  13
HETATM   13  N   UNL     1      -7.399   9.338  65.247  1.00  0.00    -0.093 N  
HETATM   14  O   UNL     1      -8.893   7.575  65.032  1.00  0.00     0.103 OA 
HETATM   15  C   UNL     1      -7.744   8.011  65.041  1.00  0.00    -0.112 C  
HETATM   16  H   UNL     1      -6.411   9.589  65.266  1.00  0.00     0.000 HD 
BRANCH  15  17
HETATM   17  C   UNL     1      -6.570   7.121  64.656  1.00  0.00    -0.040 C  
BRANCH  17  18
HETATM   18  C   UNL     1      -6.482   5.930  65.608  1.00  0.00    -0.043 C  
BRANCH  18  19
HETATM   19  C   UNL     1      -7.470   4.796  65.318  1.00  0.00    -0.077 C  
BRANCH  19  20
HETATM   20  C   UNL     1      -7.199   3.489  66.069  1.00  0.00    -0.068 C  
BRANCH  20  21
HETATM   21  C   UNL     1      -8.055   3.407  67.328  1.00  0.00    -0.082 C  
HETATM   22  N   UNL     1      -7.508   4.075  68.415  1.00  0.00    -0.059 N  
HETATM   23  O   UNL     1      -9.083   2.741  67.373  1.00  0.00    -0.150 OA 
HETATM   24  H   UNL     1      -6.615   4.554  68.306  1.00  0.00     0.000 HD 
BRANCH  22  25
HETATM   25  C   UNL     1      -8.166   4.105  69.680  1.00  0.00    -0.058 A  
HETATM   26  C   UNL     1      -9.361   4.813  69.885  1.00  0.00    -0.140 A  
HETATM   27  I   UNL     1     -10.185   6.179  68.491  1.00  0.00    -0.330 I  
HETATM   28  C   UNL     1      -9.999   4.787  71.130  1.00  0.00    -0.273 A  
HETATM   29  C   UNL     1      -9.423   4.113  72.216  1.00  0.00    -0.133 A  
HETATM   30  I   UNL     1     -10.500   4.309  74.025  1.00  0.00    -0.325 I  
HETATM   31  C   UNL     1      -8.198   3.439  72.070  1.00  0.00    -0.067 A  
HETATM   32  C   UNL     1      -7.519   2.807  73.239  1.00  0.00    -0.046 C  
HETATM   33  C   UNL     1      -7.579   3.438  70.792  1.00  0.00    -0.040 A  
HETATM   34  O   UNL     1      -6.338   2.966  73.491  1.00  0.00    -0.018 OA 
HETATM   35  I   UNL     1      -5.773   2.315  70.409  1.00  0.00    -0.019 I  
HETATM   36  O   UNL     1      -8.305   2.002  73.987  1.00  0.00    -0.056 OA 
ENDBRANCH  22  25
ENDBRANCH  20  21
ENDBRANCH  19  20
ENDBRANCH  18  19
ENDBRANCH  17  18
ENDBRANCH  15  17
ENDBRANCH   7  13
TORSDOF 7
ENDMDL
MODEL      169
REMARK 921   NORMALIZED FREE ENERGY PREDICTED BY IDOCK:   -3.36 KCAL/MOL
REMARK 922        TOTAL FREE ENERGY PREDICTED BY IDOCK:   -5.65 KCAL/MOL
REMARK 923 INTER-LIGAND FREE ENERGY PREDICTED BY IDOCK:   -4.36 KCAL/MOL
REMARK 924 INTRA-LIGAND FREE ENERGY PREDICTED BY IDOCK:   -1.29 KCAL/MOL
REMARK 927      BINDING AFFINITY PREDICTED BY RF-SCORE:    0.00 PKD
ROOT
HETATM    1  O   UNL     1      -8.261   4.947  73.046  1.00  0.00    -0.100 OA 
HETATM    2  C   UNL     1      -8.305   4.430  71.799  1.00  0.00    -0.106 C  
HETATM    3  C   UNL     1      -8.707   5.397  70.742  1.00  0.00    -0.139 A  
HETATM    4  O   UNL     1      -7.987   3.277  71.567  1.00  0.00    -0.055 OA 
HETATM    5  C   UNL     1      -7.954   5.515  69.542  1.00  0.00    -0.094 A  
HETATM    6  I   UNL     1      -6.097   4.443  69.273  1.00  0.00    -0.029 I  
HETATM    7  C   UNL     1      -8.340   6.408  68.503  1.00  0.00    -0.113 A  
HETATM    8  I   UNL     1     -11.227   6.040  72.489  1.00  0.00    -0.287 I  
HETATM    9  C   UNL     1      -9.508   7.173  68.676  1.00  0.00    -0.140 A  
HETATM   10  C   UNL     1      -9.872   6.173  70.871  1.00  0.00    -0.182 A  
HETATM   11  C   UNL     1     -10.253   7.063  69.859  1.00  0.00    -0.213 A  
HETATM   12  I   UNL     1     -10.409   8.336  67.162  1.00  0.00    -0.259 I  
ENDROOT
BRANCH   7  13
HETATM   13  N   UNL     1      -7.575   6.429  67.298  1.00  0.00    -0.094 N  
HETATM   14  O   UNL     1      -8.816   4.842  66.147  1.00  0.00    -0.117 OA 
HETATM   15  C   UNL     1      -7.890   5.647  66.198  1.00  0.00    -0.100 C  
HETATM   16  H   UNL     1      -6.763   7.044  67.245  1.00  0.00     0.000 HD 
BRANCH  15  17
HETATM   17  C   UNL     1      -7.075   5.976  64.953  1.00  0.00    -0.060 C  
BRANCH  17  18
HETATM   18  C   UNL     1      -5.682   6.456  65.352  1.00  0.00    -0.022 C  
BRANCH  18  19
HETATM   19  C   UNL     1      -5.334   7.878  64.899  1.00  0.00    -0.029 C  
BRANCH  19  20
HETATM   20  C   UNL     1      -5.160   8.897  66.030  1.00  0.00    -0.033 C  
BRANCH  20  21
HETATM   21  C   UNL     1      -5.950  10.167  65.733  1.00  0.00    -0.088 C  
HETATM   22  N   UNL     1      -7.125  10.274  66.464  1.00  0.00    -0.102 N  
HETATM   23  O   UNL     1      -5.601  10.962  64.868  1.00  0.00    -0.099 OA 
HETATM   24  H   UNL     1      -7.371   9.534  67.121  1.00  0.00     0.000 HD 
BRANCH  22  25
HETATM   25  C   UNL     1      -7.996  11.394  66.318  1.00  0.00    -0.037 A  
HETATM   26  C   UNL     1      -8.974  11.455  65.313  1.00  0.00    -0.008 A  
HETATM   27  I   UNL     1      -9.098  10.095  63.694  1.00  0.00    -0.292 I  
HETATM   28  C   UNL     1      -9.837  12.552  65.226  1.00  0.00    -0.157 A  
HETATM   29  C   UNL     1      -9.698  13.644  66.095  1.00  0.00    -0.255 A  
HETATM   30  I   UNL     1     -11.031  15.237  65.702  1.00  0.00    -0.276 I  
HETATM   31  C   UNL     1      -8.695  13.649  67.080  1.00  0.00    -0.204 A  
HETATM   32  C   UNL     1      -8.466  14.845  67.943  1.00  0.00    -0.153 C  
HETATM   33  C   UNL     1      -7.850  12.512  67.185  1.00  0.00    -0.123 A  
HETATM   34  O   UNL     1      -7.363  15.322  68.140  1.00  0.00    -0.104 OA 
HETATM   35  I   UNL     1      -6.372  12.342  68.753  1.00  0.00    -0.098 I  
HETATM   36  O   UNL     1      -9.574  15.343  68.532  1.00  0.00    -0.192 OA 
ENDBRANCH  22  25
ENDBRANCH  20  21
ENDBRANCH  19  20
ENDBRANCH  18  19
ENDBRANCH  17  18
ENDBRANCH  15  17
ENDBRANCH   7  13
TORSDOF 7
ENDMDL
MODEL      170
REMARK 921   NORMALIZED FREE ENERGY PREDICTED BY IDOCK:   -3.33 KCAL/MOL
REMARK 922        TOTAL FREE ENERGY PREDICTED BY IDOCK:   -5.62 KCAL/MOL
REMARK 923 INTER-LIGAND FREE ENERGY PREDICTED BY IDOCK:   -5.07 KCAL/MOL
REMARK 924 INTRA-LIGAND FREE ENERGY PREDICTED BY IDOCK:   -0.55 KCAL/MOL
REMARK 927      BINDING AFFINITY PREDICTED BY RF-SCORE:    0.00 PKD
ROOT
HETATM    1  O   UNL     1      -6.316   3.792  72.634  1.00  0.00    -0.015 OA 
HETATM    2  C   UNL     1      -7.135   3.838  71.560  1.00  0.00    -0.032 C  
HETATM    3  C   UNL     1      -8.027   5.028  71.513  1.00  0.00    -0.112 A  
HETATM    4  O   UNL     1      -7.097   2.994  70.683  1.00  0.00    -0.033 OA 
HETATM    5  C   UNL     1      -8.140   5.803  70.327  1.00  0.00    -0.105 A  
HETATM    6  I   UNL     1      -6.893   5.410  68.606  1.00  0.00    -0.063 I  
HETATM    7  C   UNL     1      -9.014   6.924  70.248  1.00  0.00    -0.152 A  
HETATM    8  I   UNL     1      -8.942   4.280  74.415  1.00  0.00    -0.113 I  
HETATM    9  C   UNL     1      -9.790   7.250  71.375  1.00  0.00    -0.186 A  
HETATM   10  C   UNL     1      -8.826   5.382  72.614  1.00  0.00    -0.123 A  
HETATM   11  C   UNL     1      -9.680   6.491  72.549  1.00  0.00    -0.165 A  
HETATM   12  I   UNL     1     -11.341   8.682  71.384  1.00  0.00    -0.433 I  
ENDROOT
BRANCH   7  13
HETATM   13  N   UNL     1      -9.127   7.619  69.006  1.00  0.00    -0.144 N  
HETATM   14  O   UNL     1     -10.912   6.400  68.162  1.00  0.00    -0.290 OA 
HETATM   15  C   UNL     1     -10.091   7.307  68.059  1.00  0.00    -0.172 C  
HETATM   16  H   UNL     1      -8.472   8.375  68.807  1.00  0.00     0.000 HD 
BRANCH  15  17
HETATM   17  C   UNL     1     -10.168   8.301  66.908  1.00  0.00    -0.388 C  
BRANCH  17  18
HETATM   18  C   UNL     1      -8.990   8.094  65.958  1.00  0.00    -0.213 C  
BRANCH  18  19
HETATM   19  C   UNL     1      -8.375   9.383  65.402  1.00  0.00    -0.143 C  
BRANCH  19  20
HETATM   20  C   UNL     1      -6.969   9.707  65.918  1.00  0.00    -0.097 C  
BRANCH  20  21
HETATM   21  C   UNL     1      -6.837  11.198  66.210  1.00  0.00    -0.055 C  
HETATM   22  N   UNL     1      -7.894  11.715  66.946  1.00  0.00    -0.170 N  
HETATM   23  O   UNL     1      -5.916  11.871  65.759  1.00  0.00     0.418 OA 
HETATM   24  H   UNL     1      -8.652  11.095  67.231  1.00  0.00     0.000 HD 
BRANCH  22  25
HETATM   25  C   UNL     1      -7.945  13.092  67.314  1.00  0.00    -0.133 A  
HETATM   26  C   UNL     1      -6.928  13.706  68.063  1.00  0.00    -0.135 A  
HETATM   27  I   UNL     1      -5.364  12.650  69.026  1.00  0.00    -0.074 I  
HETATM   28  C   UNL     1      -6.993  15.068  68.369  1.00  0.00    -0.109 A  
HETATM   29  C   UNL     1      -8.106  15.834  67.997  1.00  0.00    -0.140 A  
HETATM   30  I   UNL     1      -8.044  17.838  68.670  1.00  0.00    -0.133 I  
HETATM   31  C   UNL     1      -9.174  15.248  67.295  1.00  0.00    -0.209 A  
HETATM   32  C   UNL     1     -10.412  16.021  66.983  1.00  0.00    -0.307 C  
HETATM   33  C   UNL     1      -9.079  13.872  66.954  1.00  0.00    -0.245 A  
HETATM   34  O   UNL     1     -11.534  15.594  67.190  1.00  0.00    -0.168 OA 
HETATM   35  I   UNL     1     -10.587  12.898  65.750  1.00  0.00    -0.318 I  
HETATM   36  O   UNL     1     -10.202  17.225  66.410  1.00  0.00    -0.314 OA 
ENDBRANCH  22  25
ENDBRANCH  20  21
ENDBRANCH  19  20
ENDBRANCH  18  19
ENDBRANCH  17  18
ENDBRANCH  15  17
ENDBRANCH   7  13
TORSDOF 7
ENDMDL
MODEL      171
REMARK 921   NORMALIZED FREE ENERGY PREDICTED BY IDOCK:   -3.32 KCAL/MOL
REMARK 922        TOTAL FREE ENERGY PREDICTED BY IDOCK:   -5.60 KCAL/MOL
REMARK 923 INTER-LIGAND FREE ENERGY PREDICTED BY IDOCK:   -4.83 KCAL/MOL
REMARK 924 INTRA-LIGAND FREE ENERGY PREDICTED BY IDOCK:   -0.77 KCAL/MOL
REMARK 927      BINDING AFFINITY PREDICTED BY RF-SCORE:    0.00 PKD
ROOT
HETATM    1  O   UNL     1     -10.525   3.551  73.103  1.00  0.00    -0.155 OA 
HETATM    2  C   UNL     1     -10.640   4.888  72.949  1.00  0.00    -0.219 C  
HETATM    3  C   UNL     1      -9.647   5.492  72.021  1.00  0.00    -0.177 A  
HETATM    4  O   UNL     1     -11.525   5.526  73.491  1.00  0.00    -0.092 OA 
HETATM    5  C   UNL     1     -10.060   6.388  70.998  1.00  0.00    -0.182 A  
HETATM    6  I   UNL     1     -12.153   6.768  70.617  1.00  0.00     0.118 I  
HETATM    7  C   UNL     1      -9.122   7.005  70.122  1.00  0.00    -0.149 A  
HETATM    8  I   UNL     1      -7.421   4.083  73.718  1.00  0.00    -0.078 I  
HETATM    9  C   UNL     1      -7.755   6.723  70.298  1.00  0.00    -0.101 A  
HETATM   10  C   UNL     1      -8.270   5.245  72.169  1.00  0.00    -0.114 A  
HETATM   11  C   UNL     1      -7.342   5.839  71.304  1.00  0.00    -0.079 A  
HETATM   12  I   UNL     1      -6.190   7.736  69.307  1.00  0.00    -0.036 I  
ENDROOT
BRANCH   7  13
HETATM   13  N   UNL     1      -9.600   7.943  69.158  1.00  0.00    -0.152 N  
HETATM   14  O   UNL     1     -10.062   6.410  67.478  1.00  0.00    -0.133 OA 
HETATM   15  C   UNL     1     -10.054   7.562  67.905  1.00  0.00    -0.182 C  
HETATM   16  H   UNL     1      -9.608   8.933  69.402  1.00  0.00     0.000 HD 
BRANCH  15  17
HETATM   17  C   UNL     1     -10.710   8.689  67.118  1.00  0.00    -0.199 C  
BRANCH  17  18
HETATM   18  C   UNL     1     -10.035   8.839  65.756  1.00  0.00     0.117 C  
BRANCH  18  19
HETATM   19  C   UNL     1      -9.048  10.006  65.650  1.00  0.00    -0.222 C  
BRANCH  19  20
HETATM   20  C   UNL     1      -7.891   9.973  66.654  1.00  0.00    -0.111 C  
BRANCH  20  21
HETATM   21  C   UNL     1      -7.253  11.353  66.783  1.00  0.00    -0.131 C  
HETATM   22  N   UNL     1      -8.046  12.270  67.457  1.00  0.00    -0.159 N  
HETATM   23  O   UNL     1      -6.177  11.622  66.260  1.00  0.00    -0.047 OA 
HETATM   24  H   UNL     1      -8.958  11.977  67.807  1.00  0.00     0.000 HD 
BRANCH  22  25
HETATM   25  C   UNL     1      -7.616  13.613  67.671  1.00  0.00    -0.179 A  
HETATM   26  C   UNL     1      -6.582  13.934  68.565  1.00  0.00    -0.098 A  
HETATM   27  I   UNL     1      -5.741  12.566  69.946  1.00  0.00    -0.140 I  
HETATM   28  C   UNL     1      -6.161  15.259  68.719  1.00  0.00    -0.087 A  
HETATM   29  C   UNL     1      -6.806  16.300  68.038  1.00  0.00    -0.131 A  
HETATM   30  I   UNL     1      -6.080  18.228  68.515  1.00  0.00    -0.216 I  
HETATM   31  C   UNL     1      -7.884  16.030  67.176  1.00  0.00    -0.244 A  
HETATM   32  C   UNL     1      -8.650  17.133  66.526  1.00  0.00    -0.271 C  
HETATM   33  C   UNL     1      -8.278  14.677  66.997  1.00  0.00    -0.157 A  
HETATM   34  O   UNL     1      -9.867  17.186  66.519  1.00  0.00    -0.270 OA 
HETATM   35  I   UNL     1      -9.821  14.125  65.587  1.00  0.00    -0.041 I  
HETATM   36  O   UNL     1      -7.893  18.061  65.901  1.00  0.00    -0.511 OA 
ENDBRANCH  22  25
ENDBRANCH  20  21
ENDBRANCH  19  20
ENDBRANCH  18  19
ENDBRANCH  17  18
ENDBRANCH  15  17
ENDBRANCH   7  13
TORSDOF 7
ENDMDL
MODEL      172
REMARK 921   NORMALIZED FREE ENERGY PREDICTED BY IDOCK:   -3.26 KCAL/MOL
REMARK 922        TOTAL FREE ENERGY PREDICTED BY IDOCK:   -5.51 KCAL/MOL
REMARK 923 INTER-LIGAND FREE ENERGY PREDICTED BY IDOCK:   -4.69 KCAL/MOL
REMARK 924 INTRA-LIGAND FREE ENERGY PREDICTED BY IDOCK:   -0.82 KCAL/MOL
REMARK 927      BINDING AFFINITY PREDICTED BY RF-SCORE:    0.00 PKD
ROOT
HETATM    1  O   UNL     1      -5.600   2.326  72.555  1.00  0.00    -0.003 OA 
HETATM    2  C   UNL     1      -6.493   2.428  71.546  1.00  0.00    -0.019 C  
HETATM    3  C   UNL     1      -7.520   3.487  71.734  1.00  0.00    -0.052 A  
HETATM    4  O   UNL     1      -6.417   1.738  70.546  1.00  0.00    -0.023 OA 
HETATM    5  C   UNL     1      -7.809   4.411  70.693  1.00  0.00    -0.056 A  
HETATM    6  I   UNL     1      -6.650   4.445  68.870  1.00  0.00    -0.048 I  
HETATM    7  C   UNL     1      -8.813   5.410  70.838  1.00  0.00    -0.138 A  
HETATM    8  I   UNL     1      -8.131   2.200  74.525  1.00  0.00    -0.051 I  
HETATM    9  C   UNL     1      -9.539   5.460  72.042  1.00  0.00    -0.155 A  
HETATM   10  C   UNL     1      -8.275   3.566  72.917  1.00  0.00    -0.081 A  
HETATM   11  C   UNL     1      -9.257   4.553  73.074  1.00  0.00    -0.132 A  
HETATM   12  I   UNL     1     -11.245   6.663  72.358  1.00  0.00    -0.290 I  
ENDROOT
BRANCH   7  13
HETATM   13  N   UNL     1      -9.096   6.263  69.730  1.00  0.00    -0.142 N  
HETATM   14  O   UNL     1     -10.848   5.018  68.855  1.00  0.00     0.118 OA 
HETATM   15  C   UNL     1     -10.115   6.003  68.826  1.00  0.00    -0.168 C  
HETATM   16  H   UNL     1      -8.525   7.098  69.597  1.00  0.00     0.000 HD 
BRANCH  15  17
HETATM   17  C   UNL     1     -10.378   7.142  67.849  1.00  0.00    -0.248 C  
BRANCH  17  18
HETATM   18  C   UNL     1      -9.283   7.182  66.786  1.00  0.00    -0.188 C  
BRANCH  18  19
HETATM   19  C   UNL     1      -9.450   8.278  65.728  1.00  0.00    -0.041 C  
BRANCH  19  20
HETATM   20  C   UNL     1      -8.142   8.851  65.172  1.00  0.00    -0.133 C  
BRANCH  20  21
HETATM   21  C   UNL     1      -8.185  10.375  65.167  1.00  0.00    -0.158 C  
HETATM   22  N   UNL     1      -9.025  10.910  66.133  1.00  0.00    -0.177 N  
HETATM   23  O   UNL     1      -7.588  11.039  64.326  1.00  0.00     0.382 OA 
HETATM   24  H   UNL     1      -9.532  10.281  66.755  1.00  0.00     0.000 HD 
BRANCH  22  25
HETATM   25  C   UNL     1      -9.194  12.319  66.277  1.00  0.00    -0.171 A  
HETATM   26  C   UNL     1     -10.186  13.029  65.582  1.00  0.00    -0.287 A  
HETATM   27  I   UNL     1     -11.341  12.214  64.004  1.00  0.00    -0.582 I  
HETATM   28  C   UNL     1     -10.348  14.404  65.780  1.00  0.00    -0.340 A  
HETATM   29  C   UNL     1      -9.480  15.114  66.622  1.00  0.00    -0.263 A  
HETATM   30  I   UNL     1      -9.838  17.197  66.675  1.00  0.00    -0.335 I  
HETATM   31  C   UNL     1      -8.438  14.453  67.294  1.00  0.00    -0.229 A  
HETATM   32  C   UNL     1      -7.442  15.208  68.110  1.00  0.00    -0.114 C  
HETATM   33  C   UNL     1      -8.307  13.049  67.117  1.00  0.00    -0.150 A  
HETATM   34  O   UNL     1      -6.239  15.040  68.017  1.00  0.00    -0.125 OA 
HETATM   35  I   UNL     1      -6.838  11.902  68.211  1.00  0.00    -0.091 I  
HETATM   36  O   UNL     1      -7.974  16.073  69.000  1.00  0.00    -0.199 OA 
ENDBRANCH  22  25
ENDBRANCH  20  21
ENDBRANCH  19  20
ENDBRANCH  18  19
ENDBRANCH  17  18
ENDBRANCH  15  17
ENDBRANCH   7  13
TORSDOF 7
ENDMDL
MODEL      173
REMARK 921   NORMALIZED FREE ENERGY PREDICTED BY IDOCK:   -3.25 KCAL/MOL
REMARK 922        TOTAL FREE ENERGY PREDICTED BY IDOCK:   -5.50 KCAL/MOL
REMARK 923 INTER-LIGAND FREE ENERGY PREDICTED BY IDOCK:   -4.94 KCAL/MOL
REMARK 924 INTRA-LIGAND FREE ENERGY PREDICTED BY IDOCK:   -0.56 KCAL/MOL
REMARK 927      BINDING AFFINITY PREDICTED BY RF-SCORE:    0.00 PKD
ROOT
HETATM    1  O   UNL     1      -7.039   3.925  67.442  1.00  0.00    -0.061 OA 
HETATM    2  C   UNL     1      -8.271   4.449  67.628  1.00  0.00    -0.099 C  
HETATM    3  C   UNL     1      -8.396   5.329  68.821  1.00  0.00    -0.092 A  
HETATM    4  O   UNL     1      -9.181   4.249  66.844  1.00  0.00    -0.127 OA 
HETATM    5  C   UNL     1      -9.006   6.609  68.717  1.00  0.00    -0.125 A  
HETATM    6  I   UNL     1      -9.609   7.413  66.804  1.00  0.00    -0.219 I  
HETATM    7  C   UNL     1      -9.168   7.453  69.853  1.00  0.00    -0.144 A  
HETATM    8  I   UNL     1      -7.190   2.978  70.505  1.00  0.00    -0.032 I  
HETATM    9  C   UNL     1      -8.722   6.987  71.103  1.00  0.00    -0.137 A  
HETATM   10  C   UNL     1      -7.972   4.898  70.090  1.00  0.00    -0.073 A  
HETATM   11  C   UNL     1      -8.116   5.727  71.210  1.00  0.00    -0.114 A  
HETATM   12  I   UNL     1      -9.115   7.945  72.943  1.00  0.00    -0.342 I  
ENDROOT
BRANCH   7  13
HETATM   13  N   UNL     1      -9.848   8.697  69.689  1.00  0.00    -0.183 N  
HETATM   14  O   UNL     1     -11.845   8.061  70.685  1.00  0.00    -0.223 OA 
HETATM   15  C   UNL     1     -11.142   8.908  70.141  1.00  0.00    -0.201 C  
HETATM   16  H   UNL     1      -9.362   9.462  69.221  1.00  0.00     0.000 HD 
BRANCH  15  17
HETATM   17  C   UNL     1     -11.597  10.359  70.054  1.00  0.00    -0.378 C  
BRANCH  17  18
HETATM   18  C   UNL     1     -10.398  11.268  69.792  1.00  0.00     0.324 C  
BRANCH  18  19
HETATM   19  C   UNL     1     -10.310  11.827  68.368  1.00  0.00    -0.223 C  
BRANCH  19  20
HETATM   20  C   UNL     1      -8.901  12.214  67.908  1.00  0.00    -0.177 C  
BRANCH  20  21
HETATM   21  C   UNL     1      -8.666  13.709  68.100  1.00  0.00    -0.177 C  
HETATM   22  N   UNL     1      -8.406  14.386  66.918  1.00  0.00    -0.394 N  
HETATM   23  O   UNL     1      -8.635  14.224  69.213  1.00  0.00     0.076 OA 
HETATM   24  H   UNL     1      -8.392  13.868  66.040  1.00  0.00     0.000 HD 
BRANCH  22  25
HETATM   25  C   UNL     1      -8.160  15.791  66.901  1.00  0.00    -0.257 A  
HETATM   26  C   UNL     1      -6.864  16.325  66.986  1.00  0.00    -0.200 A  
HETATM   27  I   UNL     1      -5.143  15.189  67.472  1.00  0.00     0.542 I  
HETATM   28  C   UNL     1      -6.659  17.707  66.926  1.00  0.00    -0.213 A  
HETATM   29  C   UNL     1      -7.744  18.590  66.850  1.00  0.00    -0.227 A  
HETATM   30  I   UNL     1      -7.202  20.634  66.892  1.00  0.00    -0.232 I  
HETATM   31  C   UNL     1      -9.062  18.102  66.820  1.00  0.00    -0.287 A  
HETATM   32  C   UNL     1     -10.231  19.028  66.846  1.00  0.00    -0.387 C  
HETATM   33  C   UNL     1      -9.257  16.695  66.842  1.00  0.00    -0.227 A  
HETATM   34  O   UNL     1     -11.182  18.881  67.593  1.00  0.00    -0.207 OA 
HETATM   35  I   UNL     1     -11.226  15.823  66.651  1.00  0.00     0.364 I  
HETATM   36  O   UNL     1     -10.182  20.033  65.945  1.00  0.00    -0.486 OA 
ENDBRANCH  22  25
ENDBRANCH  20  21
ENDBRANCH  19  20
ENDBRANCH  18  19
ENDBRANCH  17  18
ENDBRANCH  15  17
ENDBRANCH   7  13
TORSDOF 7
ENDMDL
MODEL      174
REMARK 921   NORMALIZED FREE ENERGY PREDICTED BY IDOCK:   -3.23 KCAL/MOL
REMARK 922        TOTAL FREE ENERGY PREDICTED BY IDOCK:   -5.48 KCAL/MOL
REMARK 923 INTER-LIGAND FREE ENERGY PREDICTED BY IDOCK:   -6.23 KCAL/MOL
REMARK 924 INTRA-LIGAND FREE ENERGY PREDICTED BY IDOCK:    0.75 KCAL/MOL
REMARK 927      BINDING AFFINITY PREDICTED BY RF-SCORE:    0.00 PKD
ROOT
HETATM    1  O   UNL     1      -5.134   9.150  66.284  1.00  0.00    -0.032 OA 
HETATM    2  C   UNL     1      -6.428   9.381  66.593  1.00  0.00    -0.067 C  
HETATM    3  C   UNL     1      -7.108   8.258  67.293  1.00  0.00    -0.079 A  
HETATM    4  O   UNL     1      -6.966  10.448  66.359  1.00  0.00    -0.099 OA 
HETATM    5  C   UNL     1      -7.868   8.490  68.471  1.00  0.00    -0.108 A  
HETATM    6  I   UNL     1      -7.921  10.438  69.406  1.00  0.00    -0.049 I  
HETATM    7  C   UNL     1      -8.556   7.436  69.137  1.00  0.00    -0.136 A  
HETATM    8  I   UNL     1      -6.141   6.406  64.957  1.00  0.00    -0.031 I  
HETATM    9  C   UNL     1      -8.484   6.141  68.593  1.00  0.00    -0.114 A  
HETATM   10  C   UNL     1      -7.069   6.950  66.778  1.00  0.00    -0.075 A  
HETATM   11  C   UNL     1      -7.733   5.905  67.433  1.00  0.00    -0.097 A  
HETATM   12  I   UNL     1      -9.645   4.504  69.249  1.00  0.00    -0.199 I  
ENDROOT
BRANCH   7  13
HETATM   13  N   UNL     1      -9.353   7.752  70.278  1.00  0.00    -0.157 N  
HETATM   14  O   UNL     1     -11.355   8.062  69.146  1.00  0.00     0.234 OA 
HETATM   15  C   UNL     1     -10.710   8.025  70.190  1.00  0.00    -0.244 C  
HETATM   16  H   UNL     1      -8.907   7.777  71.195  1.00  0.00     0.000 HD 
BRANCH  15  17
HETATM   17  C   UNL     1     -11.406   8.128  71.541  1.00  0.00    -0.308 C  
BRANCH  17  18
HETATM   18  C   UNL     1     -11.721   9.589  71.857  1.00  0.00    -0.311 C  
BRANCH  18  19
HETATM   19  C   UNL     1     -12.296  10.393  70.686  1.00  0.00    -0.438 C  
BRANCH  19  20
HETATM   20  C   UNL     1     -11.266  10.868  69.656  1.00  0.00    -0.348 C  
BRANCH  20  21
HETATM   21  C   UNL     1     -11.493  12.336  69.308  1.00  0.00    -0.292 C  
HETATM   22  N   UNL     1     -10.332  13.095  69.321  1.00  0.00    -0.402 N  
HETATM   23  O   UNL     1     -12.615  12.793  69.120  1.00  0.00     0.223 OA 
HETATM   24  H   UNL     1      -9.446  12.645  69.548  1.00  0.00     0.000 HD 
BRANCH  22  25
HETATM   25  C   UNL     1     -10.349  14.490  69.023  1.00  0.00    -0.223 A  
HETATM   26  C   UNL     1     -10.693  15.456  69.982  1.00  0.00    -0.307 A  
HETATM   27  I   UNL     1     -11.540  15.003  71.870  1.00  0.00    -0.034 I  
HETATM   28  C   UNL     1     -10.660  16.817  69.664  1.00  0.00    -0.242 A  
HETATM   29  C   UNL     1     -10.350  17.243  68.364  1.00  0.00    -0.366 A  
HETATM   30  I   UNL     1     -10.477  19.334  68.085  1.00  0.00    -0.133 I  
HETATM   31  C   UNL     1     -10.054  16.307  67.358  1.00  0.00    -0.260 A  
HETATM   32  C   UNL     1      -9.825  16.734  65.947  1.00  0.00    -0.249 C  
HETATM   33  C   UNL     1     -10.052  14.928  67.702  1.00  0.00    -0.227 A  
HETATM   34  O   UNL     1     -10.361  16.198  64.993  1.00  0.00    -0.573 OA 
HETATM   35  I   UNL     1      -9.469  13.408  66.281  1.00  0.00     0.024 I  
HETATM   36  O   UNL     1      -8.940  17.743  65.793  1.00  0.00    -0.509 OA 
ENDBRANCH  22  25
ENDBRANCH  20  21
ENDBRANCH  19  20
ENDBRANCH  18  19
ENDBRANCH  17  18
ENDBRANCH  15  17
ENDBRANCH   7  13
TORSDOF 7
ENDMDL
MODEL      175
REMARK 921   NORMALIZED FREE ENERGY PREDICTED BY IDOCK:   -3.20 KCAL/MOL
REMARK 922        TOTAL FREE ENERGY PREDICTED BY IDOCK:   -5.43 KCAL/MOL
REMARK 923 INTER-LIGAND FREE ENERGY PREDICTED BY IDOCK:   -4.67 KCAL/MOL
REMARK 924 INTRA-LIGAND FREE ENERGY PREDICTED BY IDOCK:   -0.75 KCAL/MOL
REMARK 927      BINDING AFFINITY PREDICTED BY RF-SCORE:    0.00 PKD
ROOT
HETATM    1  O   UNL     1      -6.500   7.801  63.152  1.00  0.00    -0.065 OA 
HETATM    2  C   UNL     1      -7.784   8.045  63.497  1.00  0.00    -0.140 C  
HETATM    3  C   UNL     1      -7.976   8.465  64.911  1.00  0.00    -0.136 A  
HETATM    4  O   UNL     1      -8.693   7.975  62.689  1.00  0.00     0.016 OA 
HETATM    5  C   UNL     1      -8.767   9.603  65.229  1.00  0.00    -0.160 A  
HETATM    6  I   UNL     1      -9.569  10.880  63.682  1.00  0.00    -0.414 I  
HETATM    7  C   UNL     1      -8.993  10.001  66.577  1.00  0.00    -0.143 A  
HETATM    8  I   UNL     1      -6.369   5.906  65.739  1.00  0.00    -0.045 I  
HETATM    9  C   UNL     1      -8.426   9.230  67.608  1.00  0.00    -0.116 A  
HETATM   10  C   UNL     1      -7.435   7.717  65.972  1.00  0.00    -0.078 A  
HETATM   11  C   UNL     1      -7.642   8.109  67.300  1.00  0.00    -0.097 A  
HETATM   12  I   UNL     1      -8.863   9.474  69.660  1.00  0.00    -0.253 I  
ENDROOT
BRANCH   7  13
HETATM   13  N   UNL     1      -9.850  11.115  66.827  1.00  0.00    -0.196 N  
HETATM   14  O   UNL     1     -11.692   9.898  67.543  1.00  0.00     0.309 OA 
HETATM   15  C   UNL     1     -11.141  10.972  67.313  1.00  0.00    -0.294 C  
HETATM   16  H   UNL     1      -9.499  12.054  66.641  1.00  0.00     0.000 HD 
BRANCH  15  17
HETATM   17  C   UNL     1     -11.802  12.287  67.705  1.00  0.00    -0.334 C  
BRANCH  17  18
HETATM   18  C   UNL     1     -12.237  12.238  69.168  1.00  0.00    -0.075 C  
BRANCH  18  19
HETATM   19  C   UNL     1     -11.776  13.427  70.018  1.00  0.00    -0.297 C  
BRANCH  19  20
HETATM   20  C   UNL     1     -12.064  14.806  69.418  1.00  0.00    -0.305 C  
BRANCH  20  21
HETATM   21  C   UNL     1     -10.762  15.540  69.113  1.00  0.00    -0.250 C  
HETATM   22  N   UNL     1     -10.500  15.665  67.756  1.00  0.00    -0.267 N  
HETATM   23  O   UNL     1      -9.997  15.903  70.000  1.00  0.00    -0.226 OA 
HETATM   24  H   UNL     1     -11.162  15.280  67.084  1.00  0.00     0.000 HD 
BRANCH  22  25
HETATM   25  C   UNL     1      -9.326  16.321  67.280  1.00  0.00    -0.224 A  
HETATM   26  C   UNL     1      -8.116  15.638  67.081  1.00  0.00    -0.215 A  
HETATM   27  I   UNL     1      -7.747  13.661  67.747  1.00  0.00    -0.202 I  
HETATM   28  C   UNL     1      -6.997  16.306  66.574  1.00  0.00     0.105 A  
HETATM   29  C   UNL     1      -7.038  17.684  66.320  1.00  0.00    -0.301 A  
HETATM   30  I   UNL     1      -5.199  18.501  65.674  1.00  0.00    -0.241 I  
HETATM   31  C   UNL     1      -8.213  18.419  66.559  1.00  0.00    -0.289 A  
HETATM   32  C   UNL     1      -8.245  19.902  66.395  1.00  0.00    -0.335 C  
HETATM   33  C   UNL     1      -9.356  17.722  67.036  1.00  0.00    -0.259 A  
HETATM   34  O   UNL     1      -8.713  20.654  67.230  1.00  0.00    -0.334 OA 
HETATM   35  I   UNL     1     -11.257  18.715  67.299  1.00  0.00     1.230 I  
HETATM   36  O   UNL     1      -7.748  20.356  65.224  1.00  0.00    -0.041 OA 
ENDBRANCH  22  25
ENDBRANCH  20  21
ENDBRANCH  19  20
ENDBRANCH  18  19
ENDBRANCH  17  18
ENDBRANCH  15  17
ENDBRANCH   7  13
TORSDOF 7
ENDMDL
MODEL      176
REMARK 921   NORMALIZED FREE ENERGY PREDICTED BY IDOCK:   -3.13 KCAL/MOL
REMARK 922        TOTAL FREE ENERGY PREDICTED BY IDOCK:   -5.33 KCAL/MOL
REMARK 923 INTER-LIGAND FREE ENERGY PREDICTED BY IDOCK:   -4.34 KCAL/MOL
REMARK 924 INTRA-LIGAND FREE ENERGY PREDICTED BY IDOCK:   -0.99 KCAL/MOL
REMARK 927      BINDING AFFINITY PREDICTED BY RF-SCORE:    0.00 PKD
ROOT
HETATM    1  O   UNL     1      -7.109  17.288  67.909  1.00  0.00    -0.162 OA 
HETATM    2  C   UNL     1      -7.294  16.133  68.586  1.00  0.00    -0.175 C  
HETATM    3  C   UNL     1      -7.837  15.016  67.768  1.00  0.00    -0.161 A  
HETATM    4  O   UNL     1      -6.986  16.017  69.759  1.00  0.00    -0.172 OA 
HETATM    5  C   UNL     1      -7.236  13.728  67.808  1.00  0.00    -0.163 A  
HETATM    6  I   UNL     1      -5.407  13.378  68.903  1.00  0.00    -0.084 I  
HETATM    7  C   UNL     1      -7.760  12.636  67.060  1.00  0.00    -0.014 A  
HETATM    8  I   UNL     1     -10.139  16.958  66.903  1.00  0.00    -0.292 I  
HETATM    9  C   UNL     1      -8.912  12.849  66.280  1.00  0.00     0.083 A  
HETATM   10  C   UNL     1      -8.991  15.183  66.983  1.00  0.00    -0.234 A  
HETATM   11  C   UNL     1      -9.507  14.117  66.235  1.00  0.00    -0.264 A  
HETATM   12  I   UNL     1     -10.009  11.316  65.328  1.00  0.00    -0.352 I  
ENDROOT
BRANCH   7  13
HETATM   13  N   UNL     1      -7.146  11.355  67.197  1.00  0.00    -0.125 N  
HETATM   14  O   UNL     1      -5.641  11.575  65.444  1.00  0.00     0.036 OA 
HETATM   15  C   UNL     1      -6.110  10.931  66.378  1.00  0.00    -0.131 C  
HETATM   16  H   UNL     1      -7.482  10.727  67.927  1.00  0.00     0.000 HD 
BRANCH  15  17
HETATM   17  C   UNL     1      -5.464   9.627  66.827  1.00  0.00    -0.046 C  
BRANCH  17  18
HETATM   18  C   UNL     1      -6.215   9.057  68.029  1.00  0.00    -0.051 C  
BRANCH  18  19
HETATM   19  C   UNL     1      -5.342   8.755  69.252  1.00  0.00    -0.035 C  
BRANCH  19  20
HETATM   20  C   UNL     1      -5.724   7.490  70.027  1.00  0.00    -0.024 C  
BRANCH  20  21
HETATM   21  C   UNL     1      -7.098   7.650  70.670  1.00  0.00    -0.054 C  
HETATM   22  N   UNL     1      -8.071   6.837  70.107  1.00  0.00    -0.125 N  
HETATM   23  O   UNL     1      -7.313   8.482  71.545  1.00  0.00    -0.083 OA 
HETATM   24  H   UNL     1      -7.818   6.216  69.340  1.00  0.00     0.000 HD 
BRANCH  22  25
HETATM   25  C   UNL     1      -9.418   6.851  70.577  1.00  0.00    -0.169 A  
HETATM   26  C   UNL     1     -10.376   7.749  70.079  1.00  0.00    -0.221 A  
HETATM   27  I   UNL     1      -9.918   9.399  68.831  1.00  0.00    -0.223 I  
HETATM   28  C   UNL     1     -11.697   7.706  70.536  1.00  0.00    -0.148 A  
HETATM   29  C   UNL     1     -12.076   6.814  71.548  1.00  0.00    -0.363 A  
HETATM   30  I   UNL     1     -14.090   7.008  72.162  1.00  0.00     0.272 I  
HETATM   31  C   UNL     1     -11.137   5.936  72.116  1.00  0.00    -0.333 A  
HETATM   32  C   UNL     1     -11.497   5.055  73.265  1.00  0.00    -0.259 C  
HETATM   33  C   UNL     1      -9.807   5.961  71.617  1.00  0.00    -0.165 A  
HETATM   34  O   UNL     1     -10.811   4.952  74.266  1.00  0.00    -0.320 OA 
HETATM   35  I   UNL     1      -8.313   4.559  72.306  1.00  0.00    -0.119 I  
HETATM   36  O   UNL     1     -12.629   4.338  73.100  1.00  0.00     0.335 OA 
ENDBRANCH  22  25
ENDBRANCH  20  21
ENDBRANCH  19  20
ENDBRANCH  18  19
ENDBRANCH  17  18
ENDBRANCH  15  17
ENDBRANCH   7  13
TORSDOF 7
ENDMDL
MODEL      177
REMARK 921   NORMALIZED FREE ENERGY PREDICTED BY IDOCK:   -3.07 KCAL/MOL
REMARK 922        TOTAL FREE ENERGY PREDICTED BY IDOCK:   -5.25 KCAL/MOL
REMARK 923 INTER-LIGAND FREE ENERGY PREDICTED BY IDOCK:   -4.01 KCAL/MOL
REMARK 924 INTRA-LIGAND FREE ENERGY PREDICTED BY IDOCK:   -1.24 KCAL/MOL
REMARK 927      BINDING AFFINITY PREDICTED BY RF-SCORE:    0.00 PKD
ROOT
HETATM    1  O   UNL     1      -7.783   7.509  62.777  1.00  0.00    -0.109 OA 
HETATM    2  C   UNL     1      -8.177   7.432  64.067  1.00  0.00     0.053 C  
HETATM    3  C   UNL     1      -7.802   6.168  64.755  1.00  0.00    -0.109 A  
HETATM    4  O   UNL     1      -8.745   8.355  64.623  1.00  0.00    -0.085 OA 
HETATM    5  C   UNL     1      -7.181   6.193  66.033  1.00  0.00    -0.075 A  
HETATM    6  I   UNL     1      -6.583   8.055  66.952  1.00  0.00    -0.058 I  
HETATM    7  C   UNL     1      -6.846   4.995  66.724  1.00  0.00    -0.063 A  
HETATM    8  I   UNL     1      -9.170   4.641  62.384  1.00  0.00     0.041 I  
HETATM    9  C   UNL     1      -7.159   3.763  66.121  1.00  0.00    -0.063 A  
HETATM   10  C   UNL     1      -8.106   4.916  64.191  1.00  0.00    -0.115 A  
HETATM   11  C   UNL     1      -7.769   3.731  64.859  1.00  0.00    -0.081 A  
HETATM   12  I   UNL     1      -7.011   1.890  67.084  1.00  0.00    -0.040 I  
ENDROOT
BRANCH   7  13
HETATM   13  N   UNL     1      -6.284   5.093  68.032  1.00  0.00    -0.033 N  
HETATM   14  O   UNL     1      -8.253   4.758  69.213  1.00  0.00    -0.076 OA 
HETATM   15  C   UNL     1      -7.040   4.947  69.185  1.00  0.00    -0.052 C  
HETATM   16  H   UNL     1      -5.285   5.278  68.123  1.00  0.00     0.000 HD 
BRANCH  15  17
HETATM   17  C   UNL     1      -6.212   4.880  70.462  1.00  0.00    -0.019 C  
BRANCH  17  18
HETATM   18  C   UNL     1      -5.127   5.954  70.439  1.00  0.00    -0.009 C  
BRANCH  18  19
HETATM   19  C   UNL     1      -5.570   7.331  70.947  1.00  0.00    -0.027 C  
BRANCH  19  20
HETATM   20  C   UNL     1      -5.927   7.391  72.435  1.00  0.00    -0.040 C  
BRANCH  20  21
HETATM   21  C   UNL     1      -7.273   8.081  72.636  1.00  0.00    -0.097 C  
HETATM   22  N   UNL     1      -8.225   7.725  71.691  1.00  0.00    -0.105 N  
HETATM   23  O   UNL     1      -7.446   8.927  73.506  1.00  0.00    -0.371 OA 
HETATM   24  H   UNL     1      -7.977   7.057  70.962  1.00  0.00     0.000 HD 
BRANCH  22  25
HETATM   25  C   UNL     1      -9.543   8.271  71.717  1.00  0.00    -0.209 A  
HETATM   26  C   UNL     1     -10.557   7.741  72.529  1.00  0.00    -0.293 A  
HETATM   27  I   UNL     1     -10.405   5.899  73.566  1.00  0.00    -0.321 I  
HETATM   28  C   UNL     1     -11.826   8.328  72.558  1.00  0.00    -0.439 A  
HETATM   29  C   UNL     1     -12.131   9.415  71.726  1.00  0.00    -0.382 A  
HETATM   30  I   UNL     1     -14.140  10.062  71.851  1.00  0.00     0.764 I  
HETATM   31  C   UNL     1     -11.162   9.942  70.855  1.00  0.00    -0.433 A  
HETATM   32  C   UNL     1     -11.499  11.028  69.889  1.00  0.00    -0.320 C  
HETATM   33  C   UNL     1      -9.865   9.363  70.864  1.00  0.00    -0.268 A  
HETATM   34  O   UNL     1     -11.193  10.991  68.711  1.00  0.00    -0.222 OA 
HETATM   35  I   UNL     1      -8.253  10.181  69.679  1.00  0.00    -0.002 I  
HETATM   36  O   UNL     1     -12.140  12.089  70.425  1.00  0.00    -0.351 OA 
ENDBRANCH  22  25
ENDBRANCH  20  21
ENDBRANCH  19  20
ENDBRANCH  18  19
ENDBRANCH  17  18
ENDBRANCH  15  17
ENDBRANCH   7  13
TORSDOF 7
ENDMDL
MODEL      178
REMARK 921   NORMALIZED FREE ENERGY PREDICTED BY IDOCK:   -2.93 KCAL/MOL
REMARK 922        TOTAL FREE ENERGY PREDICTED BY IDOCK:   -5.05 KCAL/MOL
REMARK 923 INTER-LIGAND FREE ENERGY PREDICTED BY IDOCK:   -3.89 KCAL/MOL
REMARK 924 INTRA-LIGAND FREE ENERGY PREDICTED BY IDOCK:   -1.15 KCAL/MOL
REMARK 927      BINDING AFFINITY PREDICTED BY RF-SCORE:    0.00 PKD
ROOT
HETATM    1  O   UNL     1      -9.441   4.533  74.532  1.00  0.00    -0.115 OA 
HETATM    2  C   UNL     1      -8.318   4.394  73.793  1.00  0.00    -0.100 C  
HETATM    3  C   UNL     1      -8.553   4.234  72.333  1.00  0.00    -0.110 A  
HETATM    4  O   UNL     1      -7.208   4.451  74.291  1.00  0.00    -0.069 OA 
HETATM    5  C   UNL     1      -7.827   5.013  71.392  1.00  0.00    -0.109 A  
HETATM    6  I   UNL     1      -6.494   6.589  72.031  1.00  0.00    -0.055 I  
HETATM    7  C   UNL     1      -8.010   4.852  69.989  1.00  0.00    -0.073 A  
HETATM    8  I   UNL     1     -10.509   1.894  73.049  1.00  0.00    -0.237 I  
HETATM    9  C   UNL     1      -8.924   3.881  69.540  1.00  0.00    -0.106 A  
HETATM   10  C   UNL     1      -9.450   3.269  71.842  1.00  0.00    -0.139 A  
HETATM   11  C   UNL     1      -9.646   3.112  70.464  1.00  0.00    -0.201 A  
HETATM   12  I   UNL     1      -9.140   3.285  67.526  1.00  0.00    -0.218 I  
ENDROOT
BRANCH   7  13
HETATM   13  N   UNL     1      -7.202   5.622  69.100  1.00  0.00    -0.068 N  
HETATM   14  O   UNL     1      -5.534   4.038  68.792  1.00  0.00    -0.011 OA 
HETATM   15  C   UNL     1      -6.023   5.139  68.553  1.00  0.00    -0.021 C  
HETATM   16  H   UNL     1      -7.504   6.565  68.857  1.00  0.00     0.000 HD 
BRANCH  15  17
HETATM   17  C   UNL     1      -5.431   6.036  67.474  1.00  0.00    -0.005 C  
BRANCH  17  18
HETATM   18  C   UNL     1      -5.364   5.284  66.146  1.00  0.00    -0.013 C  
BRANCH  18  19
HETATM   19  C   UNL     1      -6.070   5.977  64.976  1.00  0.00    -0.026 C  
BRANCH  19  20
HETATM   20  C   UNL     1      -7.513   6.412  65.252  1.00  0.00    -0.081 C  
BRANCH  20  21
HETATM   21  C   UNL     1      -7.589   7.923  65.444  1.00  0.00    -0.084 C  
HETATM   22  N   UNL     1      -8.887   8.412  65.490  1.00  0.00    -0.291 N  
HETATM   23  O   UNL     1      -6.586   8.627  65.470  1.00  0.00    -0.062 OA 
HETATM   24  H   UNL     1      -9.667   7.761  65.399  1.00  0.00     0.000 HD 
BRANCH  22  25
HETATM   25  C   UNL     1      -9.156   9.802  65.661  1.00  0.00    -0.178 A  
HETATM   26  C   UNL     1      -9.366  10.664  64.573  1.00  0.00    -0.243 A  
HETATM   27  I   UNL     1      -9.001  10.134  62.554  1.00  0.00    -0.367 I  
HETATM   28  C   UNL     1      -9.666  12.013  64.782  1.00  0.00    -0.108 A  
HETATM   29  C   UNL     1      -9.697  12.549  66.076  1.00  0.00    -0.241 A  
HETATM   30  I   UNL     1     -10.053  14.632  66.144  1.00  0.00    -0.373 I  
HETATM   31  C   UNL     1      -9.437  11.734  67.193  1.00  0.00    -0.180 A  
HETATM   32  C   UNL     1      -9.360  12.308  68.568  1.00  0.00    -0.099 C  
HETATM   33  C   UNL     1      -9.171  10.356  66.971  1.00  0.00    -0.147 A  
HETATM   34  O   UNL     1      -8.455  12.060  69.344  1.00  0.00     0.546 OA 
HETATM   35  I   UNL     1      -8.904   8.978  68.614  1.00  0.00    -0.137 I  
HETATM   36  O   UNL     1     -10.399  13.099  68.914  1.00  0.00    -0.170 OA 
ENDBRANCH  22  25
ENDBRANCH  20  21
ENDBRANCH  19  20
ENDBRANCH  18  19
ENDBRANCH  17  18
ENDBRANCH  15  17
ENDBRANCH   7  13
TORSDOF 7
ENDMDL
MODEL      179
REMARK 921   NORMALIZED FREE ENERGY PREDICTED BY IDOCK:   -2.85 KCAL/MOL
REMARK 922        TOTAL FREE ENERGY PREDICTED BY IDOCK:   -4.94 KCAL/MOL
REMARK 923 INTER-LIGAND FREE ENERGY PREDICTED BY IDOCK:   -3.64 KCAL/MOL
REMARK 924 INTRA-LIGAND FREE ENERGY PREDICTED BY IDOCK:   -1.30 KCAL/MOL
REMARK 927      BINDING AFFINITY PREDICTED BY RF-SCORE:    0.00 PKD
ROOT
HETATM    1  O   UNL     1     -13.809  15.944  71.544  1.00  0.00    -0.418 OA 
HETATM    2  C   UNL     1     -12.494  15.673  71.397  1.00  0.00    -0.439 C  
HETATM    3  C   UNL     1     -12.199  14.454  70.595  1.00  0.00    -0.414 A  
HETATM    4  O   UNL     1     -11.630  16.406  71.844  1.00  0.00    -0.450 OA 
HETATM    5  C   UNL     1     -11.243  14.491  69.544  1.00  0.00    -0.264 A  
HETATM    6  I   UNL     1     -10.315  16.345  68.936  1.00  0.00    -0.332 I  
HETATM    7  C   UNL     1     -10.919  13.329  68.788  1.00  0.00    -0.260 A  
HETATM    8  I   UNL     1     -14.131  12.901  72.512  1.00  0.00     1.314 I  
HETATM    9  C   UNL     1     -11.559  12.119  69.113  1.00  0.00    -0.319 A  
HETATM   10  C   UNL     1     -12.808  13.223  70.894  1.00  0.00    -0.181 A  
HETATM   11  C   UNL     1     -12.505  12.077  70.147  1.00  0.00    -0.122 A  
HETATM   12  I   UNL     1     -11.027  10.236  68.319  1.00  0.00    -0.234 I  
ENDROOT
BRANCH   7  13
HETATM   13  N   UNL     1      -9.904  13.422  67.790  1.00  0.00    -0.227 N  
HETATM   14  O   UNL     1      -8.090  13.098  69.202  1.00  0.00     0.235 OA 
HETATM   15  C   UNL     1      -8.555  13.279  68.079  1.00  0.00    -0.178 C  
HETATM   16  H   UNL     1     -10.181  13.601  66.825  1.00  0.00     0.000 HD 
BRANCH  15  17
HETATM   17  C   UNL     1      -7.664  13.205  66.846  1.00  0.00     0.234 C  
BRANCH  17  18
HETATM   18  C   UNL     1      -7.535  11.756  66.380  1.00  0.00     0.181 C  
BRANCH  18  19
HETATM   19  C   UNL     1      -6.549  10.904  67.186  1.00  0.00    -0.083 C  
BRANCH  19  20
HETATM   20  C   UNL     1      -5.992   9.682  66.448  1.00  0.00    -0.059 C  
BRANCH  20  21
HETATM   21  C   UNL     1      -6.217   8.415  67.266  1.00  0.00    -0.056 C  
HETATM   22  N   UNL     1      -7.527   8.256  67.694  1.00  0.00    -0.093 N  
HETATM   23  O   UNL     1      -5.295   7.666  67.572  1.00  0.00    -0.028 OA 
HETATM   24  H   UNL     1      -8.221   8.960  67.444  1.00  0.00     0.000 HD 
BRANCH  22  25
HETATM   25  C   UNL     1      -7.926   7.130  68.473  1.00  0.00    -0.124 A  
HETATM   26  C   UNL     1      -8.300   5.909  67.889  1.00  0.00    -0.111 A  
HETATM   27  I   UNL     1      -8.645   5.643  65.816  1.00  0.00    -0.136 I  
HETATM   28  C   UNL     1      -8.647   4.815  68.688  1.00  0.00    -0.101 A  
HETATM   29  C   UNL     1      -8.696   4.933  70.083  1.00  0.00    -0.094 A  
HETATM   30  I   UNL     1      -9.360   3.189  71.077  1.00  0.00    -0.207 I  
HETATM   31  C   UNL     1      -8.385   6.154  70.708  1.00  0.00    -0.126 A  
HETATM   32  C   UNL     1      -8.533   6.328  72.183  1.00  0.00    -0.112 C  
HETATM   33  C   UNL     1      -7.995   7.247  69.890  1.00  0.00    -0.122 A  
HETATM   34  O   UNL     1      -9.098   7.281  72.688  1.00  0.00    -0.134 OA 
HETATM   35  I   UNL     1      -7.351   9.126  70.742  1.00  0.00    -0.077 I  
HETATM   36  O   UNL     1      -7.955   5.364  72.931  1.00  0.00    -0.101 OA 
ENDBRANCH  22  25
ENDBRANCH  20  21
ENDBRANCH  19  20
ENDBRANCH  18  19
ENDBRANCH  17  18
ENDBRANCH  15  17
ENDBRANCH   7  13
TORSDOF 7
ENDMDL
MODEL      180
REMARK 921   NORMALIZED FREE ENERGY PREDICTED BY IDOCK:   -2.79 KCAL/MOL
REMARK 922        TOTAL FREE ENERGY PREDICTED BY IDOCK:   -4.86 KCAL/MOL
REMARK 923 INTER-LIGAND FREE ENERGY PREDICTED BY IDOCK:   -4.34 KCAL/MOL
REMARK 924 INTRA-LIGAND FREE ENERGY PREDICTED BY IDOCK:   -0.52 KCAL/MOL
REMARK 927      BINDING AFFINITY PREDICTED BY RF-SCORE:    0.00 PKD
ROOT
HETATM    1  O   UNL     1      -7.247  17.259  67.464  1.00  0.00    -0.156 OA 
HETATM    2  C   UNL     1      -7.346  16.220  68.322  1.00  0.00    -0.145 C  
HETATM    3  C   UNL     1      -7.831  14.954  67.709  1.00  0.00    -0.164 A  
HETATM    4  O   UNL     1      -7.010  16.314  69.490  1.00  0.00    -0.219 OA 
HETATM    5  C   UNL     1      -7.149  13.729  67.938  1.00  0.00    -0.158 A  
HETATM    6  I   UNL     1      -5.281  13.671  69.024  1.00  0.00    -0.080 I  
HETATM    7  C   UNL     1      -7.616  12.500  67.390  1.00  0.00    -0.156 A  
HETATM    8  I   UNL     1     -10.267  16.589  66.609  1.00  0.00    -0.277 I  
HETATM    9  C   UNL     1      -8.792  12.515  66.619  1.00  0.00    -0.142 A  
HETATM   10  C   UNL     1      -9.007  14.923  66.940  1.00  0.00    -0.253 A  
HETATM   11  C   UNL     1      -9.468  13.721  66.387  1.00  0.00    -0.259 A  
HETATM   12  I   UNL     1      -9.806  10.786  65.956  1.00  0.00    -0.333 I  
ENDROOT
BRANCH   7  13
HETATM   13  N   UNL     1      -6.918  11.298  67.714  1.00  0.00    -0.072 N  
HETATM   14  O   UNL     1      -5.509  11.285  65.870  1.00  0.00    -0.190 OA 
HETATM   15  C   UNL     1      -5.896  10.791  66.926  1.00  0.00    -0.068 C  
HETATM   16  H   UNL     1      -7.183  10.791  68.559  1.00  0.00     0.000 HD 
BRANCH  15  17
HETATM   17  C   UNL     1      -5.152   9.622  67.559  1.00  0.00    -0.036 C  
BRANCH  17  18
HETATM   18  C   UNL     1      -6.111   8.785  68.402  1.00  0.00    -0.050 C  
BRANCH  18  19
HETATM   19  C   UNL     1      -5.457   8.017  69.554  1.00  0.00    -0.026 C  
BRANCH  19  20
HETATM   20  C   UNL     1      -6.124   6.685  69.910  1.00  0.00    -0.027 C  
BRANCH  20  21
HETATM   21  C   UNL     1      -7.149   6.299  68.849  1.00  0.00    -0.082 C  
HETATM   22  N   UNL     1      -6.736   5.255  68.032  1.00  0.00    -0.053 N  
HETATM   23  O   UNL     1      -8.195   6.920  68.700  1.00  0.00    -0.119 OA 
HETATM   24  H   UNL     1      -5.821   4.834  68.188  1.00  0.00     0.000 HD 
BRANCH  22  25
HETATM   25  C   UNL     1      -7.562   4.758  66.981  1.00  0.00    -0.087 A  
HETATM   26  C   UNL     1      -8.596   3.838  67.212  1.00  0.00    -0.103 A  
HETATM   27  I   UNL     1      -8.881   2.810  69.043  1.00  0.00    -0.203 I  
HETATM   28  C   UNL     1      -9.411   3.404  66.162  1.00  0.00    -0.151 A  
HETATM   29  C   UNL     1      -9.170   3.825  64.847  1.00  0.00    -0.148 A  
HETATM   30  I   UNL     1     -10.449   2.949  63.410  1.00  0.00    -0.197 I  
HETATM   31  C   UNL     1      -8.109   4.702  64.561  1.00  0.00    -0.105 A  
HETATM   32  C   UNL     1      -7.773   5.077  63.156  1.00  0.00    -0.069 C  
HETATM   33  C   UNL     1      -7.312   5.168  65.641  1.00  0.00    -0.073 A  
HETATM   34  O   UNL     1      -6.639   5.047  62.712  1.00  0.00    -0.025 OA 
HETATM   35  I   UNL     1      -5.750   6.632  65.346  1.00  0.00    -0.032 I  
HETATM   36  O   UNL     1      -8.819   5.497  62.413  1.00  0.00    -0.082 OA 
ENDBRANCH  22  25
ENDBRANCH  20  21
ENDBRANCH  19  20
ENDBRANCH  18  19
ENDBRANCH  17  18
ENDBRANCH  15  17
ENDBRANCH   7  13
TORSDOF 7
ENDMDL
MODEL      181
REMARK 921   NORMALIZED FREE ENERGY PREDICTED BY IDOCK:   -2.79 KCAL/MOL
REMARK 922        TOTAL FREE ENERGY PREDICTED BY IDOCK:   -4.85 KCAL/MOL
REMARK 923 INTER-LIGAND FREE ENERGY PREDICTED BY IDOCK:   -4.56 KCAL/MOL
REMARK 924 INTRA-LIGAND FREE ENERGY PREDICTED BY IDOCK:   -0.30 KCAL/MOL
REMARK 927      BINDING AFFINITY PREDICTED BY RF-SCORE:    0.00 PKD
ROOT
HETATM    1  O   UNL     1     -10.310  19.254  66.123  1.00  0.00    -0.431 OA 
HETATM    2  C   UNL     1      -9.694  18.060  66.262  1.00  0.00    -0.270 C  
HETATM    3  C   UNL     1     -10.352  17.132  67.219  1.00  0.00    -0.320 A  
HETATM    4  O   UNL     1      -8.710  17.762  65.608  1.00  0.00    -0.370 OA 
HETATM    5  C   UNL     1     -10.612  15.781  66.859  1.00  0.00    -0.317 A  
HETATM    6  I   UNL     1     -10.241  15.064  64.855  1.00  0.00     0.466 I  
HETATM    7  C   UNL     1     -11.209  14.867  67.773  1.00  0.00    -0.321 A  
HETATM    8  I   UNL     1     -10.233  19.449  69.325  1.00  0.00     0.670 I  
HETATM    9  C   UNL     1     -11.528  15.322  69.065  1.00  0.00    -0.324 A  
HETATM   10  C   UNL     1     -10.678  17.543  68.524  1.00  0.00    -0.237 A  
HETATM   11  C   UNL     1     -11.276  16.653  69.425  1.00  0.00    -0.085 A  
HETATM   12  I   UNL     1     -12.149  14.074  70.651  1.00  0.00    -0.310 I  
ENDROOT
BRANCH   7  13
HETATM   13  N   UNL     1     -11.383  13.509  67.367  1.00  0.00    -0.298 N  
HETATM   14  O   UNL     1      -9.152  12.885  67.508  1.00  0.00    -0.174 OA 
HETATM   15  C   UNL     1     -10.328  12.613  67.284  1.00  0.00    -0.224 C  
HETATM   16  H   UNL     1     -12.320  13.186  67.129  1.00  0.00     0.000 HD 
BRANCH  15  17
HETATM   17  C   UNL     1     -10.761  11.173  67.037  1.00  0.00    -0.316 C  
BRANCH  17  18
HETATM   18  C   UNL     1     -10.636  10.837  65.553  1.00  0.00    -0.205 C  
BRANCH  18  19
HETATM   19  C   UNL     1      -9.357  10.088  65.166  1.00  0.00    -0.302 C  
BRANCH  19  20
HETATM   20  C   UNL     1      -8.127  10.418  66.017  1.00  0.00    -0.143 C  
BRANCH  20  21
HETATM   21  C   UNL     1      -7.470   9.139  66.528  1.00  0.00    -0.093 C  
HETATM   22  N   UNL     1      -8.073   8.621  67.665  1.00  0.00    -0.106 N  
HETATM   23  O   UNL     1      -6.457   8.679  66.013  1.00  0.00    -0.056 OA 
HETATM   24  H   UNL     1      -8.878   9.103  68.064  1.00  0.00     0.000 HD 
BRANCH  22  25
HETATM   25  C   UNL     1      -7.594   7.430  68.287  1.00  0.00    -0.114 A  
HETATM   26  C   UNL     1      -6.563   7.446  69.240  1.00  0.00    -0.037 A  
HETATM   27  I   UNL     1      -5.358   9.138  69.655  1.00  0.00    -0.034 I  
HETATM   28  C   UNL     1      -6.148   6.262  69.858  1.00  0.00    -0.026 A  
HETATM   29  C   UNL     1      -6.702   5.028  69.489  1.00  0.00    -0.051 A  
HETATM   30  I   UNL     1      -5.839   3.365  70.468  1.00  0.00    -0.019 I  
HETATM   31  C   UNL     1      -7.697   4.960  68.499  1.00  0.00    -0.078 A  
HETATM   32  C   UNL     1      -8.223   3.648  68.020  1.00  0.00    -0.083 C  
HETATM   33  C   UNL     1      -8.140   6.173  67.906  1.00  0.00    -0.114 A  
HETATM   34  O   UNL     1      -8.339   3.367  66.840  1.00  0.00    -0.096 OA 
HETATM   35  I   UNL     1      -9.765   6.208  66.481  1.00  0.00    -0.073 I  
HETATM   36  O   UNL     1      -8.606   2.797  68.996  1.00  0.00    -0.064 OA 
ENDBRANCH  22  25
ENDBRANCH  20  21
ENDBRANCH  19  20
ENDBRANCH  18  19
ENDBRANCH  17  18
ENDBRANCH  15  17
ENDBRANCH   7  13
TORSDOF 7
ENDMDL
MODEL      182
REMARK 921   NORMALIZED FREE ENERGY PREDICTED BY IDOCK:   -2.77 KCAL/MOL
REMARK 922        TOTAL FREE ENERGY PREDICTED BY IDOCK:   -4.83 KCAL/MOL
REMARK 923 INTER-LIGAND FREE ENERGY PREDICTED BY IDOCK:   -5.12 KCAL/MOL
REMARK 924 INTRA-LIGAND FREE ENERGY PREDICTED BY IDOCK:    0.29 KCAL/MOL
REMARK 927      BINDING AFFINITY PREDICTED BY RF-SCORE:    0.00 PKD
ROOT
HETATM    1  O   UNL     1      -7.229   4.753  62.372  1.00  0.00    -0.034 OA 
HETATM    2  C   UNL     1      -7.841   5.579  63.250  1.00  0.00    -0.095 C  
HETATM    3  C   UNL     1      -7.819   5.109  64.661  1.00  0.00    -0.095 A  
HETATM    4  O   UNL     1      -8.320   6.645  62.906  1.00  0.00    -0.029 OA 
HETATM    5  C   UNL     1      -7.426   5.982  65.711  1.00  0.00    -0.082 A  
HETATM    6  I   UNL     1      -6.667   7.963  65.297  1.00  0.00    -0.051 I  
HETATM    7  C   UNL     1      -7.432   5.564  67.072  1.00  0.00    -0.088 A  
HETATM    8  I   UNL     1      -9.022   2.406  63.628  1.00  0.00    -0.101 I  
HETATM    9  C   UNL     1      -7.855   4.256  67.369  1.00  0.00    -0.092 A  
HETATM   10  C   UNL     1      -8.243   3.813  65.002  1.00  0.00    -0.097 A  
HETATM   11  C   UNL     1      -8.240   3.388  66.337  1.00  0.00    -0.097 A  
HETATM   12  I   UNL     1      -8.207   3.529  69.320  1.00  0.00    -0.100 I  
ENDROOT
BRANCH   7  13
HETATM   13  N   UNL     1      -7.087   6.513  68.081  1.00  0.00    -0.080 N  
HETATM   14  O   UNL     1      -9.033   7.772  67.960  1.00  0.00    -0.127 OA 
HETATM   15  C   UNL     1      -7.935   7.542  68.460  1.00  0.00    -0.123 C  
HETATM   16  H   UNL     1      -6.181   6.429  68.542  1.00  0.00     0.000 HD 
BRANCH  15  17
HETATM   17  C   UNL     1      -7.464   8.307  69.691  1.00  0.00    -0.081 C  
BRANCH  17  18
HETATM   18  C   UNL     1      -6.953   9.687  69.286  1.00  0.00    -0.055 C  
BRANCH  18  19
HETATM   19  C   UNL     1      -7.927  10.840  69.552  1.00  0.00    -0.022 C  
BRANCH  19  20
HETATM   20  C   UNL     1      -8.387  11.603  68.306  1.00  0.00    -0.159 C  
BRANCH  20  21
HETATM   21  C   UNL     1      -7.704  12.965  68.229  1.00  0.00    -0.137 C  
HETATM   22  N   UNL     1      -8.526  14.020  68.598  1.00  0.00    -0.273 N  
HETATM   23  O   UNL     1      -6.563  13.095  67.801  1.00  0.00    -0.119 OA 
HETATM   24  H   UNL     1      -9.485  13.826  68.885  1.00  0.00     0.000 HD 
BRANCH  22  25
HETATM   25  C   UNL     1      -8.061  15.368  68.586  1.00  0.00    -0.156 A  
HETATM   26  C   UNL     1      -6.911  15.769  69.284  1.00  0.00    -0.184 A  
HETATM   27  I   UNL     1      -5.896  14.557  70.694  1.00  0.00    -0.100 I  
HETATM   28  C   UNL     1      -6.462  17.092  69.216  1.00  0.00    -0.235 A  
HETATM   29  C   UNL     1      -7.189  18.059  68.508  1.00  0.00    -0.263 A  
HETATM   30  I   UNL     1      -6.389  20.012  68.642  1.00  0.00    -0.339 I  
HETATM   31  C   UNL     1      -8.377  17.714  67.841  1.00  0.00    -0.235 A  
HETATM   32  C   UNL     1      -9.218  18.749  67.171  1.00  0.00    -0.287 C  
HETATM   33  C   UNL     1      -8.802  16.359  67.884  1.00  0.00    -0.184 A  
HETATM   34  O   UNL     1     -10.423  18.830  67.324  1.00  0.00    -0.388 OA 
HETATM   35  I   UNL     1     -10.529  15.679  66.776  1.00  0.00    -0.276 I  
HETATM   36  O   UNL     1      -8.548  19.577  66.340  1.00  0.00    -0.332 OA 
ENDBRANCH  22  25
ENDBRANCH  20  21
ENDBRANCH  19  20
ENDBRANCH  18  19
ENDBRANCH  17  18
ENDBRANCH  15  17
ENDBRANCH   7  13
TORSDOF 7
ENDMDL
MODEL      183
REMARK 921   NORMALIZED FREE ENERGY PREDICTED BY IDOCK:   -2.77 KCAL/MOL
REMARK 922        TOTAL FREE ENERGY PREDICTED BY IDOCK:   -4.83 KCAL/MOL
REMARK 923 INTER-LIGAND FREE ENERGY PREDICTED BY IDOCK:   -3.55 KCAL/MOL
REMARK 924 INTRA-LIGAND FREE ENERGY PREDICTED BY IDOCK:   -1.28 KCAL/MOL
REMARK 927      BINDING AFFINITY PREDICTED BY RF-SCORE:    0.00 PKD
ROOT
HETATM    1  O   UNL     1      -8.047   6.241  62.721  1.00  0.00    -0.105 OA 
HETATM    2  C   UNL     1      -8.500   6.511  63.965  1.00  0.00     0.265 C  
HETATM    3  C   UNL     1      -8.597   5.326  64.859  1.00  0.00    -0.145 A  
HETATM    4  O   UNL     1      -8.753   7.646  64.327  1.00  0.00     0.244 OA 
HETATM    5  C   UNL     1      -8.058   5.362  66.174  1.00  0.00    -0.106 A  
HETATM    6  I   UNL     1      -6.915   7.059  66.871  1.00  0.00    -0.074 I  
HETATM    7  C   UNL     1      -8.171   4.252  67.059  1.00  0.00    -0.101 A  
HETATM    8  I   UNL     1     -10.291   3.948  62.611  1.00  0.00    -0.078 I  
HETATM    9  C   UNL     1      -8.850   3.105  66.610  1.00  0.00    -0.145 A  
HETATM   10  C   UNL     1      -9.275   4.163  64.454  1.00  0.00    -0.150 A  
HETATM   11  C   UNL     1      -9.380   3.061  65.313  1.00  0.00    -0.122 A  
HETATM   12  I   UNL     1      -9.375   1.471  67.841  1.00  0.00    -0.017 I  
ENDROOT
BRANCH   7  13
HETATM   13  N   UNL     1      -7.665   4.381  68.387  1.00  0.00    -0.074 N  
HETATM   14  O   UNL     1      -9.703   4.757  69.431  1.00  0.00    -0.162 OA 
HETATM   15  C   UNL     1      -8.485   4.608  69.482  1.00  0.00    -0.078 C  
HETATM   16  H   UNL     1      -6.659   4.303  68.536  1.00  0.00     0.000 HD 
BRANCH  15  17
HETATM   17  C   UNL     1      -7.768   4.503  70.821  1.00  0.00    -0.053 C  
BRANCH  17  18
HETATM   18  C   UNL     1      -6.321   4.970  70.679  1.00  0.00    -0.019 C  
BRANCH  18  19
HETATM   19  C   UNL     1      -6.100   6.469  70.908  1.00  0.00    -0.031 C  
BRANCH  19  20
HETATM   20  C   UNL     1      -6.820   7.053  72.128  1.00  0.00    -0.057 C  
BRANCH  20  21
HETATM   21  C   UNL     1      -7.551   8.338  71.755  1.00  0.00    -0.099 C  
HETATM   22  N   UNL     1      -7.605   8.568  70.387  1.00  0.00    -0.070 N  
HETATM   23  O   UNL     1      -7.970   9.118  72.603  1.00  0.00    -0.134 OA 
HETATM   24  H   UNL     1      -7.176   7.896  69.752  1.00  0.00     0.000 HD 
BRANCH  22  25
HETATM   25  C   UNL     1      -8.247   9.723  69.850  1.00  0.00    -0.183 A  
HETATM   26  C   UNL     1      -7.530  10.867  69.464  1.00  0.00    -0.077 A  
HETATM   27  I   UNL     1      -5.484  11.189  69.909  1.00  0.00    -0.094 I  
HETATM   28  C   UNL     1      -8.190  11.964  68.903  1.00  0.00     0.089 A  
HETATM   29  C   UNL     1      -9.586  11.975  68.778  1.00  0.00     0.016 A  
HETATM   30  I   UNL     1     -10.374  13.782  68.016  1.00  0.00    -0.268 I  
HETATM   31  C   UNL     1     -10.349  10.873  69.204  1.00  0.00    -0.228 A  
HETATM   32  C   UNL     1     -11.841  10.909  69.177  1.00  0.00    -0.317 C  
HETATM   33  C   UNL     1      -9.665   9.747  69.736  1.00  0.00    -0.229 A  
HETATM   34  O   UNL     1     -12.533  10.570  70.120  1.00  0.00    -0.295 OA 
HETATM   35  I   UNL     1     -10.716   7.941  70.286  1.00  0.00    -0.217 I  
HETATM   36  O   UNL     1     -12.379  11.308  68.005  1.00  0.00    -0.432 OA 
ENDBRANCH  22  25
ENDBRANCH  20  21
ENDBRANCH  19  20
ENDBRANCH  18  19
ENDBRANCH  17  18
ENDBRANCH  15  17
ENDBRANCH   7  13
TORSDOF 7
ENDMDL
MODEL      184
REMARK 921   NORMALIZED FREE ENERGY PREDICTED BY IDOCK:   -2.76 KCAL/MOL
REMARK 922        TOTAL FREE ENERGY PREDICTED BY IDOCK:   -4.81 KCAL/MOL
REMARK 923 INTER-LIGAND FREE ENERGY PREDICTED BY IDOCK:   -3.35 KCAL/MOL
REMARK 924 INTRA-LIGAND FREE ENERGY PREDICTED BY IDOCK:   -1.46 KCAL/MOL
REMARK 927      BINDING AFFINITY PREDICTED BY RF-SCORE:    0.00 PKD
ROOT
HETATM    1  O   UNL     1      -7.795   7.513  62.786  1.00  0.00    -0.123 OA 
HETATM    2  C   UNL     1      -8.178   7.418  64.078  1.00  0.00     0.053 C  
HETATM    3  C   UNL     1      -7.844   6.123  64.730  1.00  0.00    -0.109 A  
HETATM    4  O   UNL     1      -8.703   8.347  64.664  1.00  0.00    -0.085 OA 
HETATM    5  C   UNL     1      -7.209   6.092  66.000  1.00  0.00    -0.075 A  
HETATM    6  I   UNL     1      -6.528   7.905  66.959  1.00  0.00    -0.058 I  
HETATM    7  C   UNL     1      -6.913   4.864  66.658  1.00  0.00    -0.067 A  
HETATM    8  I   UNL     1      -9.297   4.711  62.339  1.00  0.00     0.089 I  
HETATM    9  C   UNL     1      -7.280   3.661  66.027  1.00  0.00    -0.068 A  
HETATM   10  C   UNL     1      -8.203   4.899  64.139  1.00  0.00    -0.122 A  
HETATM   11  C   UNL     1      -7.905   3.686  64.772  1.00  0.00    -0.082 A  
HETATM   12  I   UNL     1      -7.194   1.760  66.942  1.00  0.00    -0.053 I  
ENDROOT
BRANCH   7  13
HETATM   13  N   UNL     1      -6.332   4.908  67.960  1.00  0.00    -0.035 N  
HETATM   14  O   UNL     1      -8.304   4.653  69.157  1.00  0.00    -0.079 OA 
HETATM   15  C   UNL     1      -7.083   4.779  69.119  1.00  0.00    -0.052 C  
HETATM   16  H   UNL     1      -5.324   5.038  68.043  1.00  0.00     0.000 HD 
BRANCH  15  17
HETATM   17  C   UNL     1      -6.246   4.644  70.385  1.00  0.00    -0.022 C  
BRANCH  17  18
HETATM   18  C   UNL     1      -5.137   5.694  70.394  1.00  0.00    -0.005 C  
BRANCH  18  19
HETATM   19  C   UNL     1      -5.535   7.047  70.992  1.00  0.00    -0.027 C  
BRANCH  19  20
HETATM   20  C   UNL     1      -6.767   7.019  71.903  1.00  0.00    -0.056 C  
BRANCH  20  21
HETATM   21  C   UNL     1      -7.725   8.150  71.543  1.00  0.00    -0.092 C  
HETATM   22  N   UNL     1      -7.877   8.334  70.176  1.00  0.00    -0.094 N  
HETATM   23  O   UNL     1      -8.236   8.865  72.397  1.00  0.00    -0.384 OA 
HETATM   24  H   UNL     1      -7.366   7.731  69.533  1.00  0.00     0.000 HD 
BRANCH  22  25
HETATM   25  C   UNL     1      -8.733   9.347  69.650  1.00  0.00    -0.167 A  
HETATM   26  C   UNL     1     -10.107   9.139  69.454  1.00  0.00    -0.197 A  
HETATM   27  I   UNL     1     -11.051   7.247  69.585  1.00  0.00     0.015 I  
HETATM   28  C   UNL     1     -10.921  10.170  68.974  1.00  0.00    -0.265 A  
HETATM   29  C   UNL     1     -10.372  11.408  68.613  1.00  0.00    -0.203 A  
HETATM   30  I   UNL     1     -11.769  12.771  67.801  1.00  0.00    -0.264 I  
HETATM   31  C   UNL     1      -8.991  11.641  68.739  1.00  0.00    -0.016 A  
HETATM   32  C   UNL     1      -8.375  12.914  68.263  1.00  0.00    -0.157 C  
HETATM   33  C   UNL     1      -8.180  10.600  69.266  1.00  0.00    -0.115 A  
HETATM   34  O   UNL     1      -7.373  12.951  67.570  1.00  0.00    -0.137 OA 
HETATM   35  I   UNL     1      -6.072  10.892  69.645  1.00  0.00    -0.120 I  
HETATM   36  O   UNL     1      -8.987  14.039  68.692  1.00  0.00    -0.177 OA 
ENDBRANCH  22  25
ENDBRANCH  20  21
ENDBRANCH  19  20
ENDBRANCH  18  19
ENDBRANCH  17  18
ENDBRANCH  15  17
ENDBRANCH   7  13
TORSDOF 7
ENDMDL
MODEL      185
REMARK 921   NORMALIZED FREE ENERGY PREDICTED BY IDOCK:   -2.73 KCAL/MOL
REMARK 922        TOTAL FREE ENERGY PREDICTED BY IDOCK:   -4.77 KCAL/MOL
REMARK 923 INTER-LIGAND FREE ENERGY PREDICTED BY IDOCK:   -4.18 KCAL/MOL
REMARK 924 INTRA-LIGAND FREE ENERGY PREDICTED BY IDOCK:   -0.59 KCAL/MOL
REMARK 927      BINDING AFFINITY PREDICTED BY RF-SCORE:    0.00 PKD
ROOT
HETATM    1  O   UNL     1     -10.794  15.803  64.512  1.00  0.00    -0.467 OA 
HETATM    2  C   UNL     1     -10.641  15.204  65.713  1.00  0.00    -0.351 C  
HETATM    3  C   UNL     1     -10.125  13.810  65.648  1.00  0.00    -0.315 A  
HETATM    4  O   UNL     1     -10.860  15.790  66.758  1.00  0.00    -0.316 OA 
HETATM    5  C   UNL     1      -9.042  13.397  66.472  1.00  0.00    -0.113 A  
HETATM    6  I   UNL     1      -7.975  14.809  67.711  1.00  0.00    -0.228 I  
HETATM    7  C   UNL     1      -8.557  12.059  66.452  1.00  0.00    -0.037 A  
HETATM    8  I   UNL     1     -12.451  13.196  63.640  1.00  0.00     0.070 I  
HETATM    9  C   UNL     1      -9.185  11.131  65.602  1.00  0.00    -0.218 A  
HETATM   10  C   UNL     1     -10.731  12.848  64.821  1.00  0.00    -0.333 A  
HETATM   11  C   UNL     1     -10.252  11.532  64.786  1.00  0.00    -0.331 A  
HETATM   12  I   UNL     1      -8.816   9.052  65.624  1.00  0.00    -0.235 I  
ENDROOT
BRANCH   7  13
HETATM   13  N   UNL     1      -7.509  11.698  67.351  1.00  0.00    -0.126 N  
HETATM   14  O   UNL     1      -5.754  11.940  65.852  1.00  0.00     0.121 OA 
HETATM   15  C   UNL     1      -6.174  11.685  66.978  1.00  0.00    -0.144 C  
HETATM   16  H   UNL     1      -7.753  11.439  68.307  1.00  0.00     0.000 HD 
BRANCH  15  17
HETATM   17  C   UNL     1      -5.211  11.476  68.139  1.00  0.00    -0.043 C  
BRANCH  17  18
HETATM   18  C   UNL     1      -5.524  10.160  68.848  1.00  0.00    -0.034 C  
BRANCH  18  19
HETATM   19  C   UNL     1      -5.660  10.263  70.371  1.00  0.00    -0.068 C  
BRANCH  19  20
HETATM   20  C   UNL     1      -5.752   8.923  71.108  1.00  0.00    -0.043 C  
BRANCH  20  21
HETATM   21  C   UNL     1      -6.556   7.917  70.292  1.00  0.00    -0.037 C  
HETATM   22  N   UNL     1      -5.819   6.811  69.893  1.00  0.00    -0.022 N  
HETATM   23  O   UNL     1      -7.719   8.126  69.964  1.00  0.00    -0.082 OA 
HETATM   24  H   UNL     1      -4.837   6.745  70.159  1.00  0.00     0.000 HD 
BRANCH  22  25
HETATM   25  C   UNL     1      -6.403   5.764  69.119  1.00  0.00    -0.040 A  
HETATM   26  C   UNL     1      -6.211   5.662  67.733  1.00  0.00    -0.033 A  
HETATM   27  I   UNL     1      -5.331   7.178  66.543  1.00  0.00    -0.024 I  
HETATM   28  C   UNL     1      -6.766   4.599  67.014  1.00  0.00    -0.051 A  
HETATM   29  C   UNL     1      -7.582   3.653  67.650  1.00  0.00    -0.070 A  
HETATM   30  I   UNL     1      -8.409   2.207  66.347  1.00  0.00    -0.112 I  
HETATM   31  C   UNL     1      -7.848   3.749  69.027  1.00  0.00    -0.052 A  
HETATM   32  C   UNL     1      -8.797   2.814  69.699  1.00  0.00    -0.088 C  
HETATM   33  C   UNL     1      -7.246   4.810  69.755  1.00  0.00    -0.055 A  
HETATM   34  O   UNL     1      -9.681   3.187  70.449  1.00  0.00    -0.153 OA 
HETATM   35  I   UNL     1      -7.459   4.975  71.899  1.00  0.00    -0.096 I  
HETATM   36  O   UNL     1      -8.580   1.504  69.448  1.00  0.00    -0.048 OA 
ENDBRANCH  22  25
ENDBRANCH  20  21
ENDBRANCH  19  20
ENDBRANCH  18  19
ENDBRANCH  17  18
ENDBRANCH  15  17
ENDBRANCH   7  13
TORSDOF 7
ENDMDL
MODEL      186
REMARK 921   NORMALIZED FREE ENERGY PREDICTED BY IDOCK:   -2.72 KCAL/MOL
REMARK 922        TOTAL FREE ENERGY PREDICTED BY IDOCK:   -4.75 KCAL/MOL
REMARK 923 INTER-LIGAND FREE ENERGY PREDICTED BY IDOCK:   -3.72 KCAL/MOL
REMARK 924 INTRA-LIGAND FREE ENERGY PREDICTED BY IDOCK:   -1.03 KCAL/MOL
REMARK 927      BINDING AFFINITY PREDICTED BY RF-SCORE:    0.00 PKD
ROOT
HETATM    1  O   UNL     1      -8.467   5.354  64.383  1.00  0.00    -0.139 OA 
HETATM    2  C   UNL     1      -8.603   5.154  65.712  1.00  0.00    -0.135 C  
HETATM    3  C   UNL     1      -7.985   6.205  66.563  1.00  0.00    -0.105 A  
HETATM    4  O   UNL     1      -9.232   4.212  66.161  1.00  0.00    -0.133 OA 
HETATM    5  C   UNL     1      -8.713   6.794  67.632  1.00  0.00    -0.119 A  
HETATM    6  I   UNL     1     -10.799   6.335  67.956  1.00  0.00    -0.237 I  
HETATM    7  C   UNL     1      -8.129   7.777  68.482  1.00  0.00    -0.123 A  
HETATM    8  I   UNL     1      -5.333   5.742  64.959  1.00  0.00    -0.010 I  
HETATM    9  C   UNL     1      -6.792   8.150  68.254  1.00  0.00    -0.069 A  
HETATM   10  C   UNL     1      -6.649   6.600  66.376  1.00  0.00    -0.044 A  
HETATM   11  C   UNL     1      -6.069   7.574  67.199  1.00  0.00    -0.051 A  
HETATM   12  I   UNL     1      -5.653   9.364  69.553  1.00  0.00    -0.033 I  
ENDROOT
BRANCH   7  13
HETATM   13  N   UNL     1      -8.895   8.279  69.575  1.00  0.00    -0.148 N  
HETATM   14  O   UNL     1      -8.139   6.769  71.168  1.00  0.00    -0.109 OA 
HETATM   15  C   UNL     1      -8.824   7.739  70.850  1.00  0.00    -0.142 C  
HETATM   16  H   UNL     1      -9.521   9.068  69.413  1.00  0.00     0.000 HD 
BRANCH  15  17
HETATM   17  C   UNL     1      -9.559   8.552  71.907  1.00  0.00    -0.353 C  
BRANCH  17  18
HETATM   18  C   UNL     1     -11.067   8.371  71.752  1.00  0.00    -0.358 C  
BRANCH  18  19
HETATM   19  C   UNL     1     -11.741   9.360  70.795  1.00  0.00    -0.349 C  
BRANCH  19  20
HETATM   20  C   UNL     1     -11.875  10.790  71.327  1.00  0.00    -0.177 C  
BRANCH  20  21
HETATM   21  C   UNL     1     -12.069  11.773  70.177  1.00  0.00    -0.317 C  
HETATM   22  N   UNL     1     -10.877  12.217  69.620  1.00  0.00    -0.436 N  
HETATM   23  O   UNL     1     -13.178  12.180  69.848  1.00  0.00     0.919 OA 
HETATM   24  H   UNL     1      -9.994  11.872  69.995  1.00  0.00     0.000 HD 
BRANCH  22  25
HETATM   25  C   UNL     1     -10.860  13.142  68.534  1.00  0.00    -0.262 A  
HETATM   26  C   UNL     1     -10.741  12.727  67.198  1.00  0.00    -0.245 A  
HETATM   27  I   UNL     1     -10.250  10.752  66.610  1.00  0.00    -0.289 I  
HETATM   28  C   UNL     1     -10.768  13.661  66.158  1.00  0.00    -0.286 A  
HETATM   29  C   UNL     1     -10.844  15.034  66.430  1.00  0.00    -0.326 A  
HETATM   30  I   UNL     1     -10.749  16.263  64.712  1.00  0.00     0.833 I  
HETATM   31  C   UNL     1     -10.907  15.498  67.756  1.00  0.00    -0.309 A  
HETATM   32  C   UNL     1     -10.882  16.957  68.067  1.00  0.00    -0.338 C  
HETATM   33  C   UNL     1     -10.919  14.538  68.803  1.00  0.00    -0.250 A  
HETATM   34  O   UNL     1     -10.155  17.445  68.914  1.00  0.00    -0.316 OA 
HETATM   35  I   UNL     1     -11.162  15.122  70.870  1.00  0.00    -0.144 I  
HETATM   36  O   UNL     1     -11.761  17.705  67.365  1.00  0.00     0.882 OA 
ENDBRANCH  22  25
ENDBRANCH  20  21
ENDBRANCH  19  20
ENDBRANCH  18  19
ENDBRANCH  17  18
ENDBRANCH  15  17
ENDBRANCH   7  13
TORSDOF 7
ENDMDL
MODEL      187
REMARK 921   NORMALIZED FREE ENERGY PREDICTED BY IDOCK:   -2.70 KCAL/MOL
REMARK 922        TOTAL FREE ENERGY PREDICTED BY IDOCK:   -4.72 KCAL/MOL
REMARK 923 INTER-LIGAND FREE ENERGY PREDICTED BY IDOCK:   -3.31 KCAL/MOL
REMARK 924 INTRA-LIGAND FREE ENERGY PREDICTED BY IDOCK:   -1.41 KCAL/MOL
REMARK 927      BINDING AFFINITY PREDICTED BY RF-SCORE:    0.00 PKD
ROOT
HETATM    1  O   UNL     1     -13.589  15.848  70.858  1.00  0.00    -0.412 OA 
HETATM    2  C   UNL     1     -12.288  15.485  70.889  1.00  0.00    -0.422 C  
HETATM    3  C   UNL     1     -12.019  14.102  70.413  1.00  0.00    -0.400 A  
HETATM    4  O   UNL     1     -11.411  16.258  71.232  1.00  0.00    -0.371 OA 
HETATM    5  C   UNL     1     -10.990  13.847  69.466  1.00  0.00    -0.063 A  
HETATM    6  I   UNL     1      -9.896  15.462  68.537  1.00  0.00    -0.230 I  
HETATM    7  C   UNL     1     -10.693  12.527  69.023  1.00  0.00    -0.097 A  
HETATM    8  I   UNL     1     -14.185  13.131  72.459  1.00  0.00     1.274 I  
HETATM    9  C   UNL     1     -11.435  11.458  69.558  1.00  0.00    -0.312 A  
HETATM   10  C   UNL     1     -12.731  13.004  70.928  1.00  0.00    -0.217 A  
HETATM   11  C   UNL     1     -12.454  11.703  70.489  1.00  0.00    -0.344 A  
HETATM   12  I   UNL     1     -10.976   9.419  69.258  1.00  0.00     0.074 I  
ENDROOT
BRANCH   7  13
HETATM   13  N   UNL     1      -9.604  12.336  68.121  1.00  0.00    -0.209 N  
HETATM   14  O   UNL     1     -10.875  12.065  66.198  1.00  0.00    -0.264 OA 
HETATM   15  C   UNL     1      -9.786  12.136  66.761  1.00  0.00    -0.207 C  
HETATM   16  H   UNL     1      -8.654  12.348  68.491  1.00  0.00     0.000 HD 
BRANCH  15  17
HETATM   17  C   UNL     1      -8.494  12.165  65.955  1.00  0.00     0.352 C  
BRANCH  17  18
HETATM   18  C   UNL     1      -7.353  12.705  66.815  1.00  0.00     0.352 C  
BRANCH  18  19
HETATM   19  C   UNL     1      -6.138  11.778  66.931  1.00  0.00    -0.140 C  
BRANCH  19  20
HETATM   20  C   UNL     1      -6.388  10.471  67.690  1.00  0.00    -0.056 C  
BRANCH  20  21
HETATM   21  C   UNL     1      -6.350   9.282  66.736  1.00  0.00    -0.066 C  
HETATM   22  N   UNL     1      -7.608   8.803  66.396  1.00  0.00    -0.090 N  
HETATM   23  O   UNL     1      -5.296   8.765  66.382  1.00  0.00    -0.033 OA 
HETATM   24  H   UNL     1      -8.434   9.255  66.785  1.00  0.00     0.000 HD 
BRANCH  22  25
HETATM   25  C   UNL     1      -7.771   7.693  65.515  1.00  0.00    -0.101 A  
HETATM   26  C   UNL     1      -7.703   7.829  64.119  1.00  0.00    -0.125 A  
HETATM   27  I   UNL     1      -7.682   9.691  63.109  1.00  0.00    -0.154 I  
HETATM   28  C   UNL     1      -7.828   6.711  63.289  1.00  0.00    -0.108 A  
HETATM   29  C   UNL     1      -8.092   5.444  63.827  1.00  0.00    -0.121 A  
HETATM   30  I   UNL     1      -8.360   3.926  62.379  1.00  0.00    -0.082 I  
HETATM   31  C   UNL     1      -8.224   5.271  65.216  1.00  0.00    -0.130 A  
HETATM   32  C   UNL     1      -8.609   3.953  65.799  1.00  0.00    -0.111 C  
HETATM   33  C   UNL     1      -8.056   6.407  66.053  1.00  0.00    -0.120 A  
HETATM   34  O   UNL     1      -9.483   3.824  66.638  1.00  0.00    -0.184 OA 
HETATM   35  I   UNL     1      -8.090   6.240  68.208  1.00  0.00    -0.112 I  
HETATM   36  O   UNL     1      -7.885   2.902  65.357  1.00  0.00    -0.080 OA 
ENDBRANCH  22  25
ENDBRANCH  20  21
ENDBRANCH  19  20
ENDBRANCH  18  19
ENDBRANCH  17  18
ENDBRANCH  15  17
ENDBRANCH   7  13
TORSDOF 7
ENDMDL
MODEL      188
REMARK 921   NORMALIZED FREE ENERGY PREDICTED BY IDOCK:   -2.68 KCAL/MOL
REMARK 922        TOTAL FREE ENERGY PREDICTED BY IDOCK:   -4.70 KCAL/MOL
REMARK 923 INTER-LIGAND FREE ENERGY PREDICTED BY IDOCK:   -3.42 KCAL/MOL
REMARK 924 INTRA-LIGAND FREE ENERGY PREDICTED BY IDOCK:   -1.28 KCAL/MOL
REMARK 927      BINDING AFFINITY PREDICTED BY RF-SCORE:    0.00 PKD
ROOT
HETATM    1  O   UNL     1      -8.167  13.643  66.797  1.00  0.00    -0.016 OA 
HETATM    2  C   UNL     1      -8.355  13.058  68.000  1.00  0.00    -0.169 C  
HETATM    3  C   UNL     1      -8.823  11.647  67.936  1.00  0.00    -0.155 A  
HETATM    4  O   UNL     1      -8.105  13.634  69.043  1.00  0.00     0.030 OA 
HETATM    5  C   UNL     1      -8.190  10.636  68.708  1.00  0.00    -0.142 A  
HETATM    6  I   UNL     1      -6.411  11.055  69.861  1.00  0.00    -0.084 I  
HETATM    7  C   UNL     1      -8.644   9.287  68.689  1.00  0.00    -0.127 A  
HETATM    8  I   UNL     1     -11.130  12.649  66.066  1.00  0.00    -0.381 I  
HETATM    9  C   UNL     1      -9.759   8.967  67.893  1.00  0.00    -0.160 A  
HETATM   10  C   UNL     1      -9.939  11.287  67.160  1.00  0.00    -0.192 A  
HETATM   11  C   UNL     1     -10.386   9.959  67.126  1.00  0.00    -0.304 A  
HETATM   12  I   UNL     1     -10.762   7.110  67.936  1.00  0.00    -0.151 I  
ENDROOT
BRANCH   7  13
HETATM   13  N   UNL     1      -8.003   8.337  69.538  1.00  0.00    -0.110 N  
HETATM   14  O   UNL     1      -9.106   8.917  71.496  1.00  0.00    -0.233 OA 
HETATM   15  C   UNL     1      -8.303   8.216  70.887  1.00  0.00    -0.121 C  
HETATM   16  H   UNL     1      -7.295   7.721  69.137  1.00  0.00     0.000 HD 
BRANCH  15  17
HETATM   17  C   UNL     1      -7.660   7.007  71.556  1.00  0.00    -0.089 C  
BRANCH  17  18
HETATM   18  C   UNL     1      -6.169   7.258  71.768  1.00  0.00    -0.037 C  
BRANCH  18  19
HETATM   19  C   UNL     1      -5.245   6.506  70.804  1.00  0.00    -0.018 C  
BRANCH  19  20
HETATM   20  C   UNL     1      -5.673   5.072  70.477  1.00  0.00    -0.016 C  
BRANCH  20  21
HETATM   21  C   UNL     1      -6.538   5.045  69.221  1.00  0.00    -0.047 C  
HETATM   22  N   UNL     1      -5.806   4.961  68.045  1.00  0.00    -0.021 N  
HETATM   23  O   UNL     1      -7.757   5.169  69.268  1.00  0.00    -0.074 OA 
HETATM   24  H   UNL     1      -4.789   4.923  68.094  1.00  0.00     0.000 HD 
BRANCH  22  25
HETATM   25  C   UNL     1      -6.444   4.926  66.770  1.00  0.00    -0.041 A  
HETATM   26  C   UNL     1      -7.064   3.769  66.274  1.00  0.00    -0.063 A  
HETATM   27  I   UNL     1      -6.875   1.852  67.156  1.00  0.00    -0.040 I  
HETATM   28  C   UNL     1      -7.714   3.784  65.036  1.00  0.00    -0.085 A  
HETATM   29  C   UNL     1      -7.701   4.934  64.234  1.00  0.00    -0.080 A  
HETATM   30  I   UNL     1      -8.642   4.691  62.357  1.00  0.00    -0.116 I  
HETATM   31  C   UNL     1      -7.043   6.099  64.666  1.00  0.00    -0.057 A  
HETATM   32  C   UNL     1      -6.929   7.296  63.783  1.00  0.00    -0.058 C  
HETATM   33  C   UNL     1      -6.420   6.084  65.943  1.00  0.00    -0.043 A  
HETATM   34  O   UNL     1      -5.883   7.892  63.600  1.00  0.00    -0.056 OA 
HETATM   35  I   UNL     1      -5.508   7.857  66.777  1.00  0.00    -0.033 I  
HETATM   36  O   UNL     1      -8.089   7.705  63.224  1.00  0.00    -0.129 OA 
ENDBRANCH  22  25
ENDBRANCH  20  21
ENDBRANCH  19  20
ENDBRANCH  18  19
ENDBRANCH  17  18
ENDBRANCH  15  17
ENDBRANCH   7  13
TORSDOF 7
ENDMDL
MODEL      189
REMARK 921   NORMALIZED FREE ENERGY PREDICTED BY IDOCK:   -2.63 KCAL/MOL
REMARK 922        TOTAL FREE ENERGY PREDICTED BY IDOCK:   -4.62 KCAL/MOL
REMARK 923 INTER-LIGAND FREE ENERGY PREDICTED BY IDOCK:   -3.98 KCAL/MOL
REMARK 924 INTRA-LIGAND FREE ENERGY PREDICTED BY IDOCK:   -0.64 KCAL/MOL
REMARK 927      BINDING AFFINITY PREDICTED BY RF-SCORE:    0.00 PKD
ROOT
HETATM    1  O   UNL     1     -12.053  15.820  66.748  1.00  0.00     0.630 OA 
HETATM    2  C   UNL     1     -10.993  15.062  66.389  1.00  0.00    -0.336 C  
HETATM    3  C   UNL     1      -9.785  15.245  67.239  1.00  0.00    -0.212 A  
HETATM    4  O   UNL     1     -11.054  14.259  65.475  1.00  0.00    -0.306 OA 
HETATM    5  C   UNL     1      -9.088  14.122  67.761  1.00  0.00    -0.190 A  
HETATM    6  I   UNL     1      -9.847  12.114  67.509  1.00  0.00    -0.215 I  
HETATM    7  C   UNL     1      -7.911  14.273  68.547  1.00  0.00    -0.143 A  
HETATM    8  I   UNL     1     -10.040  18.319  66.688  1.00  0.00    -0.426 I  
HETATM    9  C   UNL     1      -7.429  15.573  68.789  1.00  0.00    -0.141 A  
HETATM   10  C   UNL     1      -9.265  16.526  67.497  1.00  0.00    -0.202 A  
HETATM   11  C   UNL     1      -8.114  16.684  68.279  1.00  0.00    -0.198 A  
HETATM   12  I   UNL     1      -5.564  16.008  69.678  1.00  0.00    -0.153 I  
ENDROOT
BRANCH   7  13
HETATM   13  N   UNL     1      -7.225  13.101  68.985  1.00  0.00    -0.261 N  
HETATM   14  O   UNL     1      -5.721  12.977  67.222  1.00  0.00    -0.334 OA 
HETATM   15  C   UNL     1      -6.160  12.552  68.287  1.00  0.00    -0.065 C  
HETATM   16  H   UNL     1      -7.530  12.649  69.847  1.00  0.00     0.000 HD 
BRANCH  15  17
HETATM   17  C   UNL     1      -5.444  11.434  69.034  1.00  0.00    -0.039 C  
BRANCH  17  18
HETATM   18  C   UNL     1      -6.290  10.163  69.010  1.00  0.00    -0.044 C  
BRANCH  18  19
HETATM   19  C   UNL     1      -6.895   9.765  70.360  1.00  0.00    -0.135 C  
BRANCH  19  20
HETATM   20  C   UNL     1      -6.867   8.264  70.668  1.00  0.00    -0.038 C  
BRANCH  20  21
HETATM   21  C   UNL     1      -6.637   7.460  69.393  1.00  0.00    -0.037 C  
HETATM   22  N   UNL     1      -7.783   6.846  68.910  1.00  0.00    -0.108 N  
HETATM   23  O   UNL     1      -5.520   7.318  68.907  1.00  0.00    -0.017 OA 
HETATM   24  H   UNL     1      -8.662   6.967  69.412  1.00  0.00     0.000 HD 
BRANCH  22  25
HETATM   25  C   UNL     1      -7.761   6.048  67.727  1.00  0.00    -0.101 A  
HETATM   26  C   UNL     1      -7.726   6.615  66.443  1.00  0.00    -0.102 A  
HETATM   27  I   UNL     1      -8.027   8.674  66.047  1.00  0.00    -0.121 I  
HETATM   28  C   UNL     1      -7.664   5.801  65.308  1.00  0.00    -0.093 A  
HETATM   29  C   UNL     1      -7.706   4.404  65.424  1.00  0.00    -0.086 A  
HETATM   30  I   UNL     1      -7.722   3.382  63.574  1.00  0.00    -0.069 I  
HETATM   31  C   UNL     1      -7.799   3.795  66.688  1.00  0.00    -0.088 A  
HETATM   32  C   UNL     1      -7.951   2.317  66.825  1.00  0.00    -0.072 C  
HETATM   33  C   UNL     1      -7.821   4.631  67.837  1.00  0.00    -0.082 A  
HETATM   34  O   UNL     1      -8.785   1.797  67.545  1.00  0.00    -0.086 OA 
HETATM   35  I   UNL     1      -7.812   3.808  69.835  1.00  0.00    -0.061 I  
HETATM   36  O   UNL     1      -7.062   1.585  66.119  1.00  0.00    -0.047 OA 
ENDBRANCH  22  25
ENDBRANCH  20  21
ENDBRANCH  19  20
ENDBRANCH  18  19
ENDBRANCH  17  18
ENDBRANCH  15  17
ENDBRANCH   7  13
TORSDOF 7
ENDMDL
MODEL      190
REMARK 921   NORMALIZED FREE ENERGY PREDICTED BY IDOCK:   -2.61 KCAL/MOL
REMARK 922        TOTAL FREE ENERGY PREDICTED BY IDOCK:   -4.60 KCAL/MOL
REMARK 923 INTER-LIGAND FREE ENERGY PREDICTED BY IDOCK:   -3.91 KCAL/MOL
REMARK 924 INTRA-LIGAND FREE ENERGY PREDICTED BY IDOCK:   -0.69 KCAL/MOL
REMARK 927      BINDING AFFINITY PREDICTED BY RF-SCORE:    0.00 PKD
ROOT
HETATM    1  O   UNL     1      -8.515  18.831  67.783  1.00  0.00    -0.269 OA 
HETATM    2  C   UNL     1      -9.079  17.703  68.269  1.00  0.00    -0.276 C  
HETATM    3  C   UNL     1      -9.515  16.732  67.230  1.00  0.00    -0.231 A  
HETATM    4  O   UNL     1      -9.166  17.490  69.465  1.00  0.00     0.240 OA 
HETATM    5  C   UNL     1      -9.167  15.357  67.330  1.00  0.00    -0.207 A  
HETATM    6  I   UNL     1      -7.840  14.646  68.879  1.00  0.00    -0.064 I  
HETATM    7  C   UNL     1      -9.604  14.405  66.366  1.00  0.00    -0.299 A  
HETATM    8  I   UNL     1     -11.105  19.084  65.904  1.00  0.00     1.212 I  
HETATM    9  C   UNL     1     -10.413  14.848  65.305  1.00  0.00    -0.404 A  
HETATM   10  C   UNL     1     -10.333  17.132  66.159  1.00  0.00    -0.322 A  
HETATM   11  C   UNL     1     -10.757  16.204  65.199  1.00  0.00    -0.391 A  
HETATM   12  I   UNL     1     -11.395  13.573  63.938  1.00  0.00     0.159 I  
ENDROOT
BRANCH   7  13
HETATM   13  N   UNL     1      -9.272  13.031  66.563  1.00  0.00    -0.379 N  
HETATM   14  O   UNL     1     -10.941  12.554  68.103  1.00  0.00    -0.208 OA 
HETATM   15  C   UNL     1      -9.988  12.202  67.413  1.00  0.00    -0.199 C  
HETATM   16  H   UNL     1      -8.476  12.643  66.057  1.00  0.00     0.000 HD 
BRANCH  15  17
HETATM   17  C   UNL     1      -9.598  10.733  67.315  1.00  0.00    -0.182 C  
BRANCH  17  18
HETATM   18  C   UNL     1     -10.651   9.865  68.001  1.00  0.00    -0.288 C  
BRANCH  18  19
HETATM   19  C   UNL     1     -10.367   9.546  69.472  1.00  0.00    -0.229 C  
BRANCH  19  20
HETATM   20  C   UNL     1      -8.912   9.742  69.911  1.00  0.00    -0.254 C  
BRANCH  20  21
HETATM   21  C   UNL     1      -8.330   8.435  70.437  1.00  0.00    -0.121 C  
HETATM   22  N   UNL     1      -9.294   7.503  70.795  1.00  0.00    -0.162 N  
HETATM   23  O   UNL     1      -7.124   8.277  70.596  1.00  0.00    -0.040 OA 
HETATM   24  H   UNL     1     -10.279   7.740  70.687  1.00  0.00     0.000 HD 
BRANCH  22  25
HETATM   25  C   UNL     1      -8.938   6.221  71.311  1.00  0.00    -0.139 A  
HETATM   26  C   UNL     1      -8.861   5.964  72.689  1.00  0.00    -0.121 A  
HETATM   27  I   UNL     1      -8.929   7.467  74.181  1.00  0.00    -0.085 I  
HETATM   28  C   UNL     1      -8.548   4.685  73.157  1.00  0.00    -0.102 A  
HETATM   29  C   UNL     1      -8.237   3.650  72.264  1.00  0.00    -0.083 A  
HETATM   30  I   UNL     1      -7.679   1.838  73.198  1.00  0.00    -0.038 I  
HETATM   31  C   UNL     1      -8.247   3.878  70.877  1.00  0.00    -0.077 A  
HETATM   32  C   UNL     1      -7.818   2.820  69.916  1.00  0.00    -0.042 C  
HETATM   33  C   UNL     1      -8.605   5.172  70.411  1.00  0.00    -0.113 A  
HETATM   34  O   UNL     1      -7.036   3.025  69.005  1.00  0.00    -0.043 OA 
HETATM   35  I   UNL     1      -8.799   5.601  68.301  1.00  0.00    -0.113 I  
HETATM   36  O   UNL     1      -8.394   1.613  70.103  1.00  0.00    -0.041 OA 
ENDBRANCH  22  25
ENDBRANCH  20  21
ENDBRANCH  19  20
ENDBRANCH  18  19
ENDBRANCH  17  18
ENDBRANCH  15  17
ENDBRANCH   7  13
TORSDOF 7
ENDMDL
MODEL      191
REMARK 921   NORMALIZED FREE ENERGY PREDICTED BY IDOCK:   -2.58 KCAL/MOL
REMARK 922        TOTAL FREE ENERGY PREDICTED BY IDOCK:   -4.55 KCAL/MOL
REMARK 923 INTER-LIGAND FREE ENERGY PREDICTED BY IDOCK:   -4.24 KCAL/MOL
REMARK 924 INTRA-LIGAND FREE ENERGY PREDICTED BY IDOCK:   -0.32 KCAL/MOL
REMARK 927      BINDING AFFINITY PREDICTED BY RF-SCORE:    0.00 PKD
ROOT
HETATM    1  O   UNL     1     -10.181  10.405  62.637  1.00  0.00     0.083 OA 
HETATM    2  C   UNL     1      -9.329  11.137  63.389  1.00  0.00    -0.268 C  
HETATM    3  C   UNL     1      -9.756  11.326  64.801  1.00  0.00    -0.298 A  
HETATM    4  O   UNL     1      -8.274  11.555  62.946  1.00  0.00     0.192 OA 
HETATM    5  C   UNL     1      -8.851  11.090  65.871  1.00  0.00    -0.195 A  
HETATM    6  I   UNL     1      -6.884  10.269  65.516  1.00  0.00    -0.064 I  
HETATM    7  C   UNL     1      -9.228  11.299  67.228  1.00  0.00    -0.166 A  
HETATM    8  I   UNL     1     -12.490  12.374  63.683  1.00  0.00    -0.319 I  
HETATM    9  C   UNL     1     -10.527  11.767  67.498  1.00  0.00    -0.202 A  
HETATM   10  C   UNL     1     -11.042  11.802  65.114  1.00  0.00    -0.282 A  
HETATM   11  C   UNL     1     -11.425  11.999  66.447  1.00  0.00    -0.417 A  
HETATM   12  I   UNL     1     -11.194  12.408  69.396  1.00  0.00    -0.008 I  
ENDROOT
BRANCH   7  13
HETATM   13  N   UNL     1      -8.249  11.104  68.248  1.00  0.00    -0.127 N  
HETATM   14  O   UNL     1      -7.414  13.269  68.256  1.00  0.00    -0.106 OA 
HETATM   15  C   UNL     1      -7.423  12.123  68.697  1.00  0.00    -0.105 C  
HETATM   16  H   UNL     1      -8.154  10.177  68.664  1.00  0.00     0.000 HD 
BRANCH  15  17
HETATM   17  C   UNL     1      -6.603  11.756  69.927  1.00  0.00    -0.000 C  
BRANCH  17  18
HETATM   18  C   UNL     1      -6.416  10.242  69.999  1.00  0.00    -0.116 C  
BRANCH  18  19
HETATM   19  C   UNL     1      -7.428   9.507  70.885  1.00  0.00    -0.043 C  
BRANCH  19  20
HETATM   20  C   UNL     1      -8.600   8.864  70.137  1.00  0.00    -0.161 C  
BRANCH  20  21
HETATM   21  C   UNL     1      -8.092   7.866  69.102  1.00  0.00    -0.124 C  
HETATM   22  N   UNL     1      -8.312   6.541  69.452  1.00  0.00    -0.122 N  
HETATM   23  O   UNL     1      -7.479   8.222  68.102  1.00  0.00    -0.093 OA 
HETATM   24  H   UNL     1      -8.778   6.331  70.335  1.00  0.00     0.000 HD 
BRANCH  22  25
HETATM   25  C   UNL     1      -7.902   5.467  68.608  1.00  0.00    -0.091 A  
HETATM   26  C   UNL     1      -6.693   4.782  68.802  1.00  0.00    -0.050 A  
HETATM   27  I   UNL     1      -5.168   5.420  70.128  1.00  0.00    -0.005 I  
HETATM   28  C   UNL     1      -6.344   3.708  67.978  1.00  0.00    -0.037 A  
HETATM   29  C   UNL     1      -7.159   3.337  66.899  1.00  0.00    -0.058 A  
HETATM   30  I   UNL     1      -6.375   1.767  65.721  1.00  0.00    -0.024 I  
HETATM   31  C   UNL     1      -8.351   4.033  66.633  1.00  0.00    -0.104 A  
HETATM   32  C   UNL     1      -9.177   3.721  65.430  1.00  0.00    -0.152 C  
HETATM   33  C   UNL     1      -8.716   5.097  67.501  1.00  0.00    -0.103 A  
HETATM   34  O   UNL     1      -9.602   4.577  64.674  1.00  0.00    -0.146 OA 
HETATM   35  I   UNL     1     -10.596   6.142  67.282  1.00  0.00    -0.432 I  
HETATM   36  O   UNL     1      -9.458   2.412  65.255  1.00  0.00    -0.093 OA 
ENDBRANCH  22  25
ENDBRANCH  20  21
ENDBRANCH  19  20
ENDBRANCH  18  19
ENDBRANCH  17  18
ENDBRANCH  15  17
ENDBRANCH   7  13
TORSDOF 7
ENDMDL
MODEL      192
REMARK 921   NORMALIZED FREE ENERGY PREDICTED BY IDOCK:   -2.44 KCAL/MOL
REMARK 922        TOTAL FREE ENERGY PREDICTED BY IDOCK:   -4.36 KCAL/MOL
REMARK 923 INTER-LIGAND FREE ENERGY PREDICTED BY IDOCK:   -3.27 KCAL/MOL
REMARK 924 INTRA-LIGAND FREE ENERGY PREDICTED BY IDOCK:   -1.09 KCAL/MOL
REMARK 927      BINDING AFFINITY PREDICTED BY RF-SCORE:    0.00 PKD
ROOT
HETATM    1  O   UNL     1      -8.964   1.791  66.169  1.00  0.00    -0.123 OA 
HETATM    2  C   UNL     1      -8.001   2.581  66.691  1.00  0.00    -0.080 C  
HETATM    3  C   UNL     1      -8.502   3.831  67.324  1.00  0.00    -0.103 A  
HETATM    4  O   UNL     1      -6.827   2.258  66.684  1.00  0.00    -0.041 OA 
HETATM    5  C   UNL     1      -8.063   4.214  68.621  1.00  0.00    -0.072 A  
HETATM    6  I   UNL     1      -6.805   2.918  69.807  1.00  0.00    -0.033 I  
HETATM    7  C   UNL     1      -8.502   5.423  69.231  1.00  0.00    -0.099 A  
HETATM    8  I   UNL     1     -10.018   4.411  64.644  1.00  0.00     0.137 I  
HETATM    9  C   UNL     1      -9.379   6.256  68.512  1.00  0.00    -0.121 A  
HETATM   10  C   UNL     1      -9.370   4.696  66.637  1.00  0.00    -0.149 A  
HETATM   11  C   UNL     1      -9.817   5.882  67.234  1.00  0.00    -0.155 A  
HETATM   12  I   UNL     1      -9.924   8.208  69.104  1.00  0.00    -0.211 I  
ENDROOT
BRANCH   7  13
HETATM   13  N   UNL     1      -7.972   5.777  70.508  1.00  0.00    -0.103 N  
HETATM   14  O   UNL     1      -6.058   6.838  69.734  1.00  0.00    -0.025 OA 
HETATM   15  C   UNL     1      -6.787   6.481  70.657  1.00  0.00    -0.063 C  
HETATM   16  H   UNL     1      -8.486   5.502  71.345  1.00  0.00     0.000 HD 
BRANCH  15  17
HETATM   17  C   UNL     1      -6.514   6.934  72.085  1.00  0.00    -0.053 C  
BRANCH  17  18
HETATM   18  C   UNL     1      -5.332   7.901  72.110  1.00  0.00    -0.035 C  
BRANCH  18  19
HETATM   19  C   UNL     1      -5.710   9.385  72.064  1.00  0.00    -0.028 C  
BRANCH  19  20
HETATM   20  C   UNL     1      -5.197  10.150  70.840  1.00  0.00    -0.066 C  
BRANCH  20  21
HETATM   21  C   UNL     1      -6.323  10.954  70.199  1.00  0.00    -0.149 C  
HETATM   22  N   UNL     1      -5.878  11.915  69.302  1.00  0.00    -0.066 N  
HETATM   23  O   UNL     1      -7.496  10.802  70.523  1.00  0.00     0.160 OA 
HETATM   24  H   UNL     1      -4.877  12.015  69.137  1.00  0.00     0.000 HD 
BRANCH  22  25
HETATM   25  C   UNL     1      -6.788  12.766  68.607  1.00  0.00    -0.099 A  
HETATM   26  C   UNL     1      -7.469  12.349  67.452  1.00  0.00    -0.157 A  
HETATM   27  I   UNL     1      -7.026  10.569  66.392  1.00  0.00    -0.134 I  
HETATM   28  C   UNL     1      -8.384  13.197  66.821  1.00  0.00     0.064 A  
HETATM   29  C   UNL     1      -8.589  14.503  67.286  1.00  0.00    -0.215 A  
HETATM   30  I   UNL     1      -9.925  15.642  66.107  1.00  0.00    -0.429 I  
HETATM   31  C   UNL     1      -7.886  14.982  68.405  1.00  0.00    -0.125 A  
HETATM   32  C   UNL     1      -8.012  16.401  68.850  1.00  0.00    -0.236 C  
HETATM   33  C   UNL     1      -6.988  14.098  69.063  1.00  0.00    -0.112 A  
HETATM   34  O   UNL     1      -7.053  17.105  69.110  1.00  0.00    -0.241 OA 
HETATM   35  I   UNL     1      -5.964  14.671  70.878  1.00  0.00     0.148 I  
HETATM   36  O   UNL     1      -9.281  16.845  68.985  1.00  0.00    -0.252 OA 
ENDBRANCH  22  25
ENDBRANCH  20  21
ENDBRANCH  19  20
ENDBRANCH  18  19
ENDBRANCH  17  18
ENDBRANCH  15  17
ENDBRANCH   7  13
TORSDOF 7
ENDMDL
MODEL      193
REMARK 921   NORMALIZED FREE ENERGY PREDICTED BY IDOCK:   -2.38 KCAL/MOL
REMARK 922        TOTAL FREE ENERGY PREDICTED BY IDOCK:   -4.27 KCAL/MOL
REMARK 923 INTER-LIGAND FREE ENERGY PREDICTED BY IDOCK:   -3.54 KCAL/MOL
REMARK 924 INTRA-LIGAND FREE ENERGY PREDICTED BY IDOCK:   -0.73 KCAL/MOL
REMARK 927      BINDING AFFINITY PREDICTED BY RF-SCORE:    0.00 PKD
ROOT
HETATM    1  O   UNL     1      -8.944   1.468  66.047  1.00  0.00    -0.120 OA 
HETATM    2  C   UNL     1      -8.021   2.385  66.411  1.00  0.00    -0.081 C  
HETATM    3  C   UNL     1      -8.586   3.675  66.893  1.00  0.00    -0.112 A  
HETATM    4  O   UNL     1      -6.828   2.142  66.393  1.00  0.00    -0.041 OA 
HETATM    5  C   UNL     1      -8.127   4.261  68.103  1.00  0.00    -0.089 A  
HETATM    6  I   UNL     1      -6.735   3.228  69.393  1.00  0.00    -0.034 I  
HETATM    7  C   UNL     1      -8.628   5.512  68.564  1.00  0.00    -0.102 A  
HETATM    8  I   UNL     1     -10.240   3.778  64.233  1.00  0.00    -0.113 I  
HETATM    9  C   UNL     1      -9.588   6.178  67.782  1.00  0.00    -0.114 A  
HETATM   10  C   UNL     1      -9.540   4.378  66.136  1.00  0.00    -0.190 A  
HETATM   11  C   UNL     1     -10.047   5.603  66.588  1.00  0.00    -0.237 A  
HETATM   12  I   UNL     1     -10.249   8.153  68.129  1.00  0.00    -0.213 I  
ENDROOT
BRANCH   7  13
HETATM   13  N   UNL     1      -8.076   6.073  69.755  1.00  0.00    -0.112 N  
HETATM   14  O   UNL     1      -6.339   7.232  68.742  1.00  0.00    -0.033 OA 
HETATM   15  C   UNL     1      -6.973   6.913  69.744  1.00  0.00    -0.062 C  
HETATM   16  H   UNL     1      -8.512   5.848  70.649  1.00  0.00     0.000 HD 
BRANCH  15  17
HETATM   17  C   UNL     1      -6.680   7.563  71.090  1.00  0.00    -0.046 C  
BRANCH  17  18
HETATM   18  C   UNL     1      -5.477   8.496  70.970  1.00  0.00    -0.032 C  
BRANCH  18  19
HETATM   19  C   UNL     1      -5.819   9.988  70.911  1.00  0.00    -0.088 C  
BRANCH  19  20
HETATM   20  C   UNL     1      -5.575  10.657  69.554  1.00  0.00    -0.038 C  
BRANCH  20  21
HETATM   21  C   UNL     1      -6.620  11.738  69.294  1.00  0.00    -0.112 C  
HETATM   22  N   UNL     1      -6.269  12.616  68.279  1.00  0.00    -0.065 N  
HETATM   23  O   UNL     1      -7.627  11.847  69.984  1.00  0.00     0.813 OA 
HETATM   24  H   UNL     1      -5.380  12.488  67.796  1.00  0.00     0.000 HD 
BRANCH  22  25
HETATM   25  C   UNL     1      -7.122  13.694  67.896  1.00  0.00    -0.149 A  
HETATM   26  C   UNL     1      -6.934  15.001  68.371  1.00  0.00    -0.109 A  
HETATM   27  I   UNL     1      -5.607  15.514  69.941  1.00  0.00    -0.144 I  
HETATM   28  C   UNL     1      -7.767  16.040  67.942  1.00  0.00    -0.149 A  
HETATM   29  C   UNL     1      -8.846  15.786  67.085  1.00  0.00    -0.203 A  
HETATM   30  I   UNL     1     -10.037  17.482  66.665  1.00  0.00    -0.312 I  
HETATM   31  C   UNL     1      -9.105  14.481  66.629  1.00  0.00    -0.277 A  
HETATM   32  C   UNL     1     -10.309  14.174  65.803  1.00  0.00    -0.325 C  
HETATM   33  C   UNL     1      -8.229  13.440  67.040  1.00  0.00    -0.035 A  
HETATM   34  O   UNL     1     -11.058  13.242  66.036  1.00  0.00    -0.282 OA 
HETATM   35  I   UNL     1      -8.437  11.424  66.289  1.00  0.00     0.049 I  
HETATM   36  O   UNL     1     -10.491  14.986  64.739  1.00  0.00    -0.381 OA 
ENDBRANCH  22  25
ENDBRANCH  20  21
ENDBRANCH  19  20
ENDBRANCH  18  19
ENDBRANCH  17  18
ENDBRANCH  15  17
ENDBRANCH   7  13
TORSDOF 7
ENDMDL
MODEL      194
REMARK 921   NORMALIZED FREE ENERGY PREDICTED BY IDOCK:   -2.30 KCAL/MOL
REMARK 922        TOTAL FREE ENERGY PREDICTED BY IDOCK:   -4.16 KCAL/MOL
REMARK 923 INTER-LIGAND FREE ENERGY PREDICTED BY IDOCK:   -3.31 KCAL/MOL
REMARK 924 INTRA-LIGAND FREE ENERGY PREDICTED BY IDOCK:   -0.85 KCAL/MOL
REMARK 927      BINDING AFFINITY PREDICTED BY RF-SCORE:    0.00 PKD
ROOT
HETATM    1  O   UNL     1     -13.695  12.487  73.057  1.00  0.00     0.082 OA 
HETATM    2  C   UNL     1     -13.497  11.851  71.881  1.00  0.00    -0.187 C  
HETATM    3  C   UNL     1     -12.466  12.473  71.007  1.00  0.00    -0.353 A  
HETATM    4  O   UNL     1     -14.084  10.823  71.597  1.00  0.00     0.487 OA 
HETATM    5  C   UNL     1     -11.445  11.683  70.414  1.00  0.00     0.097 A  
HETATM    6  I   UNL     1     -11.225   9.588  70.896  1.00  0.00    -0.480 I  
HETATM    7  C   UNL     1     -10.469  12.251  69.546  1.00  0.00     0.498 A  
HETATM    8  I   UNL     1     -14.026  15.171  71.330  1.00  0.00    -0.251 I  
HETATM    9  C   UNL     1     -10.542  13.628  69.267  1.00  0.00     0.041 A  
HETATM   10  C   UNL     1     -12.508  13.843  70.695  1.00  0.00    -0.366 A  
HETATM   11  C   UNL     1     -11.545  14.414  69.852  1.00  0.00    -0.341 A  
HETATM   12  I   UNL     1      -9.383  14.612  67.802  1.00  0.00    -0.216 I  
ENDROOT
BRANCH   7  13
HETATM   13  N   UNL     1      -9.512  11.388  68.934  1.00  0.00    -0.383 N  
HETATM   14  O   UNL     1     -10.819  10.755  67.124  1.00  0.00    -0.266 OA 
HETATM   15  C   UNL     1      -9.761  10.715  67.747  1.00  0.00    -0.161 C  
HETATM   16  H   UNL     1      -8.607  11.262  69.387  1.00  0.00     0.000 HD 
BRANCH  15  17
HETATM   17  C   UNL     1      -8.539  10.020  67.164  1.00  0.00    -0.128 C  
BRANCH  17  18
HETATM   18  C   UNL     1      -7.385  11.011  67.033  1.00  0.00    -0.123 C  
BRANCH  18  19
HETATM   19  C   UNL     1      -6.226  10.786  68.011  1.00  0.00    -0.057 C  
BRANCH  19  20
HETATM   20  C   UNL     1      -6.626  10.720  69.488  1.00  0.00    -0.099 C  
BRANCH  20  21
HETATM   21  C   UNL     1      -6.318   9.342  70.065  1.00  0.00    -0.044 C  
HETATM   22  N   UNL     1      -7.306   8.863  70.914  1.00  0.00    -0.086 N  
HETATM   23  O   UNL     1      -5.256   8.769  69.849  1.00  0.00    -0.029 OA 
HETATM   24  H   UNL     1      -8.133   9.433  71.087  1.00  0.00     0.000 HD 
BRANCH  22  25
HETATM   25  C   UNL     1      -7.191   7.591  71.550  1.00  0.00    -0.070 A  
HETATM   26  C   UNL     1      -6.504   7.419  72.762  1.00  0.00    -0.059 A  
HETATM   27  I   UNL     1      -5.279   8.902  73.651  1.00  0.00    -0.093 I  
HETATM   28  C   UNL     1      -6.447   6.164  73.376  1.00  0.00    -0.069 A  
HETATM   29  C   UNL     1      -7.014   5.039  72.761  1.00  0.00    -0.081 A  
HETATM   30  I   UNL     1      -6.703   3.230  73.810  1.00  0.00    -0.038 I  
HETATM   31  C   UNL     1      -7.663   5.155  71.519  1.00  0.00    -0.103 A  
HETATM   32  C   UNL     1      -8.179   3.952  70.801  1.00  0.00    -0.066 C  
HETATM   33  C   UNL     1      -7.749   6.442  70.923  1.00  0.00    -0.101 A  
HETATM   34  O   UNL     1      -7.966   3.739  69.621  1.00  0.00    -0.051 OA 
HETATM   35  I   UNL     1      -8.849   6.769  69.091  1.00  0.00    -0.130 I  
HETATM   36  O   UNL     1      -8.942   3.127  71.548  1.00  0.00    -0.084 OA 
ENDBRANCH  22  25
ENDBRANCH  20  21
ENDBRANCH  19  20
ENDBRANCH  18  19
ENDBRANCH  17  18
ENDBRANCH  15  17
ENDBRANCH   7  13
TORSDOF 7
ENDMDL
MODEL      195
REMARK 921   NORMALIZED FREE ENERGY PREDICTED BY IDOCK:   -2.30 KCAL/MOL
REMARK 922        TOTAL FREE ENERGY PREDICTED BY IDOCK:   -4.16 KCAL/MOL
REMARK 923 INTER-LIGAND FREE ENERGY PREDICTED BY IDOCK:   -3.37 KCAL/MOL
REMARK 924 INTRA-LIGAND FREE ENERGY PREDICTED BY IDOCK:   -0.79 KCAL/MOL
REMARK 927      BINDING AFFINITY PREDICTED BY RF-SCORE:    0.00 PKD
ROOT
HETATM    1  O   UNL     1      -9.393  10.143  67.265  1.00  0.00    -0.150 OA 
HETATM    2  C   UNL     1      -9.989   8.978  66.930  1.00  0.00    -0.246 C  
HETATM    3  C   UNL     1      -9.122   8.034  66.174  1.00  0.00    -0.224 A  
HETATM    4  O   UNL     1     -11.128   8.714  67.273  1.00  0.00     0.031 OA 
HETATM    5  C   UNL     1      -9.025   6.670  66.561  1.00  0.00    -0.145 A  
HETATM    6  I   UNL     1      -9.973   5.944  68.362  1.00  0.00    -0.255 I  
HETATM    7  C   UNL     1      -8.229   5.741  65.832  1.00  0.00    -0.121 A  
HETATM    8  I   UNL     1      -8.556  10.379  64.175  1.00  0.00    -0.109 I  
HETATM    9  C   UNL     1      -7.541   6.199  64.693  1.00  0.00    -0.093 A  
HETATM   10  C   UNL     1      -8.426   8.447  65.025  1.00  0.00    -0.141 A  
HETATM   11  C   UNL     1      -7.631   7.544  64.308  1.00  0.00    -0.105 A  
HETATM   12  I   UNL     1      -6.544   4.945  63.318  1.00  0.00    -0.027 I  
ENDROOT
BRANCH   7  13
HETATM   13  N   UNL     1      -8.227   4.373  66.238  1.00  0.00    -0.102 N  
HETATM   14  O   UNL     1     -10.030   3.693  64.944  1.00  0.00    -0.176 OA 
HETATM   15  C   UNL     1      -9.129   3.444  65.741  1.00  0.00    -0.152 C  
HETATM   16  H   UNL     1      -7.535   4.066  66.921  1.00  0.00     0.000 HD 
BRANCH  15  17
HETATM   17  C   UNL     1      -8.820   2.008  66.144  1.00  0.00    -0.117 C  
BRANCH  17  18
HETATM   18  C   UNL     1      -7.901   1.993  67.364  1.00  0.00    -0.064 C  
BRANCH  18  19
HETATM   19  C   UNL     1      -6.414   2.199  67.054  1.00  0.00    -0.031 C  
BRANCH  19  20
HETATM   20  C   UNL     1      -5.454   1.782  68.173  1.00  0.00    -0.017 C  
BRANCH  20  21
HETATM   21  C   UNL     1      -5.842   2.448  69.488  1.00  0.00    -0.023 C  
HETATM   22  N   UNL     1      -6.695   3.532  69.331  1.00  0.00    -0.037 N  
HETATM   23  O   UNL     1      -5.367   2.093  70.562  1.00  0.00    -0.004 OA 
HETATM   24  H   UNL     1      -6.994   3.797  68.393  1.00  0.00     0.000 HD 
BRANCH  22  25
HETATM   25  C   UNL     1      -7.163   4.282  70.450  1.00  0.00    -0.042 A  
HETATM   26  C   UNL     1      -8.126   3.778  71.339  1.00  0.00    -0.068 A  
HETATM   27  I   UNL     1      -9.253   2.018  70.992  1.00  0.00    -0.197 I  
HETATM   28  C   UNL     1      -8.532   4.526  72.448  1.00  0.00    -0.110 A  
HETATM   29  C   UNL     1      -8.038   5.821  72.658  1.00  0.00    -0.105 A  
HETATM   30  I   UNL     1      -8.879   6.809  74.328  1.00  0.00    -0.232 I  
HETATM   31  C   UNL     1      -7.114   6.388  71.762  1.00  0.00    -0.085 A  
HETATM   32  C   UNL     1      -6.658   7.801  71.911  1.00  0.00    -0.047 C  
HETATM   33  C   UNL     1      -6.679   5.603  70.660  1.00  0.00    -0.048 A  
HETATM   34  O   UNL     1      -6.630   8.593  70.986  1.00  0.00    -0.042 OA 
HETATM   35  I   UNL     1      -5.154   6.308  69.301  1.00  0.00    -0.013 I  
HETATM   36  O   UNL     1      -6.234   8.135  73.148  1.00  0.00    -0.069 OA 
ENDBRANCH  22  25
ENDBRANCH  20  21
ENDBRANCH  19  20
ENDBRANCH  18  19
ENDBRANCH  17  18
ENDBRANCH  15  17
ENDBRANCH   7  13
TORSDOF 7
ENDMDL
MODEL      196
REMARK 921   NORMALIZED FREE ENERGY PREDICTED BY IDOCK:   -2.30 KCAL/MOL
REMARK 922        TOTAL FREE ENERGY PREDICTED BY IDOCK:   -4.16 KCAL/MOL
REMARK 923 INTER-LIGAND FREE ENERGY PREDICTED BY IDOCK:   -3.74 KCAL/MOL
REMARK 924 INTRA-LIGAND FREE ENERGY PREDICTED BY IDOCK:   -0.42 KCAL/MOL
REMARK 927      BINDING AFFINITY PREDICTED BY RF-SCORE:    0.00 PKD
ROOT
HETATM    1  O   UNL     1     -11.530  16.937  71.643  1.00  0.00    -0.048 OA 
HETATM    2  C   UNL     1     -12.157  15.974  70.932  1.00  0.00    -0.295 C  
HETATM    3  C   UNL     1     -11.265  15.177  70.048  1.00  0.00    -0.301 A  
HETATM    4  O   UNL     1     -13.349  15.754  71.057  1.00  0.00    -0.580 OA 
HETATM    5  C   UNL     1     -11.323  13.757  70.050  1.00  0.00    -0.023 A  
HETATM    6  I   UNL     1     -12.563  12.686  71.459  1.00  0.00     0.273 I  
HETATM    7  C   UNL     1     -10.504  12.975  69.187  1.00  0.00     0.111 A  
HETATM    8  I   UNL     1     -10.257  17.894  68.856  1.00  0.00     0.097 I  
HETATM    9  C   UNL     1      -9.633  13.641  68.305  1.00  0.00    -0.215 A  
HETATM   10  C   UNL     1     -10.388  15.803  69.145  1.00  0.00    -0.240 A  
HETATM   11  C   UNL     1      -9.570  15.042  68.301  1.00  0.00    -0.210 A  
HETATM   12  I   UNL     1      -8.549  12.697  66.758  1.00  0.00     0.143 I  
ENDROOT
BRANCH   7  13
HETATM   13  N   UNL     1     -10.659  11.556  69.195  1.00  0.00    -0.369 N  
HETATM   14  O   UNL     1     -12.005  11.409  67.310  1.00  0.00    -0.580 OA 
HETATM   15  C   UNL     1     -11.392  10.878  68.233  1.00  0.00    -0.308 C  
HETATM   16  H   UNL     1     -10.212  11.019  69.938  1.00  0.00     0.000 HD 
BRANCH  15  17
HETATM   17  C   UNL     1     -11.255   9.363  68.307  1.00  0.00     0.129 C  
BRANCH  17  18
HETATM   18  C   UNL     1      -9.780   8.970  68.298  1.00  0.00    -0.169 C  
BRANCH  18  19
HETATM   19  C   UNL     1      -9.356   8.027  69.429  1.00  0.00    -0.155 C  
BRANCH  19  20
HETATM   20  C   UNL     1      -7.847   7.955  69.684  1.00  0.00    -0.105 C  
BRANCH  20  21
HETATM   21  C   UNL     1      -7.214   6.849  68.845  1.00  0.00    -0.091 C  
HETATM   22  N   UNL     1      -8.087   6.278  67.931  1.00  0.00    -0.114 N  
HETATM   23  O   UNL     1      -6.065   6.466  69.036  1.00  0.00    -0.026 OA 
HETATM   24  H   UNL     1      -9.047   6.618  67.880  1.00  0.00     0.000 HD 
BRANCH  22  25
HETATM   25  C   UNL     1      -7.673   5.226  67.060  1.00  0.00    -0.096 A  
HETATM   26  C   UNL     1      -7.498   3.908  67.509  1.00  0.00    -0.068 A  
HETATM   27  I   UNL     1      -7.494   3.341  69.551  1.00  0.00    -0.045 I  
HETATM   28  C   UNL     1      -7.130   2.896  66.618  1.00  0.00    -0.054 A  
HETATM   29  C   UNL     1      -6.861   3.188  65.273  1.00  0.00    -0.048 A  
HETATM   30  I   UNL     1      -6.207   1.526  64.141  1.00  0.00    -0.014 I  
HETATM   31  C   UNL     1      -6.969   4.504  64.793  1.00  0.00    -0.054 A  
HETATM   32  C   UNL     1      -6.585   4.851  63.393  1.00  0.00    -0.027 C  
HETATM   33  C   UNL     1      -7.382   5.518  65.698  1.00  0.00    -0.073 A  
HETATM   34  O   UNL     1      -5.871   5.797  63.112  1.00  0.00    -0.020 OA 
HETATM   35  I   UNL     1      -7.726   7.549  65.043  1.00  0.00    -0.129 I  
HETATM   36  O   UNL     1      -7.125   4.059  62.442  1.00  0.00    -0.034 OA 
ENDBRANCH  22  25
ENDBRANCH  20  21
ENDBRANCH  19  20
ENDBRANCH  18  19
ENDBRANCH  17  18
ENDBRANCH  15  17
ENDBRANCH   7  13
TORSDOF 7
ENDMDL
MODEL      197
REMARK 921   NORMALIZED FREE ENERGY PREDICTED BY IDOCK:   -2.23 KCAL/MOL
REMARK 922        TOTAL FREE ENERGY PREDICTED BY IDOCK:   -4.07 KCAL/MOL
REMARK 923 INTER-LIGAND FREE ENERGY PREDICTED BY IDOCK:   -3.57 KCAL/MOL
REMARK 924 INTRA-LIGAND FREE ENERGY PREDICTED BY IDOCK:   -0.50 KCAL/MOL
REMARK 927      BINDING AFFINITY PREDICTED BY RF-SCORE:    0.00 PKD
ROOT
HETATM    1  O   UNL     1     -11.984   4.438  72.877  1.00  0.00     0.103 OA 
HETATM    2  C   UNL     1     -10.872   4.944  73.454  1.00  0.00    -0.295 C  
HETATM    3  C   UNL     1      -9.655   4.897  72.600  1.00  0.00    -0.166 A  
HETATM    4  O   UNL     1     -10.893   5.445  74.564  1.00  0.00    -0.235 OA 
HETATM    5  C   UNL     1      -8.835   6.046  72.442  1.00  0.00    -0.133 A  
HETATM    6  I   UNL     1      -9.409   7.958  73.270  1.00  0.00    -0.234 I  
HETATM    7  C   UNL     1      -7.646   6.013  71.658  1.00  0.00    -0.100 A  
HETATM    8  I   UNL     1     -10.221   1.839  72.213  1.00  0.00    -0.104 I  
HETATM    9  C   UNL     1      -7.281   4.801  71.046  1.00  0.00    -0.059 A  
HETATM   10  C   UNL     1      -9.248   3.703  71.980  1.00  0.00    -0.114 A  
HETATM   11  C   UNL     1      -8.087   3.664  71.197  1.00  0.00    -0.068 A  
HETATM   12  I   UNL     1      -5.431   4.458  70.086  1.00  0.00    -0.013 I  
ENDROOT
BRANCH   7  13
HETATM   13  N   UNL     1      -6.836   7.186  71.594  1.00  0.00    -0.055 N  
HETATM   14  O   UNL     1      -8.078   8.300  69.981  1.00  0.00    -0.111 OA 
HETATM   15  C   UNL     1      -7.132   8.256  70.762  1.00  0.00    -0.044 C  
HETATM   16  H   UNL     1      -6.005   7.240  72.184  1.00  0.00     0.000 HD 
BRANCH  15  17
HETATM   17  C   UNL     1      -6.262   9.483  71.002  1.00  0.00    -0.079 C  
BRANCH  17  18
HETATM   18  C   UNL     1      -5.132   9.532  69.976  1.00  0.00    -0.032 C  
BRANCH  18  19
HETATM   19  C   UNL     1      -5.235  10.671  68.956  1.00  0.00    -0.041 C  
BRANCH  19  20
HETATM   20  C   UNL     1      -5.892  10.293  67.624  1.00  0.00    -0.045 C  
BRANCH  20  21
HETATM   21  C   UNL     1      -7.260  10.956  67.494  1.00  0.00    -0.095 C  
HETATM   22  N   UNL     1      -7.350  11.836  66.425  1.00  0.00    -0.371 N  
HETATM   23  O   UNL     1      -8.151  10.774  68.316  1.00  0.00    -0.111 OA 
HETATM   24  H   UNL     1      -6.538  11.975  65.825  1.00  0.00     0.000 HD 
BRANCH  22  25
HETATM   25  C   UNL     1      -8.552  12.552  66.147  1.00  0.00     0.360 A  
HETATM   26  C   UNL     1      -9.542  12.047  65.288  1.00  0.00    -0.100 A  
HETATM   27  I   UNL     1      -9.279  10.354  64.042  1.00  0.00    -0.364 I  
HETATM   28  C   UNL     1     -10.725  12.759  65.071  1.00  0.00    -0.321 A  
HETATM   29  C   UNL     1     -10.920  14.021  65.650  1.00  0.00    -0.300 A  
HETATM   30  I   UNL     1     -12.727  14.962  65.088  1.00  0.00     0.871 I  
HETATM   31  C   UNL     1      -9.931  14.589  66.472  1.00  0.00    -0.290 A  
HETATM   32  C   UNL     1     -10.075  15.973  67.011  1.00  0.00    -0.271 C  
HETATM   33  C   UNL     1      -8.749  13.840  66.718  1.00  0.00    -0.087 A  
HETATM   34  O   UNL     1      -9.188  16.806  66.953  1.00  0.00    -0.218 OA 
HETATM   35  I   UNL     1      -7.226  14.544  68.080  1.00  0.00    -0.205 I  
HETATM   36  O   UNL     1     -11.256  16.231  67.612  1.00  0.00    -0.244 OA 
ENDBRANCH  22  25
ENDBRANCH  20  21
ENDBRANCH  19  20
ENDBRANCH  18  19
ENDBRANCH  17  18
ENDBRANCH  15  17
ENDBRANCH   7  13
TORSDOF 7
ENDMDL
MODEL      198
REMARK 921   NORMALIZED FREE ENERGY PREDICTED BY IDOCK:   -2.21 KCAL/MOL
REMARK 922        TOTAL FREE ENERGY PREDICTED BY IDOCK:   -4.03 KCAL/MOL
REMARK 923 INTER-LIGAND FREE ENERGY PREDICTED BY IDOCK:   -3.27 KCAL/MOL
REMARK 924 INTRA-LIGAND FREE ENERGY PREDICTED BY IDOCK:   -0.76 KCAL/MOL
REMARK 927      BINDING AFFINITY PREDICTED BY RF-SCORE:    0.00 PKD
ROOT
HETATM    1  O   UNL     1      -7.896   4.402  73.086  1.00  0.00    -0.088 OA 
HETATM    2  C   UNL     1      -6.710   4.854  72.624  1.00  0.00    -0.061 C  
HETATM    3  C   UNL     1      -6.449   4.556  71.191  1.00  0.00    -0.026 A  
HETATM    4  O   UNL     1      -5.950   5.500  73.324  1.00  0.00    -0.034 OA 
HETATM    5  C   UNL     1      -5.999   5.574  70.307  1.00  0.00    -0.021 A  
HETATM    6  I   UNL     1      -5.854   7.633  70.950  1.00  0.00    -0.034 I  
HETATM    7  C   UNL     1      -5.709   5.303  68.940  1.00  0.00    -0.015 A  
HETATM    8  I   UNL     1      -7.072   1.556  71.850  1.00  0.00    -0.028 I  
HETATM    9  C   UNL     1      -5.861   3.985  68.472  1.00  0.00    -0.026 A  
HETATM   10  C   UNL     1      -6.579   3.251  70.685  1.00  0.00    -0.032 A  
HETATM   11  C   UNL     1      -6.307   2.977  69.338  1.00  0.00    -0.029 A  
HETATM   12  I   UNL     1      -5.222   3.311  66.576  1.00  0.00    -0.014 I  
ENDROOT
BRANCH   7  13
HETATM   13  N   UNL     1      -5.200   6.358  68.125  1.00  0.00    -0.007 N  
HETATM   14  O   UNL     1      -7.038   6.543  66.721  1.00  0.00    -0.066 OA 
HETATM   15  C   UNL     1      -5.923   6.912  67.080  1.00  0.00    -0.022 C  
HETATM   16  H   UNL     1      -4.267   6.720  68.321  1.00  0.00     0.000 HD 
BRANCH  15  17
HETATM   17  C   UNL     1      -5.284   8.157  66.480  1.00  0.00    -0.028 C  
BRANCH  17  18
HETATM   18  C   UNL     1      -6.260   9.330  66.548  1.00  0.00    -0.065 C  
BRANCH  18  19
HETATM   19  C   UNL     1      -7.012   9.622  65.246  1.00  0.00    -0.101 C  
BRANCH  19  20
HETATM   20  C   UNL     1      -8.240   8.741  64.993  1.00  0.00    -0.156 C  
BRANCH  20  21
HETATM   21  C   UNL     1      -9.386   9.143  65.916  1.00  0.00    -0.243 C  
HETATM   22  N   UNL     1      -9.022   9.218  67.253  1.00  0.00    -0.123 N  
HETATM   23  O   UNL     1     -10.530   9.300  65.502  1.00  0.00     0.343 OA 
HETATM   24  H   UNL     1      -8.059   9.011  67.518  1.00  0.00     0.000 HD 
BRANCH  22  25
HETATM   25  C   UNL     1      -9.962   9.576  68.264  1.00  0.00    -0.161 A  
HETATM   26  C   UNL     1     -10.374  10.903  68.466  1.00  0.00    -0.187 A  
HETATM   27  I   UNL     1      -9.453  12.582  67.560  1.00  0.00    -0.208 I  
HETATM   28  C   UNL     1     -11.328  11.210  69.441  1.00  0.00    -0.352 A  
HETATM   29  C   UNL     1     -11.840  10.213  70.282  1.00  0.00    -0.261 A  
HETATM   30  I   UNL     1     -13.177  10.927  71.757  1.00  0.00     0.014 I  
HETATM   31  C   UNL     1     -11.413   8.880  70.153  1.00  0.00    -0.047 A  
HETATM   32  C   UNL     1     -11.867   7.826  71.106  1.00  0.00    -0.291 C  
HETATM   33  C   UNL     1     -10.473   8.572  69.133  1.00  0.00    -0.205 A  
HETATM   34  O   UNL     1     -11.107   7.040  71.642  1.00  0.00    -0.229 OA 
HETATM   35  I   UNL     1      -9.854   6.539  68.741  1.00  0.00    -0.187 I  
HETATM   36  O   UNL     1     -13.202   7.775  71.305  1.00  0.00    -0.285 OA 
ENDBRANCH  22  25
ENDBRANCH  20  21
ENDBRANCH  19  20
ENDBRANCH  18  19
ENDBRANCH  17  18
ENDBRANCH  15  17
ENDBRANCH   7  13
TORSDOF 7
ENDMDL
MODEL      199
REMARK 921   NORMALIZED FREE ENERGY PREDICTED BY IDOCK:   -2.15 KCAL/MOL
REMARK 922        TOTAL FREE ENERGY PREDICTED BY IDOCK:   -3.94 KCAL/MOL
REMARK 923 INTER-LIGAND FREE ENERGY PREDICTED BY IDOCK:   -4.44 KCAL/MOL
REMARK 924 INTRA-LIGAND FREE ENERGY PREDICTED BY IDOCK:    0.49 KCAL/MOL
REMARK 927      BINDING AFFINITY PREDICTED BY RF-SCORE:    0.00 PKD
ROOT
HETATM    1  O   UNL     1      -6.848   6.454  71.699  1.00  0.00    -0.064 OA 
HETATM    2  C   UNL     1      -5.942   7.359  71.266  1.00  0.00    -0.036 C  
HETATM    3  C   UNL     1      -6.049   7.700  69.822  1.00  0.00    -0.027 A  
HETATM    4  O   UNL     1      -5.144   7.884  72.021  1.00  0.00    -0.034 OA 
HETATM    5  C   UNL     1      -6.059   9.055  69.395  1.00  0.00    -0.040 A  
HETATM    6  I   UNL     1      -6.110  10.680  70.819  1.00  0.00     0.302 I  
HETATM    7  C   UNL     1      -6.125   9.403  68.015  1.00  0.00    -0.052 A  
HETATM    8  I   UNL     1      -5.910   4.625  69.233  1.00  0.00    -0.019 I  
HETATM    9  C   UNL     1      -6.164   8.367  67.064  1.00  0.00    -0.056 A  
HETATM   10  C   UNL     1      -6.081   6.695  68.838  1.00  0.00    -0.026 A  
HETATM   11  C   UNL     1      -6.158   7.028  67.480  1.00  0.00    -0.036 A  
HETATM   12  I   UNL     1      -5.979   8.653  64.980  1.00  0.00    -0.056 I  
ENDROOT
BRANCH   7  13
HETATM   13  N   UNL     1      -6.066  10.782  67.654  1.00  0.00    -0.047 N  
HETATM   14  O   UNL     1      -8.213  10.939  66.786  1.00  0.00    -0.130 OA 
HETATM   15  C   UNL     1      -7.135  11.451  67.077  1.00  0.00    -0.138 C  
HETATM   16  H   UNL     1      -5.203  11.297  67.827  1.00  0.00     0.000 HD 
BRANCH  15  17
HETATM   17  C   UNL     1      -6.934  12.957  66.966  1.00  0.00     0.220 C  
BRANCH  17  18
HETATM   18  C   UNL     1      -8.172  13.690  67.476  1.00  0.00    -0.189 C  
BRANCH  18  19
HETATM   19  C   UNL     1      -8.926  14.499  66.416  1.00  0.00    -0.153 C  
BRANCH  19  20
HETATM   20  C   UNL     1     -10.003  13.724  65.650  1.00  0.00    -0.275 C  
BRANCH  20  21
HETATM   21  C   UNL     1     -10.971  13.052  66.619  1.00  0.00    -0.279 C  
HETATM   22  N   UNL     1     -10.376  12.650  67.807  1.00  0.00    -0.216 N  
HETATM   23  O   UNL     1     -12.138  12.827  66.321  1.00  0.00    -0.466 OA 
HETATM   24  H   UNL     1      -9.382  12.823  67.949  1.00  0.00     0.000 HD 
BRANCH  22  25
HETATM   25  C   UNL     1     -11.124  12.001  68.834  1.00  0.00    -0.247 A  
HETATM   26  C   UNL     1     -11.168  10.604  68.959  1.00  0.00    -0.265 A  
HETATM   27  I   UNL     1     -10.430   9.259  67.497  1.00  0.00    -0.202 I  
HETATM   28  C   UNL     1     -11.880  10.005  70.003  1.00  0.00    -0.196 A  
HETATM   29  C   UNL     1     -12.620  10.782  70.904  1.00  0.00    -0.401 A  
HETATM   30  I   UNL     1     -13.712   9.658  72.324  1.00  0.00     0.064 I  
HETATM   31  C   UNL     1     -12.651  12.182  70.782  1.00  0.00    -0.305 A  
HETATM   32  C   UNL     1     -13.516  13.017  71.666  1.00  0.00    -0.201 C  
HETATM   33  C   UNL     1     -11.892  12.783  69.742  1.00  0.00    -0.310 A  
HETATM   34  O   UNL     1     -14.248  13.895  71.245  1.00  0.00    -0.079 OA 
HETATM   35  I   UNL     1     -11.742  14.930  69.545  1.00  0.00    -0.400 I  
HETATM   36  O   UNL     1     -13.401  12.758  72.986  1.00  0.00    -0.077 OA 
ENDBRANCH  22  25
ENDBRANCH  20  21
ENDBRANCH  19  20
ENDBRANCH  18  19
ENDBRANCH  17  18
ENDBRANCH  15  17
ENDBRANCH   7  13
TORSDOF 7
ENDMDL
MODEL      200
REMARK 921   NORMALIZED FREE ENERGY PREDICTED BY IDOCK:   -2.07 KCAL/MOL
REMARK 922        TOTAL FREE ENERGY PREDICTED BY IDOCK:   -3.83 KCAL/MOL
REMARK 923 INTER-LIGAND FREE ENERGY PREDICTED BY IDOCK:   -4.62 KCAL/MOL
REMARK 924 INTRA-LIGAND FREE ENERGY PREDICTED BY IDOCK:    0.78 KCAL/MOL
REMARK 927      BINDING AFFINITY PREDICTED BY RF-SCORE:    0.00 PKD
ROOT
HETATM    1  O   UNL     1      -8.387   8.613  64.347  1.00  0.00    -0.164 OA 
HETATM    2  C   UNL     1      -8.390   9.467  65.395  1.00  0.00    -0.139 C  
HETATM    3  C   UNL     1      -9.445  10.515  65.336  1.00  0.00    -0.273 A  
HETATM    4  O   UNL     1      -7.620   9.343  66.330  1.00  0.00    -0.096 OA 
HETATM    5  C   UNL     1     -10.274  10.775  66.461  1.00  0.00    -0.235 A  
HETATM    6  I   UNL     1     -10.174   9.545  68.235  1.00  0.00    -0.261 I  
HETATM    7  C   UNL     1     -11.265  11.797  66.438  1.00  0.00    -0.323 A  
HETATM    8  I   UNL     1      -8.384  11.218  62.472  1.00  0.00     0.480 I  
HETATM    9  C   UNL     1     -11.402  12.571  65.271  1.00  0.00    -0.324 A  
HETATM   10  C   UNL     1      -9.609  11.317  64.193  1.00  0.00    -0.225 A  
HETATM   11  C   UNL     1     -10.590  12.317  64.157  1.00  0.00    -0.408 A  
HETATM   12  I   UNL     1     -12.600  14.303  65.123  1.00  0.00    -0.030 I  
ENDROOT
BRANCH   7  13
HETATM   13  N   UNL     1     -12.018  12.046  67.624  1.00  0.00    -0.194 N  
HETATM   14  O   UNL     1     -10.718  13.796  68.421  1.00  0.00    -0.240 OA 
HETATM   15  C   UNL     1     -11.689  13.051  68.522  1.00  0.00    -0.342 C  
HETATM   16  H   UNL     1     -12.831  11.463  67.819  1.00  0.00     0.000 HD 
BRANCH  15  17
HETATM   17  C   UNL     1     -12.738  13.280  69.603  1.00  0.00     0.354 C  
BRANCH  17  18
HETATM   18  C   UNL     1     -12.143  12.991  70.979  1.00  0.00    -0.078 C  
BRANCH  18  19
HETATM   19  C   UNL     1     -12.770  11.804  71.717  1.00  0.00    -0.299 C  
BRANCH  19  20
HETATM   20  C   UNL     1     -12.984  10.548  70.866  1.00  0.00    -0.455 C  
BRANCH  20  21
HETATM   21  C   UNL     1     -12.691   9.293  71.681  1.00  0.00    -0.364 C  
HETATM   22  N   UNL     1     -11.704   8.489  71.127  1.00  0.00    -0.279 N  
HETATM   23  O   UNL     1     -13.335   9.003  72.683  1.00  0.00    -0.458 OA 
HETATM   24  H   UNL     1     -11.260   8.777  70.255  1.00  0.00     0.000 HD 
BRANCH  22  25
HETATM   25  C   UNL     1     -11.298   7.271  71.748  1.00  0.00    -0.253 A  
HETATM   26  C   UNL     1     -12.198   6.225  72.005  1.00  0.00    -0.215 A  
HETATM   27  I   UNL     1     -14.302   6.400  71.828  1.00  0.00     1.126 I  
HETATM   28  C   UNL     1     -11.754   5.030  72.579  1.00  0.00     0.044 A  
HETATM   29  C   UNL     1     -10.417   4.877  72.973  1.00  0.00    -0.199 A  
HETATM   30  I   UNL     1     -10.001   3.035  73.925  1.00  0.00    -0.225 I  
HETATM   31  C   UNL     1      -9.494   5.920  72.786  1.00  0.00    -0.153 A  
HETATM   32  C   UNL     1      -8.094   5.814  73.293  1.00  0.00    -0.113 C  
HETATM   33  C   UNL     1      -9.947   7.115  72.165  1.00  0.00    -0.165 A  
HETATM   34  O   UNL     1      -7.549   6.696  73.933  1.00  0.00    -0.084 OA 
HETATM   35  I   UNL     1      -8.589   8.728  71.691  1.00  0.00     0.051 I  
HETATM   36  O   UNL     1      -7.450   4.677  72.955  1.00  0.00    -0.082 OA 
ENDBRANCH  22  25
ENDBRANCH  20  21
ENDBRANCH  19  20
ENDBRANCH  18  19
ENDBRANCH  17  18
ENDBRANCH  15  17
ENDBRANCH   7  13
TORSDOF 7
ENDMDL
MODEL      201
REMARK 921   NORMALIZED FREE ENERGY PREDICTED BY IDOCK:   -2.03 KCAL/MOL
REMARK 922        TOTAL FREE ENERGY PREDICTED BY IDOCK:   -3.77 KCAL/MOL
REMARK 923 INTER-LIGAND FREE ENERGY PREDICTED BY IDOCK:   -3.33 KCAL/MOL
REMARK 924 INTRA-LIGAND FREE ENERGY PREDICTED BY IDOCK:   -0.44 KCAL/MOL
REMARK 927      BINDING AFFINITY PREDICTED BY RF-SCORE:    0.00 PKD
ROOT
HETATM    1  O   UNL     1      -8.736  15.827  69.954  1.00  0.00    -0.034 OA 
HETATM    2  C   UNL     1      -8.898  15.517  68.648  1.00  0.00    -0.193 C  
HETATM    3  C   UNL     1      -8.133  14.324  68.196  1.00  0.00    -0.144 A  
HETATM    4  O   UNL     1      -9.654  16.142  67.926  1.00  0.00    -0.220 OA 
HETATM    5  C   UNL     1      -8.767  13.298  67.443  1.00  0.00    -0.206 A  
HETATM    6  I   UNL     1     -10.897  13.325  67.082  1.00  0.00    -0.301 I  
HETATM    7  C   UNL     1      -8.046  12.166  66.970  1.00  0.00    -0.154 A  
HETATM    8  I   UNL     1      -5.578  15.684  69.397  1.00  0.00    -0.127 I  
HETATM    9  C   UNL     1      -6.669  12.083  67.248  1.00  0.00    -0.144 A  
HETATM   10  C   UNL     1      -6.754  14.207  68.445  1.00  0.00    -0.105 A  
HETATM   11  C   UNL     1      -6.039  13.090  67.993  1.00  0.00    -0.112 A  
HETATM   12  I   UNL     1      -5.366  10.650  66.410  1.00  0.00    -0.116 I  
ENDROOT
BRANCH   7  13
HETATM   13  N   UNL     1      -8.730  11.206  66.165  1.00  0.00    -0.185 N  
HETATM   14  O   UNL     1      -7.434  11.461  64.257  1.00  0.00     1.100 OA 
HETATM   15  C   UNL     1      -8.352  10.915  64.863  1.00  0.00     0.069 C  
HETATM   16  H   UNL     1      -9.529  10.714  66.564  1.00  0.00     0.000 HD 
BRANCH  15  17
HETATM   17  C   UNL     1      -9.079   9.719  64.262  1.00  0.00    -0.293 C  
BRANCH  17  18
HETATM   18  C   UNL     1      -9.590   8.805  65.373  1.00  0.00     0.109 C  
BRANCH  18  19
HETATM   19  C   UNL     1      -8.954   7.412  65.407  1.00  0.00     0.155 C  
BRANCH  19  20
HETATM   20  C   UNL     1      -7.577   7.342  66.075  1.00  0.00    -0.089 C  
BRANCH  20  21
HETATM   21  C   UNL     1      -7.721   7.089  67.573  1.00  0.00    -0.111 C  
HETATM   22  N   UNL     1      -8.955   6.566  67.931  1.00  0.00    -0.117 N  
HETATM   23  O   UNL     1      -6.845   7.401  68.372  1.00  0.00    -0.059 OA 
HETATM   24  H   UNL     1      -9.651   6.392  67.206  1.00  0.00     0.000 HD 
BRANCH  22  25
HETATM   25  C   UNL     1      -9.274   6.266  69.289  1.00  0.00    -0.133 A  
HETATM   26  C   UNL     1      -9.013   5.010  69.859  1.00  0.00    -0.106 A  
HETATM   27  I   UNL     1      -8.433   3.301  68.749  1.00  0.00    -0.141 I  
HETATM   28  C   UNL     1      -9.302   4.766  71.205  1.00  0.00    -0.206 A  
HETATM   29  C   UNL     1      -9.921   5.746  71.994  1.00  0.00    -0.175 A  
HETATM   30  I   UNL     1     -10.371   5.115  73.961  1.00  0.00    -0.320 I  
HETATM   31  C   UNL     1     -10.251   6.999  71.449  1.00  0.00    -0.208 A  
HETATM   32  C   UNL     1     -11.003   8.014  72.242  1.00  0.00    -0.314 C  
HETATM   33  C   UNL     1      -9.917   7.249  70.091  1.00  0.00    -0.184 A  
HETATM   34  O   UNL     1     -11.974   8.611  71.812  1.00  0.00    -0.294 OA 
HETATM   35  I   UNL     1     -10.239   9.185  69.185  1.00  0.00    -0.234 I  
HETATM   36  O   UNL     1     -10.503   8.260  73.473  1.00  0.00     0.255 OA 
ENDBRANCH  22  25
ENDBRANCH  20  21
ENDBRANCH  19  20
ENDBRANCH  18  19
ENDBRANCH  17  18
ENDBRANCH  15  17
ENDBRANCH   7  13
TORSDOF 7
ENDMDL
MODEL      202
REMARK 921   NORMALIZED FREE ENERGY PREDICTED BY IDOCK:   -1.97 KCAL/MOL
REMARK 922        TOTAL FREE ENERGY PREDICTED BY IDOCK:   -3.70 KCAL/MOL
REMARK 923 INTER-LIGAND FREE ENERGY PREDICTED BY IDOCK:   -3.61 KCAL/MOL
REMARK 924 INTRA-LIGAND FREE ENERGY PREDICTED BY IDOCK:   -0.09 KCAL/MOL
REMARK 927      BINDING AFFINITY PREDICTED BY RF-SCORE:    0.00 PKD
ROOT
HETATM    1  O   UNL     1      -8.300   8.494  62.330  1.00  0.00    -0.185 OA 
HETATM    2  C   UNL     1      -8.550   8.574  63.655  1.00  0.00     0.066 C  
HETATM    3  C   UNL     1      -7.837   7.564  64.482  1.00  0.00    -0.130 A  
HETATM    4  O   UNL     1      -9.262   9.443  64.125  1.00  0.00    -0.176 OA 
HETATM    5  C   UNL     1      -7.128   7.953  65.651  1.00  0.00    -0.056 A  
HETATM    6  I   UNL     1      -6.891  10.035  66.179  1.00  0.00    -0.122 I  
HETATM    7  C   UNL     1      -6.468   6.998  66.476  1.00  0.00    -0.051 A  
HETATM    8  I   UNL     1      -9.025   5.377  62.578  1.00  0.00     0.389 I  
HETATM    9  C   UNL     1      -6.544   5.639  66.121  1.00  0.00    -0.051 A  
HETATM   10  C   UNL     1      -7.896   6.195  64.168  1.00  0.00    -0.117 A  
HETATM   11  C   UNL     1      -7.240   5.250  64.968  1.00  0.00    -0.066 A  
HETATM   12  I   UNL     1      -5.888   4.048  67.344  1.00  0.00    -0.025 I  
ENDROOT
BRANCH   7  13
HETATM   13  N   UNL     1      -5.829   7.450  67.670  1.00  0.00    -0.033 N  
HETATM   14  O   UNL     1      -7.380   6.587  69.165  1.00  0.00    -0.088 OA 
HETATM   15  C   UNL     1      -6.334   7.189  68.934  1.00  0.00    -0.032 C  
HETATM   16  H   UNL     1      -4.965   7.987  67.589  1.00  0.00     0.000 HD 
BRANCH  15  17
HETATM   17  C   UNL     1      -5.393   7.578  70.067  1.00  0.00    -0.023 C  
BRANCH  17  18
HETATM   18  C   UNL     1      -5.165   9.088  70.063  1.00  0.00    -0.028 C  
BRANCH  18  19
HETATM   19  C   UNL     1      -6.225   9.904  70.809  1.00  0.00    -0.093 C  
BRANCH  19  20
HETATM   20  C   UNL     1      -7.537   9.163  71.089  1.00  0.00    -0.093 C  
BRANCH  20  21
HETATM   21  C   UNL     1      -8.692   9.816  70.337  1.00  0.00    -0.056 C  
HETATM   22  N   UNL     1      -8.301  10.461  69.172  1.00  0.00    -0.149 N  
HETATM   23  O   UNL     1      -9.835   9.826  70.782  1.00  0.00    -0.218 OA 
HETATM   24  H   UNL     1      -7.317  10.455  68.907  1.00  0.00     0.000 HD 
BRANCH  22  25
HETATM   25  C   UNL     1      -9.244  11.131  68.337  1.00  0.00    -0.175 A  
HETATM   26  C   UNL     1     -10.290  10.452  67.694  1.00  0.00    -0.219 A  
HETATM   27  I   UNL     1     -10.444   8.341  67.587  1.00  0.00    -0.148 I  
HETATM   28  C   UNL     1     -11.219  11.149  66.916  1.00  0.00    -0.258 A  
HETATM   29  C   UNL     1     -11.086  12.528  66.705  1.00  0.00    -0.283 A  
HETATM   30  I   UNL     1     -12.533  13.349  65.400  1.00  0.00    -0.388 I  
HETATM   31  C   UNL     1     -10.020  13.240  67.284  1.00  0.00    -0.231 A  
HETATM   32  C   UNL     1      -9.802  14.686  66.985  1.00  0.00    -0.244 C  
HETATM   33  C   UNL     1      -9.105  12.528  68.105  1.00  0.00    -0.204 A  
HETATM   34  O   UNL     1      -8.718  15.146  66.675  1.00  0.00    -0.262 OA 
HETATM   35  I   UNL     1      -7.516  13.538  69.166  1.00  0.00     0.447 I  
HETATM   36  O   UNL     1     -10.895  15.467  67.125  1.00  0.00    -0.314 OA 
ENDBRANCH  22  25
ENDBRANCH  20  21
ENDBRANCH  19  20
ENDBRANCH  18  19
ENDBRANCH  17  18
ENDBRANCH  15  17
ENDBRANCH   7  13
TORSDOF 7
ENDMDL
MODEL      203
REMARK 921   NORMALIZED FREE ENERGY PREDICTED BY IDOCK:   -1.97 KCAL/MOL
REMARK 922        TOTAL FREE ENERGY PREDICTED BY IDOCK:   -3.69 KCAL/MOL
REMARK 923 INTER-LIGAND FREE ENERGY PREDICTED BY IDOCK:   -3.67 KCAL/MOL
REMARK 924 INTRA-LIGAND FREE ENERGY PREDICTED BY IDOCK:   -0.02 KCAL/MOL
REMARK 927      BINDING AFFINITY PREDICTED BY RF-SCORE:    0.00 PKD
ROOT
HETATM    1  O   UNL     1      -8.855  10.050  67.440  1.00  0.00    -0.128 OA 
HETATM    2  C   UNL     1      -9.383   9.008  66.761  1.00  0.00    -0.165 C  
HETATM    3  C   UNL     1      -8.411   7.932  66.425  1.00  0.00    -0.139 A  
HETATM    4  O   UNL     1     -10.570   8.944  66.499  1.00  0.00    -0.188 OA 
HETATM    5  C   UNL     1      -8.718   6.569  66.689  1.00  0.00    -0.128 A  
HETATM    6  I   UNL     1     -10.513   6.009  67.754  1.00  0.00    -0.374 I  
HETATM    7  C   UNL     1      -7.818   5.521  66.344  1.00  0.00    -0.100 A  
HETATM    8  I   UNL     1      -6.608  10.155  65.150  1.00  0.00    -0.060 I  
HETATM    9  C   UNL     1      -6.608   5.858  65.712  1.00  0.00    -0.047 A  
HETATM   10  C   UNL     1      -7.195   8.225  65.784  1.00  0.00    -0.072 A  
HETATM   11  C   UNL     1      -6.299   7.201  65.452  1.00  0.00    -0.037 A  
HETATM   12  I   UNL     1      -5.272   4.458  64.867  1.00  0.00    -0.009 I  
ENDROOT
BRANCH   7  13
HETATM   13  N   UNL     1      -8.218   4.171  66.579  1.00  0.00    -0.101 N  
HETATM   14  O   UNL     1      -8.728   3.641  64.378  1.00  0.00    -0.102 OA 
HETATM   15  C   UNL     1      -8.628   3.324  65.560  1.00  0.00    -0.114 C  
HETATM   16  H   UNL     1      -8.200   3.815  67.534  1.00  0.00     0.000 HD 
BRANCH  15  17
HETATM   17  C   UNL     1      -8.807   1.876  65.997  1.00  0.00    -0.121 C  
BRANCH  17  18
HETATM   18  C   UNL     1      -7.933   1.585  67.215  1.00  0.00    -0.065 C  
BRANCH  18  19
HETATM   19  C   UNL     1      -6.428   1.763  66.987  1.00  0.00    -0.027 C  
BRANCH  19  20
HETATM   20  C   UNL     1      -5.552   1.525  68.221  1.00  0.00    -0.018 C  
BRANCH  20  21
HETATM   21  C   UNL     1      -6.045   2.360  69.398  1.00  0.00    -0.024 C  
HETATM   22  N   UNL     1      -7.038   3.267  69.057  1.00  0.00    -0.048 N  
HETATM   23  O   UNL     1      -5.539   2.276  70.512  1.00  0.00    -0.014 OA 
HETATM   24  H   UNL     1      -7.360   3.313  68.090  1.00  0.00     0.000 HD 
BRANCH  22  25
HETATM   25  C   UNL     1      -7.621   4.136  70.027  1.00  0.00    -0.052 A  
HETATM   26  C   UNL     1      -7.191   5.461  70.198  1.00  0.00    -0.067 A  
HETATM   27  I   UNL     1      -5.443   6.265  69.310  1.00  0.00    -0.014 I  
HETATM   28  C   UNL     1      -7.813   6.295  71.132  1.00  0.00    -0.111 A  
HETATM   29  C   UNL     1      -8.830   5.807  71.964  1.00  0.00    -0.138 A  
HETATM   30  I   UNL     1      -9.540   7.210  73.378  1.00  0.00    -0.342 I  
HETATM   31  C   UNL     1      -9.253   4.470  71.865  1.00  0.00    -0.178 A  
HETATM   32  C   UNL     1     -10.260   3.905  72.812  1.00  0.00    -0.165 C  
HETATM   33  C   UNL     1      -8.642   3.642  70.886  1.00  0.00    -0.072 A  
HETATM   34  O   UNL     1     -10.111   2.842  73.386  1.00  0.00    -0.102 OA 
HETATM   35  I   UNL     1      -9.310   1.616  70.541  1.00  0.00    -0.096 I  
HETATM   36  O   UNL     1     -11.380   4.644  72.959  1.00  0.00    -0.249 OA 
ENDBRANCH  22  25
ENDBRANCH  20  21
ENDBRANCH  19  20
ENDBRANCH  18  19
ENDBRANCH  17  18
ENDBRANCH  15  17
ENDBRANCH   7  13
TORSDOF 7
ENDMDL
MODEL      204
REMARK 921   NORMALIZED FREE ENERGY PREDICTED BY IDOCK:   -1.96 KCAL/MOL
REMARK 922        TOTAL FREE ENERGY PREDICTED BY IDOCK:   -3.68 KCAL/MOL
REMARK 923 INTER-LIGAND FREE ENERGY PREDICTED BY IDOCK:   -3.36 KCAL/MOL
REMARK 924 INTRA-LIGAND FREE ENERGY PREDICTED BY IDOCK:   -0.33 KCAL/MOL
REMARK 927      BINDING AFFINITY PREDICTED BY RF-SCORE:    0.00 PKD
ROOT
HETATM    1  O   UNL     1      -8.170  13.640  66.786  1.00  0.00    -0.016 OA 
HETATM    2  C   UNL     1      -8.365  13.050  67.986  1.00  0.00    -0.169 C  
HETATM    3  C   UNL     1      -8.800  11.629  67.915  1.00  0.00    -0.155 A  
HETATM    4  O   UNL     1      -8.146  13.633  69.033  1.00  0.00     0.030 OA 
HETATM    5  C   UNL     1      -8.157  10.633  68.699  1.00  0.00    -0.132 A  
HETATM    6  I   UNL     1      -6.408  11.093  69.882  1.00  0.00    -0.051 I  
HETATM    7  C   UNL     1      -8.580   9.274  68.672  1.00  0.00    -0.127 A  
HETATM    8  I   UNL     1     -11.097  12.578  66.006  1.00  0.00    -0.392 I  
HETATM    9  C   UNL     1      -9.674   8.929  67.858  1.00  0.00    -0.160 A  
HETATM   10  C   UNL     1      -9.894  11.243  67.121  1.00  0.00    -0.190 A  
HETATM   11  C   UNL     1     -10.310   9.906  67.080  1.00  0.00    -0.303 A  
HETATM   12  I   UNL     1     -10.635   7.049  67.885  1.00  0.00    -0.255 I  
ENDROOT
BRANCH   7  13
HETATM   13  N   UNL     1      -7.932   8.339  69.533  1.00  0.00    -0.110 N  
HETATM   14  O   UNL     1      -9.101   8.875  71.465  1.00  0.00    -0.233 OA 
HETATM   15  C   UNL     1      -8.262   8.201  70.873  1.00  0.00    -0.109 C  
HETATM   16  H   UNL     1      -7.196   7.747  69.147  1.00  0.00     0.000 HD 
BRANCH  15  17
HETATM   17  C   UNL     1      -7.600   7.009  71.552  1.00  0.00    -0.089 C  
BRANCH  17  18
HETATM   18  C   UNL     1      -6.129   7.313  71.826  1.00  0.00    -0.037 C  
BRANCH  18  19
HETATM   19  C   UNL     1      -5.139   6.599  70.900  1.00  0.00    -0.018 C  
BRANCH  19  20
HETATM   20  C   UNL     1      -5.500   5.151  70.554  1.00  0.00    -0.004 C  
BRANCH  20  21
HETATM   21  C   UNL     1      -6.322   5.096  69.270  1.00  0.00    -0.034 C  
HETATM   22  N   UNL     1      -5.551   4.962  68.123  1.00  0.00    -0.015 N  
HETATM   23  O   UNL     1      -7.539   5.241  69.270  1.00  0.00    -0.071 OA 
HETATM   24  H   UNL     1      -4.537   4.910  68.209  1.00  0.00     0.000 HD 
BRANCH  22  25
HETATM   25  C   UNL     1      -6.145   4.896  66.828  1.00  0.00    -0.031 A  
HETATM   26  C   UNL     1      -6.036   5.943  65.900  1.00  0.00    -0.028 A  
HETATM   27  I   UNL     1      -5.282   7.867  66.367  1.00  0.00    -0.025 I  
HETATM   28  C   UNL     1      -6.597   5.825  64.625  1.00  0.00    -0.042 A  
HETATM   29  C   UNL     1      -7.340   4.691  64.271  1.00  0.00    -0.062 A  
HETATM   30  I   UNL     1      -8.195   4.783  62.339  1.00  0.00    -0.100 I  
HETATM   31  C   UNL     1      -7.524   3.642  65.189  1.00  0.00    -0.073 A  
HETATM   32  C   UNL     1      -8.398   2.476  64.868  1.00  0.00    -0.089 C  
HETATM   33  C   UNL     1      -6.915   3.755  66.468  1.00  0.00    -0.059 A  
HETATM   34  O   UNL     1      -9.247   2.049  65.630  1.00  0.00    -0.102 OA 
HETATM   35  I   UNL     1      -7.002   2.146  67.908  1.00  0.00    -0.044 I  
HETATM   36  O   UNL     1      -8.152   1.892  63.675  1.00  0.00    -0.064 OA 
ENDBRANCH  22  25
ENDBRANCH  20  21
ENDBRANCH  19  20
ENDBRANCH  18  19
ENDBRANCH  17  18
ENDBRANCH  15  17
ENDBRANCH   7  13
TORSDOF 7
ENDMDL
MODEL      205
REMARK 921   NORMALIZED FREE ENERGY PREDICTED BY IDOCK:   -1.95 KCAL/MOL
REMARK 922        TOTAL FREE ENERGY PREDICTED BY IDOCK:   -3.67 KCAL/MOL
REMARK 923 INTER-LIGAND FREE ENERGY PREDICTED BY IDOCK:   -3.74 KCAL/MOL
REMARK 924 INTRA-LIGAND FREE ENERGY PREDICTED BY IDOCK:    0.07 KCAL/MOL
REMARK 927      BINDING AFFINITY PREDICTED BY RF-SCORE:    0.00 PKD
ROOT
HETATM    1  O   UNL     1     -11.566  18.373  67.202  1.00  0.00     0.759 OA 
HETATM    2  C   UNL     1     -10.767  17.346  66.835  1.00  0.00    -0.125 C  
HETATM    3  C   UNL     1      -9.545  17.185  67.667  1.00  0.00    -0.254 A  
HETATM    4  O   UNL     1     -11.065  16.590  65.928  1.00  0.00    -0.036 OA 
HETATM    5  C   UNL     1      -9.184  15.914  68.189  1.00  0.00    -0.190 A  
HETATM    6  I   UNL     1     -10.480  14.200  67.962  1.00  0.00    -0.263 I  
HETATM    7  C   UNL     1      -8.000  15.730  68.958  1.00  0.00    -0.214 A  
HETATM    8  I   UNL     1      -8.933  20.205  67.096  1.00  0.00    -0.437 I  
HETATM    9  C   UNL     1      -7.169  16.843  69.183  1.00  0.00    -0.209 A  
HETATM   10  C   UNL     1      -8.682  18.269  67.908  1.00  0.00    -0.265 A  
HETATM   11  C   UNL     1      -7.521  18.100  68.674  1.00  0.00    -0.300 A  
HETATM   12  I   UNL     1      -5.244  16.739  70.045  1.00  0.00    -0.224 I  
ENDROOT
BRANCH   7  13
HETATM   13  N   UNL     1      -7.665  14.414  69.396  1.00  0.00    -0.351 N  
HETATM   14  O   UNL     1      -6.255  13.879  67.632  1.00  0.00    -0.221 OA 
HETATM   15  C   UNL     1      -6.794  13.592  68.698  1.00  0.00    -0.098 C  
HETATM   16  H   UNL     1      -8.083  14.064  70.258  1.00  0.00     0.000 HD 
BRANCH  15  17
HETATM   17  C   UNL     1      -6.415  12.319  69.444  1.00  0.00    -0.105 C  
BRANCH  17  18
HETATM   18  C   UNL     1      -7.028  11.104  68.752  1.00  0.00    -0.088 C  
BRANCH  18  19
HETATM   19  C   UNL     1      -8.508  10.860  69.067  1.00  0.00    -0.110 C  
BRANCH  19  20
HETATM   20  C   UNL     1      -8.797   9.611  69.906  1.00  0.00    -0.240 C  
BRANCH  20  21
HETATM   21  C   UNL     1      -8.516   8.348  69.099  1.00  0.00    -0.123 C  
HETATM   22  N   UNL     1      -9.128   7.213  69.614  1.00  0.00    -0.141 N  
HETATM   23  O   UNL     1      -7.754   8.345  68.139  1.00  0.00    -0.099 OA 
HETATM   24  H   UNL     1      -9.698   7.294  70.456  1.00  0.00     0.000 HD 
BRANCH  22  25
HETATM   25  C   UNL     1      -8.977   5.937  68.995  1.00  0.00    -0.122 A  
HETATM   26  C   UNL     1      -9.366   5.699  67.667  1.00  0.00    -0.110 A  
HETATM   27  I   UNL     1     -10.510   7.052  66.506  1.00  0.00     0.599 I  
HETATM   28  C   UNL     1      -9.165   4.446  67.081  1.00  0.00    -0.157 A  
HETATM   29  C   UNL     1      -8.636   3.382  67.826  1.00  0.00    -0.101 A  
HETATM   30  I   UNL     1      -8.534   1.553  66.772  1.00  0.00    -0.115 I  
HETATM   31  C   UNL     1      -8.286   3.561  69.176  1.00  0.00    -0.075 A  
HETATM   32  C   UNL     1      -7.821   2.416  70.012  1.00  0.00    -0.042 C  
HETATM   33  C   UNL     1      -8.457   4.849  69.750  1.00  0.00    -0.083 A  
HETATM   34  O   UNL     1      -8.261   2.180  71.123  1.00  0.00    -0.049 OA 
HETATM   35  I   UNL     1      -7.816   5.283  71.768  1.00  0.00    -0.116 I  
HETATM   36  O   UNL     1      -6.836   1.672  69.463  1.00  0.00    -0.032 OA 
ENDBRANCH  22  25
ENDBRANCH  20  21
ENDBRANCH  19  20
ENDBRANCH  18  19
ENDBRANCH  17  18
ENDBRANCH  15  17
ENDBRANCH   7  13
TORSDOF 7
ENDMDL
MODEL      206
REMARK 921   NORMALIZED FREE ENERGY PREDICTED BY IDOCK:   -1.95 KCAL/MOL
REMARK 922        TOTAL FREE ENERGY PREDICTED BY IDOCK:   -3.66 KCAL/MOL
REMARK 923 INTER-LIGAND FREE ENERGY PREDICTED BY IDOCK:   -3.48 KCAL/MOL
REMARK 924 INTRA-LIGAND FREE ENERGY PREDICTED BY IDOCK:   -0.18 KCAL/MOL
REMARK 927      BINDING AFFINITY PREDICTED BY RF-SCORE:    0.00 PKD
ROOT
HETATM    1  O   UNL     1      -7.642  19.933  67.553  1.00  0.00    -0.264 OA 
HETATM    2  C   UNL     1      -7.711  18.989  68.517  1.00  0.00    -0.333 C  
HETATM    3  C   UNL     1      -8.526  17.797  68.159  1.00  0.00    -0.262 A  
HETATM    4  O   UNL     1      -7.104  19.095  69.568  1.00  0.00    -0.255 OA 
HETATM    5  C   UNL     1      -8.022  16.484  68.364  1.00  0.00    -0.194 A  
HETATM    6  I   UNL     1      -5.990  16.153  69.022  1.00  0.00    -0.152 I  
HETATM    7  C   UNL     1      -8.799  15.330  68.062  1.00  0.00    -0.169 A  
HETATM    8  I   UNL     1     -10.846  19.779  67.443  1.00  0.00     0.184 I  
HETATM    9  C   UNL     1     -10.102  15.512  67.564  1.00  0.00    -0.241 A  
HETATM   10  C   UNL     1      -9.837  17.934  67.669  1.00  0.00    -0.304 A  
HETATM   11  C   UNL     1     -10.604  16.804  67.358  1.00  0.00    -0.291 A  
HETATM   12  I   UNL     1     -11.514  13.960  67.321  1.00  0.00    -0.444 I  
ENDROOT
BRANCH   7  13
HETATM   13  N   UNL     1      -8.255  14.043  68.352  1.00  0.00    -0.147 N  
HETATM   14  O   UNL     1      -8.243  13.243  66.174  1.00  0.00     0.774 OA 
HETATM   15  C   UNL     1      -8.001  13.099  67.369  1.00  0.00    -0.171 C  
HETATM   16  H   UNL     1      -8.043  13.809  69.322  1.00  0.00     0.000 HD 
BRANCH  15  17
HETATM   17  C   UNL     1      -7.231  11.883  67.866  1.00  0.00    -0.095 C  
BRANCH  17  18
HETATM   18  C   UNL     1      -6.500  11.215  66.704  1.00  0.00    -0.134 C  
BRANCH  18  19
HETATM   19  C   UNL     1      -7.213   9.998  66.106  1.00  0.00    -0.109 C  
BRANCH  19  20
HETATM   20  C   UNL     1      -6.303   8.812  65.769  1.00  0.00    -0.056 C  
BRANCH  20  21
HETATM   21  C   UNL     1      -6.723   7.574  66.555  1.00  0.00    -0.058 C  
HETATM   22  N   UNL     1      -7.552   7.855  67.632  1.00  0.00    -0.107 N  
HETATM   23  O   UNL     1      -6.292   6.458  66.289  1.00  0.00    -0.039 OA 
HETATM   24  H   UNL     1      -7.815   8.822  67.818  1.00  0.00     0.000 HD 
BRANCH  22  25
HETATM   25  C   UNL     1      -8.045   6.823  68.484  1.00  0.00    -0.120 A  
HETATM   26  C   UNL     1      -9.348   6.314  68.368  1.00  0.00    -0.113 A  
HETATM   27  I   UNL     1     -10.861   7.192  67.172  1.00  0.00     0.096 I  
HETATM   28  C   UNL     1      -9.782   5.274  69.195  1.00  0.00    -0.231 A  
HETATM   29  C   UNL     1      -8.951   4.765  70.202  1.00  0.00    -0.099 A  
HETATM   30  I   UNL     1      -9.859   3.282  71.406  1.00  0.00     0.125 I  
HETATM   31  C   UNL     1      -7.658   5.283  70.392  1.00  0.00    -0.075 A  
HETATM   32  C   UNL     1      -6.800   4.827  71.524  1.00  0.00    -0.043 C  
HETATM   33  C   UNL     1      -7.213   6.313  69.520  1.00  0.00    -0.078 A  
HETATM   34  O   UNL     1      -6.208   5.594  72.262  1.00  0.00    -0.040 OA 
HETATM   35  I   UNL     1      -5.197   7.085  69.618  1.00  0.00    -0.015 I  
HETATM   36  O   UNL     1      -6.690   3.487  71.652  1.00  0.00    -0.025 OA 
ENDBRANCH  22  25
ENDBRANCH  20  21
ENDBRANCH  19  20
ENDBRANCH  18  19
ENDBRANCH  17  18
ENDBRANCH  15  17
ENDBRANCH   7  13
TORSDOF 7
ENDMDL
MODEL      207
REMARK 921   NORMALIZED FREE ENERGY PREDICTED BY IDOCK:   -1.94 KCAL/MOL
REMARK 922        TOTAL FREE ENERGY PREDICTED BY IDOCK:   -3.65 KCAL/MOL
REMARK 923 INTER-LIGAND FREE ENERGY PREDICTED BY IDOCK:   -2.51 KCAL/MOL
REMARK 924 INTRA-LIGAND FREE ENERGY PREDICTED BY IDOCK:   -1.14 KCAL/MOL
REMARK 927      BINDING AFFINITY PREDICTED BY RF-SCORE:    0.00 PKD
ROOT
HETATM    1  O   UNL     1     -13.835  15.954  71.596  1.00  0.00    -0.398 OA 
HETATM    2  C   UNL     1     -12.505  15.758  71.460  1.00  0.00    -0.455 C  
HETATM    3  C   UNL     1     -12.134  14.595  70.610  1.00  0.00    -0.385 A  
HETATM    4  O   UNL     1     -11.688  16.513  71.956  1.00  0.00    -0.474 OA 
HETATM    5  C   UNL     1     -11.165  14.730  69.579  1.00  0.00    -0.278 A  
HETATM    6  I   UNL     1     -10.326  16.656  69.073  1.00  0.00    -0.312 I  
HETATM    7  C   UNL     1     -10.769  13.622  68.777  1.00  0.00    -0.244 A  
HETATM    8  I   UNL     1     -14.012  12.857  72.419  1.00  0.00     0.773 I  
HETATM    9  C   UNL     1     -11.350  12.367  69.035  1.00  0.00    -0.283 A  
HETATM   10  C   UNL     1     -12.683  13.322  70.841  1.00  0.00    -0.254 A  
HETATM   11  C   UNL     1     -12.308  12.229  70.048  1.00  0.00    -0.159 A  
HETATM   12  I   UNL     1     -10.707  10.553  68.165  1.00  0.00    -0.351 I  
ENDROOT
BRANCH   7  13
HETATM   13  N   UNL     1      -9.744  13.814  67.803  1.00  0.00    -0.224 N  
HETATM   14  O   UNL     1      -7.940  13.451  69.216  1.00  0.00     0.264 OA 
HETATM   15  C   UNL     1      -8.396  13.693  68.102  1.00  0.00    -0.166 C  
HETATM   16  H   UNL     1     -10.015  14.049  66.848  1.00  0.00     0.000 HD 
BRANCH  15  17
HETATM   17  C   UNL     1      -7.487  13.730  66.880  1.00  0.00     0.544 C  
BRANCH  17  18
HETATM   18  C   UNL     1      -7.339  12.327  66.295  1.00  0.00     0.895 C  
BRANCH  18  19
HETATM   19  C   UNL     1      -6.410  11.395  67.080  1.00  0.00    -0.109 C  
BRANCH  19  20
HETATM   20  C   UNL     1      -5.717  10.313  66.245  1.00  0.00    -0.067 C  
BRANCH  20  21
HETATM   21  C   UNL     1      -6.046   8.926  66.787  1.00  0.00    -0.057 C  
HETATM   22  N   UNL     1      -7.407   8.680  66.892  1.00  0.00    -0.079 N  
HETATM   23  O   UNL     1      -5.173   8.151  67.163  1.00  0.00    -0.033 OA 
HETATM   24  H   UNL     1      -8.067   9.405  66.613  1.00  0.00     0.000 HD 
BRANCH  22  25
HETATM   25  C   UNL     1      -7.905   7.436  67.381  1.00  0.00    -0.111 A  
HETATM   26  C   UNL     1      -8.168   7.218  68.743  1.00  0.00    -0.129 A  
HETATM   27  I   UNL     1      -7.576   8.539  70.291  1.00  0.00    -0.098 I  
HETATM   28  C   UNL     1      -8.694   5.999  69.180  1.00  0.00    -0.120 A  
HETATM   29  C   UNL     1      -8.904   4.945  68.280  1.00  0.00    -0.103 A  
HETATM   30  I   UNL     1      -9.591   3.160  69.182  1.00  0.00     0.379 I  
HETATM   31  C   UNL     1      -8.601   5.100  66.916  1.00  0.00    -0.105 A  
HETATM   32  C   UNL     1      -8.719   3.957  65.963  1.00  0.00    -0.115 C  
HETATM   33  C   UNL     1      -8.105   6.356  66.476  1.00  0.00    -0.111 A  
HETATM   34  O   UNL     1      -7.845   3.660  65.168  1.00  0.00    -0.084 OA 
HETATM   35  I   UNL     1      -7.744   6.761  64.384  1.00  0.00    -0.066 I  
HETATM   36  O   UNL     1      -9.892   3.291  66.014  1.00  0.00     0.004 OA 
ENDBRANCH  22  25
ENDBRANCH  20  21
ENDBRANCH  19  20
ENDBRANCH  18  19
ENDBRANCH  17  18
ENDBRANCH  15  17
ENDBRANCH   7  13
TORSDOF 7
ENDMDL
MODEL      208
REMARK 921   NORMALIZED FREE ENERGY PREDICTED BY IDOCK:   -1.84 KCAL/MOL
REMARK 922        TOTAL FREE ENERGY PREDICTED BY IDOCK:   -3.52 KCAL/MOL
REMARK 923 INTER-LIGAND FREE ENERGY PREDICTED BY IDOCK:   -4.14 KCAL/MOL
REMARK 924 INTRA-LIGAND FREE ENERGY PREDICTED BY IDOCK:    0.62 KCAL/MOL
REMARK 927      BINDING AFFINITY PREDICTED BY RF-SCORE:    0.00 PKD
ROOT
HETATM    1  O   UNL     1      -8.047  16.447  69.330  1.00  0.00    -0.228 OA 
HETATM    2  C   UNL     1      -8.085  15.123  69.598  1.00  0.00    -0.096 C  
HETATM    3  C   UNL     1      -8.471  14.268  68.444  1.00  0.00    -0.166 A  
HETATM    4  O   UNL     1      -7.772  14.677  70.688  1.00  0.00     0.814 OA 
HETATM    5  C   UNL     1      -7.708  13.118  68.106  1.00  0.00    -0.143 A  
HETATM    6  I   UNL     1      -5.856  12.661  69.122  1.00  0.00    -0.102 I  
HETATM    7  C   UNL     1      -8.080  12.266  67.027  1.00  0.00    -0.141 A  
HETATM    8  I   UNL     1     -11.001  16.090  68.126  1.00  0.00    -0.276 I  
HETATM    9  C   UNL     1      -9.243  12.575  66.300  1.00  0.00    -0.132 A  
HETATM   10  C   UNL     1      -9.632  14.535  67.698  1.00  0.00    -0.214 A  
HETATM   11  C   UNL     1      -9.999  13.709  66.628  1.00  0.00    -0.283 A  
HETATM   12  I   UNL     1     -10.124  11.304  64.862  1.00  0.00    -0.395 I  
ENDROOT
BRANCH   7  13
HETATM   13  N   UNL     1      -7.304  11.093  66.783  1.00  0.00    -0.140 N  
HETATM   14  O   UNL     1      -5.370  12.172  66.089  1.00  0.00    -0.065 OA 
HETATM   15  C   UNL     1      -5.990  11.142  66.345  1.00  0.00    -0.145 C  
HETATM   16  H   UNL     1      -7.735  10.181  66.937  1.00  0.00     0.000 HD 
BRANCH  15  17
HETATM   17  C   UNL     1      -5.286   9.791  66.350  1.00  0.00    -0.044 C  
BRANCH  17  18
HETATM   18  C   UNL     1      -6.207   8.724  66.939  1.00  0.00    -0.059 C  
BRANCH  18  19
HETATM   19  C   UNL     1      -6.037   7.324  66.341  1.00  0.00    -0.040 C  
BRANCH  19  20
HETATM   20  C   UNL     1      -7.198   6.359  66.603  1.00  0.00    -0.077 C  
BRANCH  20  21
HETATM   21  C   UNL     1      -7.366   6.118  68.100  1.00  0.00    -0.085 C  
HETATM   22  N   UNL     1      -8.669   5.817  68.470  1.00  0.00    -0.111 N  
HETATM   23  O   UNL     1      -6.440   6.262  68.890  1.00  0.00    -0.039 OA 
HETATM   24  H   UNL     1      -9.393   5.777  67.753  1.00  0.00     0.000 HD 
BRANCH  22  25
HETATM   25  C   UNL     1      -9.019   5.563  69.829  1.00  0.00    -0.125 A  
HETATM   26  C   UNL     1      -9.178   6.595  70.767  1.00  0.00    -0.155 A  
HETATM   27  I   UNL     1      -8.617   8.609  70.421  1.00  0.00    -0.231 I  
HETATM   28  C   UNL     1      -9.561   6.309  72.081  1.00  0.00    -0.158 A  
HETATM   29  C   UNL     1      -9.727   4.984  72.508  1.00  0.00    -0.155 A  
HETATM   30  I   UNL     1     -10.189   4.787  74.562  1.00  0.00    -0.230 I  
HETATM   31  C   UNL     1      -9.523   3.916  71.617  1.00  0.00    -0.220 A  
HETATM   32  C   UNL     1      -9.592   2.499  72.079  1.00  0.00    -0.131 C  
HETATM   33  C   UNL     1      -9.173   4.220  70.273  1.00  0.00    -0.133 A  
HETATM   34  O   UNL     1      -8.744   1.668  71.807  1.00  0.00    -0.057 OA 
HETATM   35  I   UNL     1      -8.979   2.672  68.778  1.00  0.00    -0.226 I  
HETATM   36  O   UNL     1     -10.694   2.186  72.794  1.00  0.00    -0.151 OA 
ENDBRANCH  22  25
ENDBRANCH  20  21
ENDBRANCH  19  20
ENDBRANCH  18  19
ENDBRANCH  17  18
ENDBRANCH  15  17
ENDBRANCH   7  13
TORSDOF 7
ENDMDL
MODEL      209
REMARK 921   NORMALIZED FREE ENERGY PREDICTED BY IDOCK:   -1.73 KCAL/MOL
REMARK 922        TOTAL FREE ENERGY PREDICTED BY IDOCK:   -3.36 KCAL/MOL
REMARK 923 INTER-LIGAND FREE ENERGY PREDICTED BY IDOCK:   -2.98 KCAL/MOL
REMARK 924 INTRA-LIGAND FREE ENERGY PREDICTED BY IDOCK:   -0.37 KCAL/MOL
REMARK 927      BINDING AFFINITY PREDICTED BY RF-SCORE:    0.00 PKD
ROOT
HETATM    1  O   UNL     1      -5.753  15.545  69.919  1.00  0.00    -0.122 OA 
HETATM    2  C   UNL     1      -6.611  14.546  70.219  1.00  0.00    -0.098 C  
HETATM    3  C   UNL     1      -7.414  14.053  69.068  1.00  0.00    -0.060 A  
HETATM    4  O   UNL     1      -6.673  14.062  71.335  1.00  0.00     0.415 OA 
HETATM    5  C   UNL     1      -7.520  12.661  68.801  1.00  0.00    -0.044 A  
HETATM    6  I   UNL     1      -6.380  11.212  69.928  1.00  0.00    -0.051 I  
HETATM    7  C   UNL     1      -8.311  12.165  67.726  1.00  0.00    -0.159 A  
HETATM    8  I   UNL     1      -8.256  17.029  68.564  1.00  0.00    -0.232 I  
HETATM    9  C   UNL     1      -9.012  13.088  66.928  1.00  0.00    -0.209 A  
HETATM   10  C   UNL     1      -8.137  14.940  68.252  1.00  0.00    -0.132 A  
HETATM   11  C   UNL     1      -8.908  14.462  67.185  1.00  0.00    -0.244 A  
HETATM   12  I   UNL     1     -10.452  12.560  65.477  1.00  0.00    -0.331 I  
ENDROOT
BRANCH   7  13
HETATM   13  N   UNL     1      -8.426  10.753  67.555  1.00  0.00    -0.119 N  
HETATM   14  O   UNL     1      -9.706  10.341  69.446  1.00  0.00    -0.213 OA 
HETATM   15  C   UNL     1      -9.138   9.948  68.430  1.00  0.00    -0.123 C  
HETATM   16  H   UNL     1      -7.965  10.318  66.755  1.00  0.00     0.000 HD 
BRANCH  15  17
HETATM   17  C   UNL     1      -9.307   8.512  67.950  1.00  0.00    -0.148 C  
BRANCH  17  18
HETATM   18  C   UNL     1      -9.512   7.582  69.143  1.00  0.00    -0.150 C  
BRANCH  18  19
HETATM   19  C   UNL     1      -8.238   7.239  69.922  1.00  0.00    -0.133 C  
BRANCH  19  20
HETATM   20  C   UNL     1      -7.892   5.748  69.980  1.00  0.00    -0.091 C  
BRANCH  20  21
HETATM   21  C   UNL     1      -7.367   5.267  68.631  1.00  0.00    -0.070 C  
HETATM   22  N   UNL     1      -8.031   4.150  68.143  1.00  0.00    -0.081 N  
HETATM   23  O   UNL     1      -6.397   5.784  68.089  1.00  0.00    -0.037 OA 
HETATM   24  H   UNL     1      -8.790   3.745  68.690  1.00  0.00     0.000 HD 
BRANCH  22  25
HETATM   25  C   UNL     1      -7.677   3.556  66.896  1.00  0.00    -0.080 A  
HETATM   26  C   UNL     1      -6.663   2.591  66.787  1.00  0.00    -0.040 A  
HETATM   27  I   UNL     1      -5.309   2.113  68.345  1.00  0.00    -0.014 I  
HETATM   28  C   UNL     1      -6.371   2.002  65.554  1.00  0.00    -0.023 A  
HETATM   29  C   UNL     1      -7.034   2.411  64.389  1.00  0.00    -0.048 A  
HETATM   30  I   UNL     1      -6.347   1.470  62.624  1.00  0.00    -0.010 I  
HETATM   31  C   UNL     1      -8.017   3.416  64.442  1.00  0.00    -0.086 A  
HETATM   32  C   UNL     1      -8.658   3.938  63.199  1.00  0.00    -0.095 C  
HETATM   33  C   UNL     1      -8.334   3.979  65.707  1.00  0.00    -0.109 A  
HETATM   34  O   UNL     1      -8.783   5.126  62.963  1.00  0.00    -0.127 OA 
HETATM   35  I   UNL     1      -9.927   5.421  65.936  1.00  0.00     0.160 I  
HETATM   36  O   UNL     1      -9.134   2.990  62.363  1.00  0.00    -0.081 OA 
ENDBRANCH  22  25
ENDBRANCH  20  21
ENDBRANCH  19  20
ENDBRANCH  18  19
ENDBRANCH  17  18
ENDBRANCH  15  17
ENDBRANCH   7  13
TORSDOF 7
ENDMDL
MODEL      210
REMARK 921   NORMALIZED FREE ENERGY PREDICTED BY IDOCK:   -1.72 KCAL/MOL
REMARK 922        TOTAL FREE ENERGY PREDICTED BY IDOCK:   -3.35 KCAL/MOL
REMARK 923 INTER-LIGAND FREE ENERGY PREDICTED BY IDOCK:   -3.80 KCAL/MOL
REMARK 924 INTRA-LIGAND FREE ENERGY PREDICTED BY IDOCK:    0.45 KCAL/MOL
REMARK 927      BINDING AFFINITY PREDICTED BY RF-SCORE:    0.00 PKD
ROOT
HETATM    1  O   UNL     1      -6.946   5.574  72.511  1.00  0.00    -0.078 OA 
HETATM    2  C   UNL     1      -6.028   6.520  72.212  1.00  0.00    -0.038 C  
HETATM    3  C   UNL     1      -5.924   6.846  70.764  1.00  0.00    -0.028 A  
HETATM    4  O   UNL     1      -5.384   7.088  73.075  1.00  0.00    -0.037 OA 
HETATM    5  C   UNL     1      -5.931   8.196  70.322  1.00  0.00    -0.028 A  
HETATM    6  I   UNL     1      -6.281   9.825  71.698  1.00  0.00     0.584 I  
HETATM    7  C   UNL     1      -5.796   8.532  68.945  1.00  0.00    -0.040 A  
HETATM    8  I   UNL     1      -5.549   3.778  70.247  1.00  0.00    -0.014 I  
HETATM    9  C   UNL     1      -5.637   7.490  68.014  1.00  0.00    -0.027 A  
HETATM   10  C   UNL     1      -5.753   5.835  69.802  1.00  0.00    -0.019 A  
HETATM   11  C   UNL     1      -5.632   6.155  68.444  1.00  0.00    -0.012 A  
HETATM   12  I   UNL     1      -5.142   7.771  65.980  1.00  0.00    -0.025 I  
ENDROOT
BRANCH   7  13
HETATM   13  N   UNL     1      -5.747   9.910  68.578  1.00  0.00    -0.042 N  
HETATM   14  O   UNL     1      -7.716   9.946  67.349  1.00  0.00    -0.092 OA 
HETATM   15  C   UNL     1      -6.733  10.517  67.815  1.00  0.00    -0.069 C  
HETATM   16  H   UNL     1      -4.955  10.472  68.890  1.00  0.00     0.000 HD 
BRANCH  15  17
HETATM   17  C   UNL     1      -6.593  12.031  67.717  1.00  0.00    -0.093 C  
BRANCH  17  18
HETATM   18  C   UNL     1      -7.905  12.704  68.114  1.00  0.00    -0.145 C  
BRANCH  18  19
HETATM   19  C   UNL     1      -8.663  13.371  66.961  1.00  0.00    -0.195 C  
BRANCH  19  20
HETATM   20  C   UNL     1      -9.578  12.440  66.159  1.00  0.00    -0.238 C  
BRANCH  20  21
HETATM   21  C   UNL     1     -10.647  11.832  67.062  1.00  0.00    -0.232 C  
HETATM   22  N   UNL     1     -10.195  11.546  68.342  1.00  0.00    -0.199 N  
HETATM   23  O   UNL     1     -11.768  11.558  66.648  1.00  0.00    -0.486 OA 
HETATM   24  H   UNL     1      -9.226  11.751  68.585  1.00  0.00     0.000 HD 
BRANCH  22  25
HETATM   25  C   UNL     1     -11.053  10.970  69.326  1.00  0.00    -0.254 A  
HETATM   26  C   UNL     1     -11.924  11.747  70.105  1.00  0.00    -0.339 A  
HETATM   27  I   UNL     1     -11.874  13.864  70.187  1.00  0.00    -0.242 I  
HETATM   28  C   UNL     1     -12.780  11.143  71.032  1.00  0.00    -0.476 A  
HETATM   29  C   UNL     1     -12.737   9.759  71.251  1.00  0.00    -0.369 A  
HETATM   30  I   UNL     1     -14.032   9.084  72.780  1.00  0.00     0.640 I  
HETATM   31  C   UNL     1     -11.839   8.950  70.533  1.00  0.00    -0.073 A  
HETATM   32  C   UNL     1     -11.706   7.493  70.827  1.00  0.00    -0.256 C  
HETATM   33  C   UNL     1     -11.003   9.569  69.566  1.00  0.00    -0.195 A  
HETATM   34  O   UNL     1     -10.631   6.940  70.979  1.00  0.00    -0.217 OA 
HETATM   35  I   UNL     1      -9.690   8.411  68.297  1.00  0.00    -0.205 I  
HETATM   36  O   UNL     1     -12.871   6.812  70.874  1.00  0.00    -0.259 OA 
ENDBRANCH  22  25
ENDBRANCH  20  21
ENDBRANCH  19  20
ENDBRANCH  18  19
ENDBRANCH  17  18
ENDBRANCH  15  17
ENDBRANCH   7  13
TORSDOF 7
ENDMDL
MODEL      211
REMARK 921   NORMALIZED FREE ENERGY PREDICTED BY IDOCK:   -1.66 KCAL/MOL
REMARK 922        TOTAL FREE ENERGY PREDICTED BY IDOCK:   -3.26 KCAL/MOL
REMARK 923 INTER-LIGAND FREE ENERGY PREDICTED BY IDOCK:   -3.25 KCAL/MOL
REMARK 924 INTRA-LIGAND FREE ENERGY PREDICTED BY IDOCK:   -0.02 KCAL/MOL
REMARK 927      BINDING AFFINITY PREDICTED BY RF-SCORE:    0.00 PKD
ROOT
HETATM    1  O   UNL     1      -8.650  15.510  66.054  1.00  0.00    -0.192 OA 
HETATM    2  C   UNL     1      -8.433  14.452  66.867  1.00  0.00    -0.127 C  
HETATM    3  C   UNL     1      -9.564  14.130  67.778  1.00  0.00    -0.219 A  
HETATM    4  O   UNL     1      -7.411  13.793  66.808  1.00  0.00     0.329 OA 
HETATM    5  C   UNL     1     -10.043  12.797  67.896  1.00  0.00    -0.231 A  
HETATM    6  I   UNL     1      -9.287  11.217  66.631  1.00  0.00    -0.221 I  
HETATM    7  C   UNL     1     -11.100  12.460  68.789  1.00  0.00    -0.262 A  
HETATM    8  I   UNL     1      -9.487  17.124  68.700  1.00  0.00    -0.205 I  
HETATM    9  C   UNL     1     -11.662  13.480  69.577  1.00  0.00    -0.322 A  
HETATM   10  C   UNL     1     -10.147  15.118  68.591  1.00  0.00    -0.222 A  
HETATM   11  C   UNL     1     -11.196  14.797  69.462  1.00  0.00    -0.305 A  
HETATM   12  I   UNL     1     -13.029  13.155  71.153  1.00  0.00     0.018 I  
ENDROOT
BRANCH   7  13
HETATM   13  N   UNL     1     -11.488  11.091  68.904  1.00  0.00    -0.270 N  
HETATM   14  O   UNL     1     -10.247  10.606  70.804  1.00  0.00     0.712 OA 
HETATM   15  C   UNL     1     -11.038  10.270  69.927  1.00  0.00    -0.304 C  
HETATM   16  H   UNL     1     -12.123  10.702  68.207  1.00  0.00     0.000 HD 
BRANCH  15  17
HETATM   17  C   UNL     1     -11.734   8.917  69.983  1.00  0.00     0.214 C  
BRANCH  17  18
HETATM   18  C   UNL     1     -10.735   7.801  69.685  1.00  0.00    -0.223 C  
BRANCH  18  19
HETATM   19  C   UNL     1     -10.586   7.447  68.201  1.00  0.00    -0.216 C  
BRANCH  19  20
HETATM   20  C   UNL     1      -9.180   7.642  67.625  1.00  0.00    -0.144 C  
BRANCH  20  21
HETATM   21  C   UNL     1      -8.166   6.798  68.389  1.00  0.00    -0.119 C  
HETATM   22  N   UNL     1      -8.741   5.960  69.334  1.00  0.00    -0.115 N  
HETATM   23  O   UNL     1      -6.957   6.924  68.223  1.00  0.00    -0.074 OA 
HETATM   24  H   UNL     1      -9.754   5.961  69.449  1.00  0.00     0.000 HD 
BRANCH  22  25
HETATM   25  C   UNL     1      -7.948   5.097  70.147  1.00  0.00    -0.079 A  
HETATM   26  C   UNL     1      -7.413   3.893  69.662  1.00  0.00    -0.052 A  
HETATM   27  I   UNL     1      -7.948   3.021  67.807  1.00  0.00    -0.087 I  
HETATM   28  C   UNL     1      -6.607   3.093  70.477  1.00  0.00    -0.032 A  
HETATM   29  C   UNL     1      -6.374   3.439  71.815  1.00  0.00    -0.015 A  
HETATM   30  I   UNL     1      -5.228   2.023  72.889  1.00  0.00     0.000 I  
HETATM   31  C   UNL     1      -6.937   4.606  72.360  1.00  0.00    -0.062 A  
HETATM   32  C   UNL     1      -6.788   4.935  73.808  1.00  0.00    -0.075 C  
HETATM   33  C   UNL     1      -7.722   5.432  71.511  1.00  0.00    -0.105 A  
HETATM   34  O   UNL     1      -7.721   5.271  74.515  1.00  0.00    -0.088 OA 
HETATM   35  I   UNL     1      -8.516   7.324  72.193  1.00  0.00    -0.136 I  
HETATM   36  O   UNL     1      -5.523   4.873  74.278  1.00  0.00    -0.016 OA 
ENDBRANCH  22  25
ENDBRANCH  20  21
ENDBRANCH  19  20
ENDBRANCH  18  19
ENDBRANCH  17  18
ENDBRANCH  15  17
ENDBRANCH   7  13
TORSDOF 7
ENDMDL
MODEL      212
REMARK 921   NORMALIZED FREE ENERGY PREDICTED BY IDOCK:   -1.61 KCAL/MOL
REMARK 922        TOTAL FREE ENERGY PREDICTED BY IDOCK:   -3.19 KCAL/MOL
REMARK 923 INTER-LIGAND FREE ENERGY PREDICTED BY IDOCK:   -4.99 KCAL/MOL
REMARK 924 INTRA-LIGAND FREE ENERGY PREDICTED BY IDOCK:    1.80 KCAL/MOL
REMARK 927      BINDING AFFINITY PREDICTED BY RF-SCORE:    0.00 PKD
ROOT
HETATM    1  O   UNL     1      -9.960  17.803  69.001  1.00  0.00    -0.327 OA 
HETATM    2  C   UNL     1     -10.676  16.753  68.544  1.00  0.00    -0.358 C  
HETATM    3  C   UNL     1      -9.904  15.488  68.411  1.00  0.00    -0.210 A  
HETATM    4  O   UNL     1     -11.869  16.837  68.315  1.00  0.00     0.203 OA 
HETATM    5  C   UNL     1     -10.411  14.270  68.939  1.00  0.00    -0.238 A  
HETATM    6  I   UNL     1     -12.223  14.225  70.116  1.00  0.00    -0.366 I  
HETATM    7  C   UNL     1      -9.706  13.041  68.793  1.00  0.00     0.059 A  
HETATM    8  I   UNL     1      -7.829  17.101  66.705  1.00  0.00    -0.371 I  
HETATM    9  C   UNL     1      -8.487  13.048  68.091  1.00  0.00    -0.176 A  
HETATM   10  C   UNL     1      -8.687  15.449  67.710  1.00  0.00    -0.164 A  
HETATM   11  C   UNL     1      -7.980  14.248  67.571  1.00  0.00    -0.203 A  
HETATM   12  I   UNL     1      -7.430  11.313  67.518  1.00  0.00    -0.128 I  
ENDROOT
BRANCH   7  13
HETATM   13  N   UNL     1     -10.304  11.845  69.291  1.00  0.00    -0.421 N  
HETATM   14  O   UNL     1     -11.242  11.143  67.287  1.00  0.00    -0.296 OA 
HETATM   15  C   UNL     1     -11.018  10.973  68.483  1.00  0.00    -0.228 C  
HETATM   16  H   UNL     1     -10.202  11.622  70.281  1.00  0.00     0.000 HD 
BRANCH  15  17
HETATM   17  C   UNL     1     -11.388   9.663  69.166  1.00  0.00     0.029 C  
BRANCH  17  18
HETATM   18  C   UNL     1     -10.179   9.099  69.908  1.00  0.00    -0.222 C  
BRANCH  18  19
HETATM   19  C   UNL     1     -10.393   8.862  71.406  1.00  0.00    -0.377 C  
BRANCH  19  20
HETATM   20  C   UNL     1      -9.114   8.823  72.249  1.00  0.00    -0.163 C  
BRANCH  20  21
HETATM   21  C   UNL     1      -8.328   7.546  71.971  1.00  0.00    -0.107 C  
HETATM   22  N   UNL     1      -8.697   6.913  70.793  1.00  0.00    -0.144 N  
HETATM   23  O   UNL     1      -7.510   7.100  72.768  1.00  0.00    -0.079 OA 
HETATM   24  H   UNL     1      -9.432   7.322  70.217  1.00  0.00     0.000 HD 
BRANCH  22  25
HETATM   25  C   UNL     1      -8.073   5.702  70.369  1.00  0.00    -0.105 A  
HETATM   26  C   UNL     1      -7.990   4.572  71.198  1.00  0.00    -0.082 A  
HETATM   27  I   UNL     1      -8.464   4.579  73.263  1.00  0.00    -0.100 I  
HETATM   28  C   UNL     1      -7.406   3.390  70.733  1.00  0.00    -0.037 A  
HETATM   29  C   UNL     1      -6.829   3.329  69.457  1.00  0.00    -0.037 A  
HETATM   30  I   UNL     1      -5.900   1.482  69.014  1.00  0.00    -0.024 I  
HETATM   31  C   UNL     1      -6.838   4.455  68.614  1.00  0.00    -0.051 A  
HETATM   32  C   UNL     1      -6.138   4.441  67.297  1.00  0.00    -0.028 C  
HETATM   33  C   UNL     1      -7.470   5.639  69.082  1.00  0.00    -0.083 A  
HETATM   34  O   UNL     1      -5.391   5.330  66.930  1.00  0.00    -0.008 OA 
HETATM   35  I   UNL     1      -7.677   7.383  67.822  1.00  0.00    -0.115 I  
HETATM   36  O   UNL     1      -6.424   3.381  66.511  1.00  0.00    -0.038 OA 
ENDBRANCH  22  25
ENDBRANCH  20  21
ENDBRANCH  19  20
ENDBRANCH  18  19
ENDBRANCH  17  18
ENDBRANCH  15  17
ENDBRANCH   7  13
TORSDOF 7
ENDMDL
MODEL      213
REMARK 921   NORMALIZED FREE ENERGY PREDICTED BY IDOCK:   -1.52 KCAL/MOL
REMARK 922        TOTAL FREE ENERGY PREDICTED BY IDOCK:   -3.06 KCAL/MOL
REMARK 923 INTER-LIGAND FREE ENERGY PREDICTED BY IDOCK:   -2.55 KCAL/MOL
REMARK 924 INTRA-LIGAND FREE ENERGY PREDICTED BY IDOCK:   -0.50 KCAL/MOL
REMARK 927      BINDING AFFINITY PREDICTED BY RF-SCORE:    0.00 PKD
ROOT
HETATM    1  O   UNL     1      -5.899   9.080  71.515  1.00  0.00    -0.051 OA 
HETATM    2  C   UNL     1      -7.054   9.610  71.058  1.00  0.00     0.067 C  
HETATM    3  C   UNL     1      -6.886  10.807  70.190  1.00  0.00    -0.074 A  
HETATM    4  O   UNL     1      -8.136   9.106  71.302  1.00  0.00    -0.285 OA 
HETATM    5  C   UNL     1      -7.564  10.901  68.944  1.00  0.00    -0.128 A  
HETATM    6  I   UNL     1      -8.714   9.246  68.165  1.00  0.00    -0.124 I  
HETATM    7  C   UNL     1      -7.445  12.052  68.115  1.00  0.00    -0.112 A  
HETATM    8  I   UNL     1      -5.145  12.046  72.482  1.00  0.00     0.796 I  
HETATM    9  C   UNL     1      -6.646  13.120  68.562  1.00  0.00    -0.088 A  
HETATM   10  C   UNL     1      -6.105  11.901  70.603  1.00  0.00     0.165 A  
HETATM   11  C   UNL     1      -5.973  13.032  69.788  1.00  0.00    -0.130 A  
HETATM   12  I   UNL     1      -6.559  15.015  67.634  1.00  0.00     0.019 I  
ENDROOT
BRANCH   7  13
HETATM   13  N   UNL     1      -8.204  12.107  66.907  1.00  0.00    -0.285 N  
HETATM   14  O   UNL     1      -9.955  13.387  67.733  1.00  0.00    -0.222 OA 
HETATM   15  C   UNL     1      -9.404  12.794  66.809  1.00  0.00    -0.241 C  
HETATM   16  H   UNL     1      -7.848  11.622  66.084  1.00  0.00     0.000 HD 
BRANCH  15  17
HETATM   17  C   UNL     1      -9.939  12.900  65.386  1.00  0.00    -0.208 C  
BRANCH  17  18
HETATM   18  C   UNL     1     -10.909  11.755  65.105  1.00  0.00    -0.351 C  
BRANCH  18  19
HETATM   19  C   UNL     1     -10.246  10.405  64.810  1.00  0.00    -0.319 C  
BRANCH  19  20
HETATM   20  C   UNL     1      -9.191  10.428  63.699  1.00  0.00    -0.310 C  
BRANCH  20  21
HETATM   21  C   UNL     1      -8.652   9.024  63.443  1.00  0.00    -0.135 C  
HETATM   22  N   UNL     1      -7.977   8.482  64.528  1.00  0.00    -0.138 N  
HETATM   23  O   UNL     1      -8.749   8.480  62.349  1.00  0.00    -0.179 OA 
HETATM   24  H   UNL     1      -7.890   9.030  65.384  1.00  0.00     0.000 HD 
BRANCH  22  25
HETATM   25  C   UNL     1      -7.402   7.178  64.473  1.00  0.00    -0.081 A  
HETATM   26  C   UNL     1      -6.185   6.923  63.822  1.00  0.00    -0.043 A  
HETATM   27  I   UNL     1      -5.197   8.316  62.567  1.00  0.00    -0.071 I  
HETATM   28  C   UNL     1      -5.632   5.639  63.824  1.00  0.00    -0.014 A  
HETATM   29  C   UNL     1      -6.313   4.566  64.415  1.00  0.00    -0.034 A  
HETATM   30  I   UNL     1      -5.347   2.699  64.193  1.00  0.00    -0.010 I  
HETATM   31  C   UNL     1      -7.562   4.765  65.029  1.00  0.00    -0.077 A  
HETATM   32  C   UNL     1      -8.349   3.618  65.570  1.00  0.00    -0.105 C  
HETATM   33  C   UNL     1      -8.096   6.081  65.056  1.00  0.00    -0.133 A  
HETATM   34  O   UNL     1      -9.533   3.454  65.337  1.00  0.00    -0.158 OA 
HETATM   35  I   UNL     1      -9.933   6.536  66.099  1.00  0.00     0.575 I  
HETATM   36  O   UNL     1      -7.660   2.786  66.380  1.00  0.00    -0.074 OA 
ENDBRANCH  22  25
ENDBRANCH  20  21
ENDBRANCH  19  20
ENDBRANCH  18  19
ENDBRANCH  17  18
ENDBRANCH  15  17
ENDBRANCH   7  13
TORSDOF 7
ENDMDL
MODEL      214
REMARK 921   NORMALIZED FREE ENERGY PREDICTED BY IDOCK:   -1.47 KCAL/MOL
REMARK 922        TOTAL FREE ENERGY PREDICTED BY IDOCK:   -3.00 KCAL/MOL
REMARK 923 INTER-LIGAND FREE ENERGY PREDICTED BY IDOCK:   -2.55 KCAL/MOL
REMARK 924 INTRA-LIGAND FREE ENERGY PREDICTED BY IDOCK:   -0.45 KCAL/MOL
REMARK 927      BINDING AFFINITY PREDICTED BY RF-SCORE:    0.00 PKD
ROOT
HETATM    1  O   UNL     1     -11.984   4.437  72.877  1.00  0.00     0.103 OA 
HETATM    2  C   UNL     1     -10.863   4.939  73.442  1.00  0.00    -0.295 C  
HETATM    3  C   UNL     1      -9.655   4.884  72.575  1.00  0.00    -0.176 A  
HETATM    4  O   UNL     1     -10.870   5.441  74.552  1.00  0.00    -0.235 OA 
HETATM    5  C   UNL     1      -8.831   6.030  72.406  1.00  0.00    -0.133 A  
HETATM    6  I   UNL     1      -9.387   7.945  73.239  1.00  0.00    -0.234 I  
HETATM    7  C   UNL     1      -7.652   5.990  71.610  1.00  0.00    -0.100 A  
HETATM    8  I   UNL     1     -10.241   1.829  72.197  1.00  0.00    -0.023 I  
HETATM    9  C   UNL     1      -7.299   4.775  70.995  1.00  0.00    -0.060 A  
HETATM   10  C   UNL     1      -9.262   3.687  71.951  1.00  0.00    -0.116 A  
HETATM   11  C   UNL     1      -8.109   3.642  71.156  1.00  0.00    -0.068 A  
HETATM   12  I   UNL     1      -5.462   4.422  70.016  1.00  0.00    -0.013 I  
ENDROOT
BRANCH   7  13
HETATM   13  N   UNL     1      -6.836   7.159  71.535  1.00  0.00    -0.055 N  
HETATM   14  O   UNL     1      -8.091   8.277  69.934  1.00  0.00    -0.112 OA 
HETATM   15  C   UNL     1      -7.136   8.229  70.706  1.00  0.00    -0.044 C  
HETATM   16  H   UNL     1      -5.999   7.210  72.116  1.00  0.00     0.000 HD 
BRANCH  15  17
HETATM   17  C   UNL     1      -6.258   9.452  70.935  1.00  0.00    -0.074 C  
BRANCH  17  18
HETATM   18  C   UNL     1      -5.139   9.495  69.896  1.00  0.00    -0.033 C  
BRANCH  18  19
HETATM   19  C   UNL     1      -5.248  10.633  68.876  1.00  0.00    -0.041 C  
BRANCH  19  20
HETATM   20  C   UNL     1      -5.922  10.257  67.552  1.00  0.00    -0.053 C  
BRANCH  20  21
HETATM   21  C   UNL     1      -7.288  10.925  67.438  1.00  0.00    -0.099 C  
HETATM   22  N   UNL     1      -7.387  11.806  66.369  1.00  0.00    -0.371 N  
HETATM   23  O   UNL     1      -8.171  10.747  68.270  1.00  0.00    -0.113 OA 
HETATM   24  H   UNL     1      -6.581  11.940  65.760  1.00  0.00     0.000 HD 
BRANCH  22  25
HETATM   25  C   UNL     1      -8.590  12.526  66.104  1.00  0.00     0.360 A  
HETATM   26  C   UNL     1      -8.882  13.750  66.726  1.00  0.00    -0.138 A  
HETATM   27  I   UNL     1      -7.783  14.545  68.354  1.00  0.00    -0.161 I  
HETATM   28  C   UNL     1     -10.052  14.447  66.411  1.00  0.00    -0.294 A  
HETATM   29  C   UNL     1     -10.991  13.905  65.522  1.00  0.00    -0.302 A  
HETATM   30  I   UNL     1     -12.737  15.075  65.288  1.00  0.00     1.056 I  
HETATM   31  C   UNL     1     -10.767  12.655  64.920  1.00  0.00    -0.327 A  
HETATM   32  C   UNL     1     -11.801  12.016  64.054  1.00  0.00    -0.408 C  
HETATM   33  C   UNL     1      -9.555  11.974  65.217  1.00  0.00    -0.100 A  
HETATM   34  O   UNL     1     -12.145  10.854  64.175  1.00  0.00     1.026 OA 
HETATM   35  I   UNL     1      -9.032  10.118  64.240  1.00  0.00    -0.339 I  
HETATM   36  O   UNL     1     -12.307  12.813  63.088  1.00  0.00    -0.580 OA 
ENDBRANCH  22  25
ENDBRANCH  20  21
ENDBRANCH  19  20
ENDBRANCH  18  19
ENDBRANCH  17  18
ENDBRANCH  15  17
ENDBRANCH   7  13
TORSDOF 7
ENDMDL
MODEL      215
REMARK 921   NORMALIZED FREE ENERGY PREDICTED BY IDOCK:   -1.41 KCAL/MOL
REMARK 922        TOTAL FREE ENERGY PREDICTED BY IDOCK:   -2.90 KCAL/MOL
REMARK 923 INTER-LIGAND FREE ENERGY PREDICTED BY IDOCK:   -2.56 KCAL/MOL
REMARK 924 INTRA-LIGAND FREE ENERGY PREDICTED BY IDOCK:   -0.34 KCAL/MOL
REMARK 927      BINDING AFFINITY PREDICTED BY RF-SCORE:    0.00 PKD
ROOT
HETATM    1  O   UNL     1      -9.825  15.614  66.711  1.00  0.00    -0.233 OA 
HETATM    2  C   UNL     1      -9.763  14.787  67.777  1.00  0.00    -0.213 C  
HETATM    3  C   UNL     1      -9.850  13.339  67.444  1.00  0.00    -0.227 A  
HETATM    4  O   UNL     1      -9.596  15.205  68.909  1.00  0.00    -0.205 OA 
HETATM    5  C   UNL     1      -8.918  12.413  67.987  1.00  0.00    -0.194 A  
HETATM    6  I   UNL     1      -7.230  13.077  69.161  1.00  0.00     0.381 I  
HETATM    7  C   UNL     1      -9.004  11.019  67.709  1.00  0.00    -0.140 A  
HETATM    8  I   UNL     1     -12.471  14.007  65.862  1.00  0.00    -0.236 I  
HETATM    9  C   UNL     1     -10.051  10.562  66.890  1.00  0.00    -0.216 A  
HETATM   10  C   UNL     1     -10.887  12.840  66.637  1.00  0.00    -0.264 A  
HETATM   11  C   UNL     1     -10.971  11.471  66.349  1.00  0.00    -0.336 A  
HETATM   12  I   UNL     1     -10.528   8.528  66.584  1.00  0.00     0.488 I  
ENDROOT
BRANCH   7  13
HETATM   13  N   UNL     1      -8.074  10.138  68.339  1.00  0.00    -0.101 N  
HETATM   14  O   UNL     1      -9.098  10.088  70.421  1.00  0.00    -0.077 OA 
HETATM   15  C   UNL     1      -8.209   9.724  69.655  1.00  0.00    -0.157 C  
HETATM   16  H   UNL     1      -7.279   9.798  67.798  1.00  0.00     0.000 HD 
BRANCH  15  17
HETATM   17  C   UNL     1      -7.233   8.627  70.060  1.00  0.00    -0.051 C  
BRANCH  17  18
HETATM   18  C   UNL     1      -5.846   8.925  69.495  1.00  0.00    -0.033 C  
BRANCH  18  19
HETATM   19  C   UNL     1      -5.157   7.737  68.816  1.00  0.00    -0.023 C  
BRANCH  19  20
HETATM   20  C   UNL     1      -5.305   6.397  69.543  1.00  0.00    -0.013 C  
BRANCH  20  21
HETATM   21  C   UNL     1      -6.386   5.547  68.884  1.00  0.00    -0.038 C  
HETATM   22  N   UNL     1      -6.070   5.151  67.592  1.00  0.00    -0.029 N  
HETATM   23  O   UNL     1      -7.458   5.317  69.434  1.00  0.00    -0.063 OA 
HETATM   24  H   UNL     1      -5.180   5.438  67.188  1.00  0.00     0.000 HD 
BRANCH  22  25
HETATM   25  C   UNL     1      -6.962   4.352  66.817  1.00  0.00    -0.063 A  
HETATM   26  C   UNL     1      -7.400   3.088  67.245  1.00  0.00    -0.062 A  
HETATM   27  I   UNL     1      -6.578   2.046  68.896  1.00  0.00    -0.029 I  
HETATM   28  C   UNL     1      -8.306   2.351  66.476  1.00  0.00    -0.093 A  
HETATM   29  C   UNL     1      -8.743   2.826  65.232  1.00  0.00    -0.117 A  
HETATM   30  I   UNL     1     -10.014   1.493  64.194  1.00  0.00     0.197 I  
HETATM   31  C   UNL     1      -8.286   4.061  64.738  1.00  0.00    -0.102 A  
HETATM   32  C   UNL     1      -8.657   4.533  63.372  1.00  0.00    -0.118 C  
HETATM   33  C   UNL     1      -7.396   4.820  65.545  1.00  0.00    -0.073 A  
HETATM   34  O   UNL     1      -7.846   4.969  62.575  1.00  0.00    -0.063 OA 
HETATM   35  I   UNL     1      -6.744   6.795  64.960  1.00  0.00    -0.053 I  
HETATM   36  O   UNL     1      -9.976   4.480  63.090  1.00  0.00    -0.006 OA 
ENDBRANCH  22  25
ENDBRANCH  20  21
ENDBRANCH  19  20
ENDBRANCH  18  19
ENDBRANCH  17  18
ENDBRANCH  15  17
ENDBRANCH   7  13
TORSDOF 7
ENDMDL
MODEL      216
REMARK 921   NORMALIZED FREE ENERGY PREDICTED BY IDOCK:   -1.32 KCAL/MOL
REMARK 922        TOTAL FREE ENERGY PREDICTED BY IDOCK:   -2.78 KCAL/MOL
REMARK 923 INTER-LIGAND FREE ENERGY PREDICTED BY IDOCK:   -2.93 KCAL/MOL
REMARK 924 INTRA-LIGAND FREE ENERGY PREDICTED BY IDOCK:    0.15 KCAL/MOL
REMARK 927      BINDING AFFINITY PREDICTED BY RF-SCORE:    0.00 PKD
ROOT
HETATM    1  O   UNL     1     -13.398   9.664  70.317  1.00  0.00     0.242 OA 
HETATM    2  C   UNL     1     -12.050   9.562  70.335  1.00  0.00    -0.004 C  
HETATM    3  C   UNL     1     -11.535   8.166  70.344  1.00  0.00    -0.126 A  
HETATM    4  O   UNL     1     -11.329  10.542  70.293  1.00  0.00    -0.290 OA 
HETATM    5  C   UNL     1     -10.512   7.764  69.443  1.00  0.00    -0.220 A  
HETATM    6  I   UNL     1      -9.791   9.094  67.900  1.00  0.00    -0.252 I  
HETATM    7  C   UNL     1      -9.980   6.444  69.459  1.00  0.00    -0.162 A  
HETATM    8  I   UNL     1     -13.391   7.650  72.816  1.00  0.00     1.437 I  
HETATM    9  C   UNL     1     -10.478   5.532  70.406  1.00  0.00    -0.286 A  
HETATM   10  C   UNL     1     -11.999   7.227  71.281  1.00  0.00    -0.324 A  
HETATM   11  C   UNL     1     -11.489   5.922  71.296  1.00  0.00    -0.167 A  
HETATM   12  I   UNL     1      -9.642   3.631  70.789  1.00  0.00    -0.072 I  
ENDROOT
BRANCH   7  13
HETATM   13  N   UNL     1      -8.910   6.127  68.570  1.00  0.00    -0.114 N  
HETATM   14  O   UNL     1     -10.185   5.028  66.973  1.00  0.00    -0.204 OA 
HETATM   15  C   UNL     1      -9.105   5.451  67.375  1.00  0.00    -0.111 C  
HETATM   16  H   UNL     1      -7.963   6.409  68.823  1.00  0.00     0.000 HD 
BRANCH  15  17
HETATM   17  C   UNL     1      -7.869   5.402  66.485  1.00  0.00    -0.100 C  
BRANCH  17  18
HETATM   18  C   UNL     1      -7.501   6.810  66.022  1.00  0.00    -0.081 C  
BRANCH  18  19
HETATM   19  C   UNL     1      -7.907   7.144  64.583  1.00  0.00    -0.123 C  
BRANCH  19  20
HETATM   20  C   UNL     1      -6.877   7.950  63.787  1.00  0.00    -0.063 C  
BRANCH  20  21
HETATM   21  C   UNL     1      -6.799   9.382  64.307  1.00  0.00    -0.095 C  
HETATM   22  N   UNL     1      -7.413   9.558  65.539  1.00  0.00    -0.099 N  
HETATM   23  O   UNL     1      -6.306  10.288  63.645  1.00  0.00    -0.136 OA 
HETATM   24  H   UNL     1      -7.854   8.760  65.994  1.00  0.00     0.000 HD 
BRANCH  22  25
HETATM   25  C   UNL     1      -7.444  10.831  66.183  1.00  0.00    -0.129 A  
HETATM   26  C   UNL     1      -6.510  11.195  67.166  1.00  0.00    -0.090 A  
HETATM   27  I   UNL     1      -5.151   9.843  68.069  1.00  0.00    -0.034 I  
HETATM   28  C   UNL     1      -6.547  12.467  67.746  1.00  0.00    -0.113 A  
HETATM   29  C   UNL     1      -7.556  13.379  67.409  1.00  0.00    -0.128 A  
HETATM   30  I   UNL     1      -7.484  15.191  68.497  1.00  0.00    -0.157 I  
HETATM   31  C   UNL     1      -8.546  13.036  66.471  1.00  0.00     0.131 A  
HETATM   32  C   UNL     1      -9.687  13.952  66.179  1.00  0.00    -0.272 C  
HETATM   33  C   UNL     1      -8.475  11.756  65.859  1.00  0.00     0.208 A  
HETATM   34  O   UNL     1     -10.847  13.583  66.148  1.00  0.00    -0.280 OA 
HETATM   35  I   UNL     1      -9.850  11.172  64.296  1.00  0.00    -0.391 I  
HETATM   36  O   UNL     1      -9.337  15.228  65.907  1.00  0.00    -0.326 OA 
ENDBRANCH  22  25
ENDBRANCH  20  21
ENDBRANCH  19  20
ENDBRANCH  18  19
ENDBRANCH  17  18
ENDBRANCH  15  17
ENDBRANCH   7  13
TORSDOF 7
ENDMDL
MODEL      217
REMARK 921   NORMALIZED FREE ENERGY PREDICTED BY IDOCK:   -1.26 KCAL/MOL
REMARK 922        TOTAL FREE ENERGY PREDICTED BY IDOCK:   -2.69 KCAL/MOL
REMARK 923 INTER-LIGAND FREE ENERGY PREDICTED BY IDOCK:   -3.14 KCAL/MOL
REMARK 924 INTRA-LIGAND FREE ENERGY PREDICTED BY IDOCK:    0.45 KCAL/MOL
REMARK 927      BINDING AFFINITY PREDICTED BY RF-SCORE:    0.00 PKD
ROOT
HETATM    1  O   UNL     1     -10.940  17.499  70.072  1.00  0.00     0.481 OA 
HETATM    2  C   UNL     1     -11.539  16.436  69.492  1.00  0.00    -0.036 C  
HETATM    3  C   UNL     1     -10.607  15.356  69.069  1.00  0.00    -0.247 A  
HETATM    4  O   UNL     1     -12.749  16.359  69.379  1.00  0.00     0.469 OA 
HETATM    5  C   UNL     1     -10.868  14.000  69.406  1.00  0.00    -0.105 A  
HETATM    6  I   UNL     1     -12.515  13.461  70.698  1.00  0.00    -0.146 I  
HETATM    7  C   UNL     1     -10.009  12.946  68.982  1.00  0.00     0.247 A  
HETATM    8  I   UNL     1      -8.992  17.550  67.522  1.00  0.00    -0.245 I  
HETATM    9  C   UNL     1      -8.888  13.271  68.197  1.00  0.00    -0.187 A  
HETATM   10  C   UNL     1      -9.481  15.636  68.276  1.00  0.00    -0.200 A  
HETATM   11  C   UNL     1      -8.624  14.607  67.864  1.00  0.00    -0.165 A  
HETATM   12  I   UNL     1      -7.654  11.854  67.234  1.00  0.00    -0.113 I  
ENDROOT
BRANCH   7  13
HETATM   13  N   UNL     1     -10.366  11.602  69.301  1.00  0.00    -0.431 N  
HETATM   14  O   UNL     1     -11.703  11.216  67.443  1.00  0.00    -0.564 OA 
HETATM   15  C   UNL     1     -11.180  10.830  68.486  1.00  0.00    -0.279 C  
HETATM   16  H   UNL     1     -10.007  11.192  70.163  1.00  0.00     0.000 HD 
BRANCH  15  17
HETATM   17  C   UNL     1     -11.262   9.368  68.903  1.00  0.00     0.096 C  
BRANCH  17  18
HETATM   18  C   UNL     1      -9.892   8.878  69.366  1.00  0.00    -0.183 C  
BRANCH  18  19
HETATM   19  C   UNL     1      -9.625   9.031  70.867  1.00  0.00    -0.328 C  
BRANCH  19  20
HETATM   20  C   UNL     1      -8.159   8.875  71.285  1.00  0.00    -0.185 C  
BRANCH  20  21
HETATM   21  C   UNL     1      -7.461   7.836  70.414  1.00  0.00    -0.078 C  
HETATM   22  N   UNL     1      -8.312   6.850  69.936  1.00  0.00    -0.137 N  
HETATM   23  O   UNL     1      -6.248   7.848  70.235  1.00  0.00    -0.032 OA 
HETATM   24  H   UNL     1      -9.300   6.883  70.185  1.00  0.00     0.000 HD 
BRANCH  22  25
HETATM   25  C   UNL     1      -7.837   5.792  69.106  1.00  0.00    -0.090 A  
HETATM   26  C   UNL     1      -7.781   5.905  67.708  1.00  0.00    -0.097 A  
HETATM   27  I   UNL     1      -8.672   7.482  66.609  1.00  0.00    -0.185 I  
HETATM   28  C   UNL     1      -7.271   4.861  66.930  1.00  0.00    -0.077 A  
HETATM   29  C   UNL     1      -6.872   3.655  67.522  1.00  0.00    -0.050 A  
HETATM   30  I   UNL     1      -6.249   2.178  66.143  1.00  0.00    -0.024 I  
HETATM   31  C   UNL     1      -6.964   3.477  68.913  1.00  0.00    -0.046 A  
HETATM   32  C   UNL     1      -6.643   2.165  69.549  1.00  0.00    -0.029 C  
HETATM   33  C   UNL     1      -7.446   4.559  69.698  1.00  0.00    -0.051 A  
HETATM   34  O   UNL     1      -7.366   1.627  70.369  1.00  0.00    -0.033 OA 
HETATM   35  I   UNL     1      -7.494   4.457  71.857  1.00  0.00    -0.075 I  
HETATM   36  O   UNL     1      -5.461   1.627  69.179  1.00  0.00    -0.012 OA 
ENDBRANCH  22  25
ENDBRANCH  20  21
ENDBRANCH  19  20
ENDBRANCH  18  19
ENDBRANCH  17  18
ENDBRANCH  15  17
ENDBRANCH   7  13
TORSDOF 7
ENDMDL
MODEL      218
REMARK 921   NORMALIZED FREE ENERGY PREDICTED BY IDOCK:   -1.21 KCAL/MOL
REMARK 922        TOTAL FREE ENERGY PREDICTED BY IDOCK:   -2.62 KCAL/MOL
REMARK 923 INTER-LIGAND FREE ENERGY PREDICTED BY IDOCK:   -2.04 KCAL/MOL
REMARK 924 INTRA-LIGAND FREE ENERGY PREDICTED BY IDOCK:   -0.59 KCAL/MOL
REMARK 927      BINDING AFFINITY PREDICTED BY RF-SCORE:    0.00 PKD
ROOT
HETATM    1  O   UNL     1     -10.679  11.941  67.627  1.00  0.00    -0.203 OA 
HETATM    2  C   UNL     1     -10.967  10.700  67.177  1.00  0.00    -0.247 C  
HETATM    3  C   UNL     1     -10.031  10.184  66.143  1.00  0.00    -0.310 A  
HETATM    4  O   UNL     1     -11.891  10.049  67.630  1.00  0.00     0.331 OA 
HETATM    5  C   UNL     1      -9.470   8.882  66.257  1.00  0.00    -0.239 A  
HETATM    6  I   UNL     1      -9.798   7.670  68.016  1.00  0.00    -0.232 I  
HETATM    7  C   UNL     1      -8.600   8.355  65.262  1.00  0.00    -0.150 A  
HETATM    8  I   UNL     1     -10.567  12.824  64.543  1.00  0.00    -0.418 I  
HETATM    9  C   UNL     1      -8.310   9.147  64.136  1.00  0.00    -0.178 A  
HETATM   10  C   UNL     1      -9.723  10.939  64.999  1.00  0.00    -0.267 A  
HETATM   11  C   UNL     1      -8.858  10.433  64.020  1.00  0.00    -0.225 A  
HETATM   12  I   UNL     1      -7.284   8.460  62.424  1.00  0.00    -0.105 I  
ENDROOT
BRANCH   7  13
HETATM   13  N   UNL     1      -8.125   7.017  65.407  1.00  0.00    -0.129 N  
HETATM   14  O   UNL     1      -9.841   5.979  64.240  1.00  0.00     1.757 OA 
HETATM   15  C   UNL     1      -8.783   5.925  64.862  1.00  0.00     0.038 C  
HETATM   16  H   UNL     1      -7.266   6.857  65.933  1.00  0.00     0.000 HD 
BRANCH  15  17
HETATM   17  C   UNL     1      -8.000   4.622  64.955  1.00  0.00    -0.099 C  
BRANCH  17  18
HETATM   18  C   UNL     1      -7.386   4.479  66.346  1.00  0.00    -0.081 C  
BRANCH  18  19
HETATM   19  C   UNL     1      -5.869   4.685  66.406  1.00  0.00    -0.022 C  
BRANCH  19  20
HETATM   20  C   UNL     1      -5.157   3.942  67.541  1.00  0.00    -0.008 C  
BRANCH  20  21
HETATM   21  C   UNL     1      -5.924   4.101  68.850  1.00  0.00    -0.023 C  
HETATM   22  N   UNL     1      -6.664   5.273  68.920  1.00  0.00    -0.051 N  
HETATM   23  O   UNL     1      -5.816   3.297  69.769  1.00  0.00    -0.020 OA 
HETATM   24  H   UNL     1      -6.649   5.919  68.131  1.00  0.00     0.000 HD 
BRANCH  22  25
HETATM   25  C   UNL     1      -7.444   5.595  70.070  1.00  0.00    -0.070 A  
HETATM   26  C   UNL     1      -8.526   4.804  70.486  1.00  0.00    -0.095 A  
HETATM   27  I   UNL     1      -9.363   3.237  69.331  1.00  0.00    -0.050 I  
HETATM   28  C   UNL     1      -9.243   5.129  71.642  1.00  0.00    -0.174 A  
HETATM   29  C   UNL     1      -8.942   6.289  72.369  1.00  0.00    -0.138 A  
HETATM   30  I   UNL     1     -10.231   6.643  74.007  1.00  0.00    -0.140 I  
HETATM   31  C   UNL     1      -7.903   7.142  71.956  1.00  0.00    -0.091 A  
HETATM   32  C   UNL     1      -7.637   8.433  72.655  1.00  0.00    -0.077 C  
HETATM   33  C   UNL     1      -7.156   6.780  70.803  1.00  0.00    -0.068 A  
HETATM   34  O   UNL     1      -7.483   9.489  72.068  1.00  0.00     0.029 OA 
HETATM   35  I   UNL     1      -5.444   7.931  70.157  1.00  0.00    -0.022 I  
HETATM   36  O   UNL     1      -7.537   8.343  73.999  1.00  0.00    -0.254 OA 
ENDBRANCH  22  25
ENDBRANCH  20  21
ENDBRANCH  19  20
ENDBRANCH  18  19
ENDBRANCH  17  18
ENDBRANCH  15  17
ENDBRANCH   7  13
TORSDOF 7
ENDMDL
MODEL      219
REMARK 921   NORMALIZED FREE ENERGY PREDICTED BY IDOCK:   -1.07 KCAL/MOL
REMARK 922        TOTAL FREE ENERGY PREDICTED BY IDOCK:   -2.43 KCAL/MOL
REMARK 923 INTER-LIGAND FREE ENERGY PREDICTED BY IDOCK:   -1.89 KCAL/MOL
REMARK 924 INTRA-LIGAND FREE ENERGY PREDICTED BY IDOCK:   -0.55 KCAL/MOL
REMARK 927      BINDING AFFINITY PREDICTED BY RF-SCORE:    0.00 PKD
ROOT
HETATM    1  O   UNL     1      -7.800   3.979  72.849  1.00  0.00    -0.077 OA 
HETATM    2  C   UNL     1      -6.645   4.558  72.454  1.00  0.00    -0.041 C  
HETATM    3  C   UNL     1      -6.426   4.562  70.983  1.00  0.00    -0.029 A  
HETATM    4  O   UNL     1      -5.880   5.078  73.247  1.00  0.00    -0.020 OA 
HETATM    5  C   UNL     1      -6.038   5.752  70.310  1.00  0.00    -0.026 A  
HETATM    6  I   UNL     1      -5.931   7.644  71.348  1.00  0.00    -0.035 I  
HETATM    7  C   UNL     1      -5.789   5.770  68.908  1.00  0.00    -0.016 A  
HETATM    8  I   UNL     1      -6.936   1.470  71.044  1.00  0.00    -0.033 I  
HETATM    9  C   UNL     1      -5.918   4.567  68.189  1.00  0.00    -0.027 A  
HETATM   10  C   UNL     1      -6.535   3.380  70.229  1.00  0.00    -0.032 A  
HETATM   11  C   UNL     1      -6.303   3.391  68.847  1.00  0.00    -0.029 A  
HETATM   12  I   UNL     1      -5.327   4.309  66.179  1.00  0.00    -0.010 I  
ENDROOT
BRANCH   7  13
HETATM   13  N   UNL     1      -5.340   6.984  68.308  1.00  0.00    -0.019 N  
HETATM   14  O   UNL     1      -7.243   7.395  67.045  1.00  0.00    -0.084 OA 
HETATM   15  C   UNL     1      -6.121   7.717  67.428  1.00  0.00    -0.049 C  
HETATM   16  H   UNL     1      -4.407   7.328  68.537  1.00  0.00     0.000 HD 
BRANCH  15  17
HETATM   17  C   UNL     1      -5.538   9.078  67.071  1.00  0.00    -0.041 C  
BRANCH  17  18
HETATM   18  C   UNL     1      -6.542  10.180  67.402  1.00  0.00    -0.068 C  
BRANCH  18  19
HETATM   19  C   UNL     1      -7.177  10.862  66.186  1.00  0.00    -0.101 C  
BRANCH  19  20
HETATM   20  C   UNL     1      -8.347  10.102  65.552  1.00  0.00    -0.160 C  
BRANCH  20  21
HETATM   21  C   UNL     1      -9.592  10.210  66.426  1.00  0.00    -0.191 C  
HETATM   22  N   UNL     1      -9.317  10.217  67.786  1.00  0.00    -0.144 N  
HETATM   23  O   UNL     1     -10.723  10.206  65.951  1.00  0.00    -0.040 OA 
HETATM   24  H   UNL     1      -8.348  10.156  68.098  1.00  0.00     0.000 HD 
BRANCH  22  25
HETATM   25  C   UNL     1     -10.357  10.310  68.758  1.00  0.00    -0.195 A  
HETATM   26  C   UNL     1     -11.003   9.176  69.273  1.00  0.00    -0.061 A  
HETATM   27  I   UNL     1     -10.785   7.224  68.478  1.00  0.00    -0.006 I  
HETATM   28  C   UNL     1     -11.991   9.304  70.255  1.00  0.00     0.065 A  
HETATM   29  C   UNL     1     -12.404  10.569  70.694  1.00  0.00    -0.356 A  
HETATM   30  I   UNL     1     -13.990  10.524  72.092  1.00  0.00     1.218 I  
HETATM   31  C   UNL     1     -11.824  11.734  70.164  1.00  0.00    -0.408 A  
HETATM   32  C   UNL     1     -12.323  13.089  70.543  1.00  0.00    -0.287 C  
HETATM   33  C   UNL     1     -10.793  11.591  69.197  1.00  0.00    -0.195 A  
HETATM   34  O   UNL     1     -12.571  13.959  69.727  1.00  0.00    -0.262 OA 
HETATM   35  I   UNL     1      -9.725  13.302  68.420  1.00  0.00    -0.031 I  
HETATM   36  O   UNL     1     -12.446  13.300  71.871  1.00  0.00    -0.097 OA 
ENDBRANCH  22  25
ENDBRANCH  20  21
ENDBRANCH  19  20
ENDBRANCH  18  19
ENDBRANCH  17  18
ENDBRANCH  15  17
ENDBRANCH   7  13
TORSDOF 7
ENDMDL
MODEL      220
REMARK 921   NORMALIZED FREE ENERGY PREDICTED BY IDOCK:   -1.07 KCAL/MOL
REMARK 922        TOTAL FREE ENERGY PREDICTED BY IDOCK:   -2.43 KCAL/MOL
REMARK 923 INTER-LIGAND FREE ENERGY PREDICTED BY IDOCK:   -4.23 KCAL/MOL
REMARK 924 INTRA-LIGAND FREE ENERGY PREDICTED BY IDOCK:    1.81 KCAL/MOL
REMARK 927      BINDING AFFINITY PREDICTED BY RF-SCORE:    0.00 PKD
ROOT
HETATM    1  O   UNL     1      -8.213   8.378  64.159  1.00  0.00    -0.159 OA 
HETATM    2  C   UNL     1      -8.237   9.197  65.233  1.00  0.00    -0.134 C  
HETATM    3  C   UNL     1      -9.264  10.272  65.169  1.00  0.00    -0.252 A  
HETATM    4  O   UNL     1      -7.508   9.023  66.193  1.00  0.00    -0.089 OA 
HETATM    5  C   UNL     1     -10.130  10.515  66.269  1.00  0.00    -0.232 A  
HETATM    6  I   UNL     1     -10.129   9.226  68.004  1.00  0.00    -0.278 I  
HETATM    7  C   UNL     1     -11.095  11.562  66.243  1.00  0.00    -0.263 A  
HETATM    8  I   UNL     1      -8.075  11.043  62.374  1.00  0.00     0.034 I  
HETATM    9  C   UNL     1     -11.169  12.376  65.099  1.00  0.00    -0.315 A  
HETATM   10  C   UNL     1      -9.364  11.115  64.049  1.00  0.00    -0.170 A  
HETATM   11  C   UNL     1     -10.319  12.140  64.009  1.00  0.00    -0.412 A  
HETATM   12  I   UNL     1     -12.318  14.142  64.963  1.00  0.00    -0.329 I  
ENDROOT
BRANCH   7  13
HETATM   13  N   UNL     1     -11.888  11.791  67.407  1.00  0.00    -0.218 N  
HETATM   14  O   UNL     1     -10.569  13.467  68.322  1.00  0.00    -0.236 OA 
HETATM   15  C   UNL     1     -11.566  12.750  68.355  1.00  0.00    -0.325 C  
HETATM   16  H   UNL     1     -12.726  11.227  67.547  1.00  0.00     0.000 HD 
BRANCH  15  17
HETATM   17  C   UNL     1     -12.651  12.972  69.401  1.00  0.00     0.385 C  
BRANCH  17  18
HETATM   18  C   UNL     1     -12.074  12.780  70.802  1.00  0.00    -0.246 C  
BRANCH  18  19
HETATM   19  C   UNL     1     -12.530  11.505  71.519  1.00  0.00    -0.266 C  
BRANCH  19  20
HETATM   20  C   UNL     1     -12.376  10.213  70.710  1.00  0.00    -0.422 C  
BRANCH  20  21
HETATM   21  C   UNL     1     -11.702   9.133  71.549  1.00  0.00    -0.363 C  
HETATM   22  N   UNL     1     -10.778   8.377  70.842  1.00  0.00    -0.217 N  
HETATM   23  O   UNL     1     -12.022   8.920  72.713  1.00  0.00    -0.141 OA 
HETATM   24  H   UNL     1     -10.616   8.584  69.857  1.00  0.00     0.000 HD 
BRANCH  22  25
HETATM   25  C   UNL     1     -10.049   7.318  71.461  1.00  0.00    -0.186 A  
HETATM   26  C   UNL     1      -8.648   7.328  71.554  1.00  0.00    -0.118 A  
HETATM   27  I   UNL     1      -7.402   8.704  70.534  1.00  0.00    -0.089 I  
HETATM   28  C   UNL     1      -7.971   6.292  72.204  1.00  0.00    -0.108 A  
HETATM   29  C   UNL     1      -8.670   5.188  72.714  1.00  0.00    -0.119 A  
HETATM   30  I   UNL     1      -7.432   3.689  73.545  1.00  0.00    -0.064 I  
HETATM   31  C   UNL     1     -10.068   5.110  72.592  1.00  0.00    -0.220 A  
HETATM   32  C   UNL     1     -10.816   3.896  73.034  1.00  0.00    -0.130 C  
HETATM   33  C   UNL     1     -10.750   6.187  71.965  1.00  0.00    -0.233 A  
HETATM   34  O   UNL     1     -11.658   3.345  72.346  1.00  0.00     0.886 OA 
HETATM   35  I   UNL     1     -12.907   6.249  71.852  1.00  0.00     0.970 I  
HETATM   36  O   UNL     1     -10.523   3.469  74.281  1.00  0.00    -0.178 OA 
ENDBRANCH  22  25
ENDBRANCH  20  21
ENDBRANCH  19  20
ENDBRANCH  18  19
ENDBRANCH  17  18
ENDBRANCH  15  17
ENDBRANCH   7  13
TORSDOF 7
ENDMDL
MODEL      221
REMARK 921   NORMALIZED FREE ENERGY PREDICTED BY IDOCK:   -1.04 KCAL/MOL
REMARK 922        TOTAL FREE ENERGY PREDICTED BY IDOCK:   -2.39 KCAL/MOL
REMARK 923 INTER-LIGAND FREE ENERGY PREDICTED BY IDOCK:   -3.73 KCAL/MOL
REMARK 924 INTRA-LIGAND FREE ENERGY PREDICTED BY IDOCK:    1.34 KCAL/MOL
REMARK 927      BINDING AFFINITY PREDICTED BY RF-SCORE:    0.00 PKD
ROOT
HETATM    1  O   UNL     1      -7.483   6.925  62.417  1.00  0.00    -0.065 OA 
HETATM    2  C   UNL     1      -7.980   7.384  63.587  1.00  0.00    -0.074 C  
HETATM    3  C   UNL     1      -7.717   6.506  64.759  1.00  0.00    -0.106 A  
HETATM    4  O   UNL     1      -8.549   8.458  63.668  1.00  0.00    -0.043 OA 
HETATM    5  C   UNL     1      -7.198   7.045  65.967  1.00  0.00    -0.074 A  
HETATM    6  I   UNL     1      -6.592   9.114  66.103  1.00  0.00    -0.071 I  
HETATM    7  C   UNL     1      -6.972   6.229  67.112  1.00  0.00    -0.072 A  
HETATM    8  I   UNL     1      -8.961   4.158  63.097  1.00  0.00    -0.115 I  
HETATM    9  C   UNL     1      -7.291   4.861  67.034  1.00  0.00    -0.082 A  
HETATM   10  C   UNL     1      -8.031   5.136  64.725  1.00  0.00    -0.104 A  
HETATM   11  C   UNL     1      -7.801   4.323  65.843  1.00  0.00    -0.094 A  
HETATM   12  I   UNL     1      -7.303   3.542  68.682  1.00  0.00    -0.049 I  
ENDROOT
BRANCH   7  13
HETATM   13  N   UNL     1      -6.511   6.847  68.313  1.00  0.00    -0.047 N  
HETATM   14  O   UNL     1      -8.583   7.063  69.334  1.00  0.00    -0.132 OA 
HETATM   15  C   UNL     1      -7.363   7.202  69.347  1.00  0.00    -0.090 C  
HETATM   16  H   UNL     1      -5.513   7.034  68.414  1.00  0.00     0.000 HD 
BRANCH  15  17
HETATM   17  C   UNL     1      -6.643   7.651  70.612  1.00  0.00    -0.038 C  
BRANCH  17  18
HETATM   18  C   UNL     1      -6.581   9.176  70.666  1.00  0.00    -0.071 C  
BRANCH  18  19
HETATM   19  C   UNL     1      -7.933   9.883  70.527  1.00  0.00     0.067 C  
BRANCH  19  20
HETATM   20  C   UNL     1      -8.621   9.712  69.169  1.00  0.00    -0.146 C  
BRANCH  20  21
HETATM   21  C   UNL     1      -8.623  11.029  68.400  1.00  0.00    -0.149 C  
HETATM   22  N   UNL     1      -8.494  12.146  69.213  1.00  0.00    -0.017 N  
HETATM   23  O   UNL     1      -8.804  11.074  67.188  1.00  0.00    -0.138 OA 
HETATM   24  H   UNL     1      -8.409  12.021  70.221  1.00  0.00     0.000 HD 
BRANCH  22  25
HETATM   25  C   UNL     1      -8.478  13.466  68.671  1.00  0.00     0.001 A  
HETATM   26  C   UNL     1      -7.282  14.132  68.358  1.00  0.00    -0.109 A  
HETATM   27  I   UNL     1      -5.360  13.449  68.929  1.00  0.00    -0.084 I  
HETATM   28  C   UNL     1      -7.308  15.410  67.791  1.00  0.00    -0.180 A  
HETATM   29  C   UNL     1      -8.522  16.080  67.586  1.00  0.00    -0.158 A  
HETATM   30  I   UNL     1      -8.312  18.043  66.830  1.00  0.00    -0.297 I  
HETATM   31  C   UNL     1      -9.741  15.472  67.937  1.00  0.00    -0.211 A  
HETATM   32  C   UNL     1     -11.033  16.209  67.825  1.00  0.00    -0.293 C  
HETATM   33  C   UNL     1      -9.705  14.158  68.476  1.00  0.00    -0.219 A  
HETATM   34  O   UNL     1     -11.862  16.241  68.717  1.00  0.00    -0.278 OA 
HETATM   35  I   UNL     1     -11.519  13.066  68.915  1.00  0.00    -0.377 I  
HETATM   36  O   UNL     1     -11.243  16.813  66.635  1.00  0.00     0.183 OA 
ENDBRANCH  22  25
ENDBRANCH  20  21
ENDBRANCH  19  20
ENDBRANCH  18  19
ENDBRANCH  17  18
ENDBRANCH  15  17
ENDBRANCH   7  13
TORSDOF 7
ENDMDL
MODEL      222
REMARK 921   NORMALIZED FREE ENERGY PREDICTED BY IDOCK:   -0.93 KCAL/MOL
REMARK 922        TOTAL FREE ENERGY PREDICTED BY IDOCK:   -2.23 KCAL/MOL
REMARK 923 INTER-LIGAND FREE ENERGY PREDICTED BY IDOCK:   -1.64 KCAL/MOL
REMARK 924 INTRA-LIGAND FREE ENERGY PREDICTED BY IDOCK:   -0.59 KCAL/MOL
REMARK 927      BINDING AFFINITY PREDICTED BY RF-SCORE:    0.00 PKD
ROOT
HETATM    1  O   UNL     1     -13.976  12.829  73.160  1.00  0.00     0.266 OA 
HETATM    2  C   UNL     1     -13.814  12.215  71.967  1.00  0.00     0.193 C  
HETATM    3  C   UNL     1     -12.823  12.863  71.066  1.00  0.00    -0.268 A  
HETATM    4  O   UNL     1     -14.399  11.183  71.689  1.00  0.00     1.302 OA 
HETATM    5  C   UNL     1     -11.815  12.095  70.423  1.00  0.00    -0.187 A  
HETATM    6  I   UNL     1     -11.553   9.995  70.863  1.00  0.00    -0.427 I  
HETATM    7  C   UNL     1     -10.880  12.689  69.529  1.00  0.00     0.212 A  
HETATM    8  I   UNL     1     -14.403  15.536  71.489  1.00  0.00     0.273 I  
HETATM    9  C   UNL     1     -10.979  14.069  69.275  1.00  0.00    -0.206 A  
HETATM   10  C   UNL     1     -12.893  14.237  70.778  1.00  0.00    -0.337 A  
HETATM   11  C   UNL     1     -11.970  14.833  69.909  1.00  0.00    -0.378 A  
HETATM   12  I   UNL     1      -9.887  15.090  67.784  1.00  0.00    -0.223 I  
ENDROOT
BRANCH   7  13
HETATM   13  N   UNL     1      -9.935  11.848  68.869  1.00  0.00    -0.409 N  
HETATM   14  O   UNL     1     -10.996  11.799  66.805  1.00  0.00    -0.260 OA 
HETATM   15  C   UNL     1     -10.062  11.481  67.538  1.00  0.00    -0.183 C  
HETATM   16  H   UNL     1      -9.133  11.503  69.397  1.00  0.00     0.000 HD 
BRANCH  15  17
HETATM   17  C   UNL     1      -8.844  10.758  66.978  1.00  0.00    -0.137 C  
BRANCH  17  18
HETATM   18  C   UNL     1      -7.579  11.561  67.270  1.00  0.00    -0.143 C  
BRANCH  18  19
HETATM   19  C   UNL     1      -6.636  10.929  68.299  1.00  0.00    -0.058 C  
BRANCH  19  20
HETATM   20  C   UNL     1      -7.322  10.359  69.545  1.00  0.00    -0.144 C  
BRANCH  20  21
HETATM   21  C   UNL     1      -7.399   8.838  69.466  1.00  0.00    -0.067 C  
HETATM   22  N   UNL     1      -6.166   8.213  69.590  1.00  0.00    -0.033 N  
HETATM   23  O   UNL     1      -8.450   8.252  69.233  1.00  0.00    -0.124 OA 
HETATM   24  H   UNL     1      -5.330   8.782  69.722  1.00  0.00     0.000 HD 
BRANCH  22  25
HETATM   25  C   UNL     1      -6.041   6.793  69.538  1.00  0.00    -0.029 A  
HETATM   26  C   UNL     1      -5.894   6.098  68.327  1.00  0.00    -0.013 A  
HETATM   27  I   UNL     1      -6.161   6.975  66.417  1.00  0.00    -0.037 I  
HETATM   28  C   UNL     1      -5.734   4.709  68.319  1.00  0.00    -0.017 A  
HETATM   29  C   UNL     1      -5.785   3.974  69.512  1.00  0.00    -0.017 A  
HETATM   30  I   UNL     1      -5.639   1.882  69.247  1.00  0.00    -0.019 I  
HETATM   31  C   UNL     1      -5.987   4.623  70.742  1.00  0.00    -0.017 A  
HETATM   32  C   UNL     1      -6.150   3.850  72.008  1.00  0.00    -0.013 C  
HETATM   33  C   UNL     1      -6.109   6.039  70.743  1.00  0.00    -0.030 A  
HETATM   34  O   UNL     1      -7.042   4.062  72.809  1.00  0.00    -0.053 OA 
HETATM   35  I   UNL     1      -6.273   7.159  72.584  1.00  0.00    -0.052 I  
HETATM   36  O   UNL     1      -5.202   2.913  72.228  1.00  0.00     0.000 OA 
ENDBRANCH  22  25
ENDBRANCH  20  21
ENDBRANCH  19  20
ENDBRANCH  18  19
ENDBRANCH  17  18
ENDBRANCH  15  17
ENDBRANCH   7  13
TORSDOF 7
ENDMDL
MODEL      223
REMARK 921   NORMALIZED FREE ENERGY PREDICTED BY IDOCK:   -0.82 KCAL/MOL
REMARK 922        TOTAL FREE ENERGY PREDICTED BY IDOCK:   -2.08 KCAL/MOL
REMARK 923 INTER-LIGAND FREE ENERGY PREDICTED BY IDOCK:   -5.12 KCAL/MOL
REMARK 924 INTRA-LIGAND FREE ENERGY PREDICTED BY IDOCK:    3.05 KCAL/MOL
REMARK 927      BINDING AFFINITY PREDICTED BY RF-SCORE:    0.00 PKD
ROOT
HETATM    1  O   UNL     1     -10.721  16.351  67.925  1.00  0.00    -0.316 OA 
HETATM    2  C   UNL     1     -10.645  15.436  66.934  1.00  0.00    -0.309 C  
HETATM    3  C   UNL     1      -9.521  14.471  67.067  1.00  0.00    -0.247 A  
HETATM    4  O   UNL     1     -11.469  15.386  66.039  1.00  0.00    -0.180 OA 
HETATM    5  C   UNL     1      -9.743  13.074  66.924  1.00  0.00    -0.238 A  
HETATM    6  I   UNL     1     -11.737  12.273  66.695  1.00  0.00    -0.101 I  
HETATM    7  C   UNL     1      -8.676  12.135  67.012  1.00  0.00    -0.190 A  
HETATM    8  I   UNL     1      -7.619  16.945  67.353  1.00  0.00    -0.234 I  
HETATM    9  C   UNL     1      -7.374  12.620  67.230  1.00  0.00    -0.104 A  
HETATM   10  C   UNL     1      -8.203  14.913  67.275  1.00  0.00    -0.209 A  
HETATM   11  C   UNL     1      -7.149  13.996  67.376  1.00  0.00    -0.096 A  
HETATM   12  I   UNL     1      -5.626  11.441  67.113  1.00  0.00    -0.129 I  
ENDROOT
BRANCH   7  13
HETATM   13  N   UNL     1      -8.960  10.754  66.794  1.00  0.00    -0.146 N  
HETATM   14  O   UNL     1      -7.343  10.385  65.172  1.00  0.00    -0.139 OA 
HETATM   15  C   UNL     1      -8.249   9.977  65.893  1.00  0.00    -0.128 C  
HETATM   16  H   UNL     1      -9.717  10.321  67.324  1.00  0.00     0.000 HD 
BRANCH  15  17
HETATM   17  C   UNL     1      -8.574   8.491  65.969  1.00  0.00    -0.162 C  
BRANCH  17  18
HETATM   18  C   UNL     1      -9.861   8.276  66.761  1.00  0.00    -0.333 C  
BRANCH  18  19
HETATM   19  C   UNL     1     -10.498   6.892  66.596  1.00  0.00    -0.213 C  
BRANCH  19  20
HETATM   20  C   UNL     1      -9.523   5.766  66.237  1.00  0.00    -0.166 C  
BRANCH  20  21
HETATM   21  C   UNL     1      -8.625   5.436  67.425  1.00  0.00    -0.108 C  
HETATM   22  N   UNL     1      -8.794   6.294  68.503  1.00  0.00    -0.115 N  
HETATM   23  O   UNL     1      -7.786   4.544  67.377  1.00  0.00    -0.087 OA 
HETATM   24  H   UNL     1      -9.474   7.050  68.436  1.00  0.00     0.000 HD 
BRANCH  22  25
HETATM   25  C   UNL     1      -8.038   6.142  69.703  1.00  0.00    -0.112 A  
HETATM   26  C   UNL     1      -6.634   6.152  69.709  1.00  0.00    -0.047 A  
HETATM   27  I   UNL     1      -5.439   6.061  67.962  1.00  0.00    -0.005 I  
HETATM   28  C   UNL     1      -5.927   6.040  70.911  1.00  0.00    -0.026 A  
HETATM   29  C   UNL     1      -6.602   5.847  72.124  1.00  0.00    -0.062 A  
HETATM   30  I   UNL     1      -5.328   5.585  73.791  1.00  0.00    -0.025 I  
HETATM   31  C   UNL     1      -8.005   5.774  72.157  1.00  0.00    -0.107 A  
HETATM   32  C   UNL     1      -8.735   5.464  73.421  1.00  0.00    -0.115 C  
HETATM   33  C   UNL     1      -8.715   5.928  70.936  1.00  0.00    -0.131 A  
HETATM   34  O   UNL     1      -9.618   4.628  73.494  1.00  0.00    -0.123 OA 
HETATM   35  I   UNL     1     -10.875   5.982  70.881  1.00  0.00    -0.302 I  
HETATM   36  O   UNL     1      -8.372   6.212  74.486  1.00  0.00    -0.121 OA 
ENDBRANCH  22  25
ENDBRANCH  20  21
ENDBRANCH  19  20
ENDBRANCH  18  19
ENDBRANCH  17  18
ENDBRANCH  15  17
ENDBRANCH   7  13
TORSDOF 7
ENDMDL
MODEL      224
REMARK 921   NORMALIZED FREE ENERGY PREDICTED BY IDOCK:   -0.80 KCAL/MOL
REMARK 922        TOTAL FREE ENERGY PREDICTED BY IDOCK:   -2.05 KCAL/MOL
REMARK 923 INTER-LIGAND FREE ENERGY PREDICTED BY IDOCK:   -2.89 KCAL/MOL
REMARK 924 INTRA-LIGAND FREE ENERGY PREDICTED BY IDOCK:    0.84 KCAL/MOL
REMARK 927      BINDING AFFINITY PREDICTED BY RF-SCORE:    0.00 PKD
ROOT
HETATM    1  O   UNL     1      -6.939   8.529  62.633  1.00  0.00    -0.091 OA 
HETATM    2  C   UNL     1      -6.351   8.140  63.785  1.00  0.00    -0.071 C  
HETATM    3  C   UNL     1      -7.285   7.584  64.801  1.00  0.00    -0.068 A  
HETATM    4  O   UNL     1      -5.144   8.196  63.943  1.00  0.00    -0.040 OA 
HETATM    5  C   UNL     1      -6.997   6.356  65.456  1.00  0.00    -0.053 A  
HETATM    6  I   UNL     1      -5.300   5.148  64.881  1.00  0.00    -0.014 I  
HETATM    7  C   UNL     1      -7.859   5.823  66.456  1.00  0.00    -0.101 A  
HETATM    8  I   UNL     1      -8.978  10.199  64.465  1.00  0.00    -0.331 I  
HETATM    9  C   UNL     1      -9.011   6.551  66.804  1.00  0.00    -0.131 A  
HETATM   10  C   UNL     1      -8.441   8.284  65.185  1.00  0.00    -0.146 A  
HETATM   11  C   UNL     1      -9.302   7.762  66.159  1.00  0.00    -0.162 A  
HETATM   12  I   UNL     1     -10.263   6.094  68.442  1.00  0.00    -0.321 I  
ENDROOT
BRANCH   7  13
HETATM   13  N   UNL     1      -7.477   4.619  67.119  1.00  0.00    -0.084 N  
HETATM   14  O   UNL     1      -6.089   5.596  68.702  1.00  0.00    -0.022 OA 
HETATM   15  C   UNL     1      -6.625   4.605  68.214  1.00  0.00    -0.046 C  
HETATM   16  H   UNL     1      -7.845   3.732  66.774  1.00  0.00     0.000 HD 
BRANCH  15  17
HETATM   17  C   UNL     1      -6.517   3.246  68.893  1.00  0.00    -0.030 C  
BRANCH  17  18
HETATM   18  C   UNL     1      -7.200   3.287  70.258  1.00  0.00    -0.041 C  
BRANCH  18  19
HETATM   19  C   UNL     1      -6.247   3.350  71.456  1.00  0.00    -0.015 C  
BRANCH  19  20
HETATM   20  C   UNL     1      -5.768   4.756  71.833  1.00  0.00    -0.012 C  
BRANCH  20  21
HETATM   21  C   UNL     1      -6.948   5.634  72.234  1.00  0.00    -0.082 C  
HETATM   22  N   UNL     1      -7.826   5.894  71.191  1.00  0.00    -0.109 N  
HETATM   23  O   UNL     1      -7.046   6.119  73.356  1.00  0.00    -0.083 OA 
HETATM   24  H   UNL     1      -7.636   5.499  70.271  1.00  0.00     0.000 HD 
BRANCH  22  25
HETATM   25  C   UNL     1      -8.988   6.700  71.377  1.00  0.00    -0.139 A  
HETATM   26  C   UNL     1      -8.946   8.102  71.305  1.00  0.00    -0.146 A  
HETATM   27  I   UNL     1      -7.156   9.233  71.244  1.00  0.00     0.275 I  
HETATM   28  C   UNL     1     -10.114   8.857  71.453  1.00  0.00    -0.379 A  
HETATM   29  C   UNL     1     -11.337   8.236  71.744  1.00  0.00    -0.288 A  
HETATM   30  I   UNL     1     -12.940   9.582  72.043  1.00  0.00    -0.471 I  
HETATM   31  C   UNL     1     -11.414   6.839  71.881  1.00  0.00    -0.318 A  
HETATM   32  C   UNL     1     -12.683   6.172  72.294  1.00  0.00     0.219 C  
HETATM   33  C   UNL     1     -10.229   6.079  71.690  1.00  0.00    -0.201 A  
HETATM   34  O   UNL     1     -12.737   5.328  73.171  1.00  0.00     0.427 OA 
HETATM   35  I   UNL     1     -10.254   3.918  71.728  1.00  0.00     0.218 I  
HETATM   36  O   UNL     1     -13.776   6.542  71.592  1.00  0.00    -0.040 OA 
ENDBRANCH  22  25
ENDBRANCH  20  21
ENDBRANCH  19  20
ENDBRANCH  18  19
ENDBRANCH  17  18
ENDBRANCH  15  17
ENDBRANCH   7  13
TORSDOF 7
ENDMDL
MODEL      225
REMARK 921   NORMALIZED FREE ENERGY PREDICTED BY IDOCK:   -0.80 KCAL/MOL
REMARK 922        TOTAL FREE ENERGY PREDICTED BY IDOCK:   -2.04 KCAL/MOL
REMARK 923 INTER-LIGAND FREE ENERGY PREDICTED BY IDOCK:   -1.24 KCAL/MOL
REMARK 924 INTRA-LIGAND FREE ENERGY PREDICTED BY IDOCK:   -0.81 KCAL/MOL
REMARK 927      BINDING AFFINITY PREDICTED BY RF-SCORE:    0.00 PKD
ROOT
HETATM    1  O   UNL     1      -8.642   4.693  72.145  1.00  0.00    -0.115 OA 
HETATM    2  C   UNL     1      -7.389   5.113  71.862  1.00  0.00    -0.086 C  
HETATM    3  C   UNL     1      -7.080   5.202  70.409  1.00  0.00    -0.057 A  
HETATM    4  O   UNL     1      -6.606   5.441  72.735  1.00  0.00    -0.064 OA 
HETATM    5  C   UNL     1      -6.474   6.367  69.866  1.00  0.00    -0.047 A  
HETATM    6  I   UNL     1      -6.147   8.128  71.074  1.00  0.00    -0.038 I  
HETATM    7  C   UNL     1      -6.137   6.459  68.486  1.00  0.00    -0.025 A  
HETATM    8  I   UNL     1      -8.056   2.234  70.167  1.00  0.00    -0.077 I  
HETATM    9  C   UNL     1      -6.401   5.354  67.656  1.00  0.00    -0.039 A  
HETATM   10  C   UNL     1      -7.319   4.117  69.548  1.00  0.00    -0.050 A  
HETATM   11  C   UNL     1      -7.001   4.203  68.186  1.00  0.00    -0.051 A  
HETATM   12  I   UNL     1      -5.731   5.170  65.663  1.00  0.00    -0.019 I  
ENDROOT
BRANCH   7  13
HETATM   13  N   UNL     1      -5.472   7.633  68.020  1.00  0.00    -0.030 N  
HETATM   14  O   UNL     1      -7.258   8.514  66.829  1.00  0.00    -0.073 OA 
HETATM   15  C   UNL     1      -6.101   8.586  67.234  1.00  0.00    -0.055 C  
HETATM   16  H   UNL     1      -4.495   7.776  68.276  1.00  0.00     0.000 HD 
BRANCH  15  17
HETATM   17  C   UNL     1      -5.280   9.852  67.025  1.00  0.00    -0.041 C  
BRANCH  17  18
HETATM   18  C   UNL     1      -6.093  11.077  67.437  1.00  0.00    -0.057 C  
BRANCH  18  19
HETATM   19  C   UNL     1      -6.581  11.949  66.276  1.00  0.00     0.567 C  
BRANCH  19  20
HETATM   20  C   UNL     1      -8.012  11.666  65.806  1.00  0.00     0.480 C  
BRANCH  20  21
HETATM   21  C   UNL     1      -9.008  12.529  66.573  1.00  0.00    -0.132 C  
HETATM   22  N   UNL     1      -8.893  12.416  67.952  1.00  0.00    -0.172 N  
HETATM   23  O   UNL     1      -9.871  13.187  66.004  1.00  0.00    -0.280 OA 
HETATM   24  H   UNL     1      -8.185  11.796  68.343  1.00  0.00     0.000 HD 
BRANCH  22  25
HETATM   25  C   UNL     1      -9.744  13.147  68.834  1.00  0.00     0.179 A  
HETATM   26  C   UNL     1      -9.530  14.503  69.126  1.00  0.00    -0.011 A  
HETATM   27  I   UNL     1      -7.779  15.570  68.592  1.00  0.00    -0.188 I  
HETATM   28  C   UNL     1     -10.408  15.197  69.964  1.00  0.00    -0.180 A  
HETATM   29  C   UNL     1     -11.479  14.538  70.584  1.00  0.00    -0.163 A  
HETATM   30  I   UNL     1     -12.600  15.755  71.900  1.00  0.00    -0.420 I  
HETATM   31  C   UNL     1     -11.697  13.166  70.364  1.00  0.00    -0.141 A  
HETATM   32  C   UNL     1     -12.766  12.426  71.096  1.00  0.00    -0.240 C  
HETATM   33  C   UNL     1     -10.822  12.480  69.479  1.00  0.00     0.193 A  
HETATM   34  O   UNL     1     -12.577  11.357  71.648  1.00  0.00    -0.320 OA 
HETATM   35  I   UNL     1     -11.145  10.410  68.948  1.00  0.00    -0.267 I  
HETATM   36  O   UNL     1     -13.984  13.009  71.069  1.00  0.00     0.782 OA 
ENDBRANCH  22  25
ENDBRANCH  20  21
ENDBRANCH  19  20
ENDBRANCH  18  19
ENDBRANCH  17  18
ENDBRANCH  15  17
ENDBRANCH   7  13
TORSDOF 7
ENDMDL
MODEL      226
REMARK 921   NORMALIZED FREE ENERGY PREDICTED BY IDOCK:   -0.71 KCAL/MOL
REMARK 922        TOTAL FREE ENERGY PREDICTED BY IDOCK:   -1.92 KCAL/MOL
REMARK 923 INTER-LIGAND FREE ENERGY PREDICTED BY IDOCK:   -1.74 KCAL/MOL
REMARK 924 INTRA-LIGAND FREE ENERGY PREDICTED BY IDOCK:   -0.18 KCAL/MOL
REMARK 927      BINDING AFFINITY PREDICTED BY RF-SCORE:    0.00 PKD
ROOT
HETATM    1  O   UNL     1     -13.977  12.832  73.163  1.00  0.00     0.266 OA 
HETATM    2  C   UNL     1     -13.812  12.209  71.975  1.00  0.00     0.193 C  
HETATM    3  C   UNL     1     -12.817  12.849  71.073  1.00  0.00    -0.268 A  
HETATM    4  O   UNL     1     -14.398  11.177  71.702  1.00  0.00     1.302 OA 
HETATM    5  C   UNL     1     -11.808  12.074  70.439  1.00  0.00    -0.212 A  
HETATM    6  I   UNL     1     -11.551   9.977  70.896  1.00  0.00    -0.427 I  
HETATM    7  C   UNL     1     -10.868  12.660  69.545  1.00  0.00     0.212 A  
HETATM    8  I   UNL     1     -14.394  15.528  71.470  1.00  0.00     0.273 I  
HETATM    9  C   UNL     1     -10.964  14.038  69.280  1.00  0.00    -0.206 A  
HETATM   10  C   UNL     1     -12.883  14.221  70.774  1.00  0.00    -0.337 A  
HETATM   11  C   UNL     1     -11.955  14.808  69.905  1.00  0.00    -0.378 A  
HETATM   12  I   UNL     1      -9.865  15.046  67.785  1.00  0.00    -0.223 I  
ENDROOT
BRANCH   7  13
HETATM   13  N   UNL     1      -9.922  11.812  68.894  1.00  0.00    -0.398 N  
HETATM   14  O   UNL     1     -10.873  11.901  66.778  1.00  0.00    -0.242 OA 
HETATM   15  C   UNL     1      -9.992  11.512  67.542  1.00  0.00    -0.190 C  
HETATM   16  H   UNL     1      -9.164  11.411  69.445  1.00  0.00     0.000 HD 
BRANCH  15  17
HETATM   17  C   UNL     1      -8.775  10.767  67.011  1.00  0.00    -0.136 C  
BRANCH  17  18
HETATM   18  C   UNL     1      -7.497  11.504  67.405  1.00  0.00    -0.127 C  
BRANCH  18  19
HETATM   19  C   UNL     1      -6.634  10.788  68.450  1.00  0.00    -0.055 C  
BRANCH  19  20
HETATM   20  C   UNL     1      -7.406  10.189  69.630  1.00  0.00    -0.138 C  
BRANCH  20  21
HETATM   21  C   UNL     1      -7.534   8.677  69.474  1.00  0.00    -0.072 C  
HETATM   22  N   UNL     1      -6.315   8.014  69.477  1.00  0.00    -0.034 N  
HETATM   23  O   UNL     1      -8.616   8.132  69.284  1.00  0.00    -0.133 OA 
HETATM   24  H   UNL     1      -5.456   8.553  69.580  1.00  0.00     0.000 HD 
BRANCH  22  25
HETATM   25  C   UNL     1      -6.236   6.596  69.340  1.00  0.00    -0.034 A  
HETATM   26  C   UNL     1      -6.027   5.748  70.439  1.00  0.00    -0.025 A  
HETATM   27  I   UNL     1      -5.479   6.424  72.371  1.00  0.00    -0.038 I  
HETATM   28  C   UNL     1      -5.996   4.361  70.271  1.00  0.00    -0.018 A  
HETATM   29  C   UNL     1      -6.102   3.791  68.994  1.00  0.00    -0.028 A  
HETATM   30  I   UNL     1      -5.908   1.685  68.967  1.00  0.00    -0.025 I  
HETATM   31  C   UNL     1      -6.255   4.605  67.859  1.00  0.00    -0.036 A  
HETATM   32  C   UNL     1      -6.264   4.024  66.485  1.00  0.00    -0.032 C  
HETATM   33  C   UNL     1      -6.326   6.012  68.046  1.00  0.00    -0.044 A  
HETATM   34  O   UNL     1      -5.599   4.470  65.568  1.00  0.00    -0.013 OA 
HETATM   35  I   UNL     1      -6.708   7.355  66.396  1.00  0.00    -0.064 I  
HETATM   36  O   UNL     1      -7.103   2.979  66.314  1.00  0.00    -0.056 OA 
ENDBRANCH  22  25
ENDBRANCH  20  21
ENDBRANCH  19  20
ENDBRANCH  18  19
ENDBRANCH  17  18
ENDBRANCH  15  17
ENDBRANCH   7  13
TORSDOF 7
ENDMDL
MODEL      227
REMARK 921   NORMALIZED FREE ENERGY PREDICTED BY IDOCK:   -0.67 KCAL/MOL
REMARK 922        TOTAL FREE ENERGY PREDICTED BY IDOCK:   -1.86 KCAL/MOL
REMARK 923 INTER-LIGAND FREE ENERGY PREDICTED BY IDOCK:   -2.37 KCAL/MOL
REMARK 924 INTRA-LIGAND FREE ENERGY PREDICTED BY IDOCK:    0.51 KCAL/MOL
REMARK 927      BINDING AFFINITY PREDICTED BY RF-SCORE:    0.00 PKD
ROOT
HETATM    1  O   UNL     1      -6.914   1.516  63.579  1.00  0.00    -0.029 OA 
HETATM    2  C   UNL     1      -6.771   2.853  63.714  1.00  0.00    -0.032 C  
HETATM    3  C   UNL     1      -7.784   3.498  64.593  1.00  0.00    -0.077 A  
HETATM    4  O   UNL     1      -5.851   3.459  63.195  1.00  0.00    -0.013 OA 
HETATM    5  C   UNL     1      -7.387   4.401  65.616  1.00  0.00    -0.080 A  
HETATM    6  I   UNL     1      -5.301   4.737  66.069  1.00  0.00    -0.010 I  
HETATM    7  C   UNL     1      -8.341   5.057  66.445  1.00  0.00    -0.108 A  
HETATM    8  I   UNL     1      -9.979   2.114  62.837  1.00  0.00    -0.122 I  
HETATM    9  C   UNL     1      -9.707   4.806  66.221  1.00  0.00    -0.196 A  
HETATM   10  C   UNL     1      -9.159   3.282  64.397  1.00  0.00    -0.128 A  
HETATM   11  C   UNL     1     -10.104   3.914  65.216  1.00  0.00    -0.122 A  
HETATM   12  I   UNL     1     -11.282   5.875  67.135  1.00  0.00     1.070 I  
ENDROOT
BRANCH   7  13
HETATM   13  N   UNL     1      -7.876   6.000  67.410  1.00  0.00    -0.101 N  
HETATM   14  O   UNL     1      -7.792   7.836  65.992  1.00  0.00    -0.092 OA 
HETATM   15  C   UNL     1      -7.654   7.334  67.105  1.00  0.00    -0.103 C  
HETATM   16  H   UNL     1      -7.701   5.680  68.362  1.00  0.00     0.000 HD 
BRANCH  15  17
HETATM   17  C   UNL     1      -7.364   8.205  68.321  1.00  0.00    -0.095 C  
BRANCH  17  18
HETATM   18  C   UNL     1      -8.502   8.087  69.332  1.00  0.00    -0.132 C  
BRANCH  18  19
HETATM   19  C   UNL     1      -9.490   9.258  69.332  1.00  0.00    -0.169 C  
BRANCH  19  20
HETATM   20  C   UNL     1      -9.848   9.807  67.947  1.00  0.00    -0.176 C  
BRANCH  20  21
HETATM   21  C   UNL     1      -9.920  11.330  67.977  1.00  0.00    -0.179 C  
HETATM   22  N   UNL     1      -8.724  11.949  67.641  1.00  0.00    -0.155 N  
HETATM   23  O   UNL     1     -10.927  11.926  68.344  1.00  0.00    -0.206 OA 
HETATM   24  H   UNL     1      -7.915  11.374  67.407  1.00  0.00     0.000 HD 
BRANCH  22  25
HETATM   25  C   UNL     1      -8.600  13.370  67.617  1.00  0.00    -0.193 A  
HETATM   26  C   UNL     1      -7.695  14.056  68.442  1.00  0.00    -0.138 A  
HETATM   27  I   UNL     1      -6.636  13.160  70.044  1.00  0.00     0.681 I  
HETATM   28  C   UNL     1      -7.572  15.447  68.362  1.00  0.00    -0.116 A  
HETATM   29  C   UNL     1      -8.398  16.191  67.508  1.00  0.00    -0.159 A  
HETATM   30  I   UNL     1      -8.120  18.282  67.639  1.00  0.00    -0.275 I  
HETATM   31  C   UNL     1      -9.358  15.549  66.705  1.00  0.00    -0.267 A  
HETATM   32  C   UNL     1     -10.316  16.332  65.870  1.00  0.00    -0.365 C  
HETATM   33  C   UNL     1      -9.446  14.133  66.765  1.00  0.00    -0.279 A  
HETATM   34  O   UNL     1     -11.514  16.117  65.851  1.00  0.00     0.220 OA 
HETATM   35  I   UNL     1     -10.778  13.026  65.472  1.00  0.00    -0.332 I  
HETATM   36  O   UNL     1      -9.750  17.281  65.093  1.00  0.00     0.110 OA 
ENDBRANCH  22  25
ENDBRANCH  20  21
ENDBRANCH  19  20
ENDBRANCH  18  19
ENDBRANCH  17  18
ENDBRANCH  15  17
ENDBRANCH   7  13
TORSDOF 7
ENDMDL
MODEL      228
REMARK 921   NORMALIZED FREE ENERGY PREDICTED BY IDOCK:   -0.27 KCAL/MOL
REMARK 922        TOTAL FREE ENERGY PREDICTED BY IDOCK:   -1.30 KCAL/MOL
REMARK 923 INTER-LIGAND FREE ENERGY PREDICTED BY IDOCK:   -1.64 KCAL/MOL
REMARK 924 INTRA-LIGAND FREE ENERGY PREDICTED BY IDOCK:    0.34 KCAL/MOL
REMARK 927      BINDING AFFINITY PREDICTED BY RF-SCORE:    0.00 PKD
ROOT
HETATM    1  O   UNL     1      -8.543  15.060  65.348  1.00  0.00     1.369 OA 
HETATM    2  C   UNL     1      -8.224  14.594  66.575  1.00  0.00     0.359 C  
HETATM    3  C   UNL     1      -8.594  13.173  66.813  1.00  0.00    -0.049 A  
HETATM    4  O   UNL     1      -7.632  15.278  67.391  1.00  0.00    -0.167 OA 
HETATM    5  C   UNL     1      -7.653  12.261  67.364  1.00  0.00    -0.159 A  
HETATM    6  I   UNL     1      -5.599  12.837  67.705  1.00  0.00    -0.074 I  
HETATM    7  C   UNL     1      -7.997  10.905  67.633  1.00  0.00    -0.114 A  
HETATM    8  I   UNL     1     -11.495  13.925  65.898  1.00  0.00    -0.390 I  
HETATM    9  C   UNL     1      -9.309  10.479  67.356  1.00  0.00    -0.142 A  
HETATM   10  C   UNL     1      -9.896  12.709  66.559  1.00  0.00    -0.256 A  
HETATM   11  C   UNL     1     -10.240  11.374  66.810  1.00  0.00    -0.258 A  
HETATM   12  I   UNL     1     -10.105   8.611  67.935  1.00  0.00    -0.280 I  
ENDROOT
BRANCH   7  13
HETATM   13  N   UNL     1      -7.024  10.061  68.246  1.00  0.00    -0.067 N  
HETATM   14  O   UNL     1      -6.330   8.980  66.313  1.00  0.00    -0.063 OA 
HETATM   15  C   UNL     1      -6.247   9.168  67.524  1.00  0.00    -0.058 C  
HETATM   16  H   UNL     1      -6.894  10.117  69.256  1.00  0.00     0.000 HD 
BRANCH  15  17
HETATM   17  C   UNL     1      -5.133   8.521  68.338  1.00  0.00    -0.033 C  
BRANCH  17  18
HETATM   18  C   UNL     1      -5.657   8.119  69.715  1.00  0.00    -0.026 C  
BRANCH  18  19
HETATM   19  C   UNL     1      -5.618   9.229  70.770  1.00  0.00    -0.039 C  
BRANCH  19  20
HETATM   20  C   UNL     1      -6.793   9.231  71.754  1.00  0.00     0.162 C  
BRANCH  20  21
HETATM   21  C   UNL     1      -7.188   7.805  72.120  1.00  0.00    -0.075 C  
HETATM   22  N   UNL     1      -8.286   7.335  71.414  1.00  0.00    -0.110 N  
HETATM   23  O   UNL     1      -6.624   7.182  73.014  1.00  0.00    -0.064 OA 
HETATM   24  H   UNL     1      -8.734   7.943  70.729  1.00  0.00     0.000 HD 
BRANCH  22  25
HETATM   25  C   UNL     1      -8.803   6.022  71.623  1.00  0.00    -0.139 A  
HETATM   26  C   UNL     1      -9.506   5.671  72.786  1.00  0.00    -0.148 A  
HETATM   27  I   UNL     1      -9.627   6.892  74.513  1.00  0.00     0.135 I  
HETATM   28  C   UNL     1     -10.032   4.384  72.938  1.00  0.00    -0.201 A  
HETATM   29  C   UNL     1      -9.810   3.399  71.966  1.00  0.00    -0.169 A  
HETATM   30  I   UNL     1     -10.595   1.500  72.462  1.00  0.00    -0.062 I  
HETATM   31  C   UNL     1      -9.062   3.691  70.812  1.00  0.00    -0.182 A  
HETATM   32  C   UNL     1      -8.726   2.629  69.819  1.00  0.00    -0.071 C  
HETATM   33  C   UNL     1      -8.566   5.012  70.649  1.00  0.00    -0.114 A  
HETATM   34  O   UNL     1      -7.604   2.463  69.374  1.00  0.00    -0.043 OA 
HETATM   35  I   UNL     1      -7.532   5.619  68.850  1.00  0.00    -0.086 I  
HETATM   36  O   UNL     1      -9.773   1.880  69.409  1.00  0.00    -0.028 OA 
ENDBRANCH  22  25
ENDBRANCH  20  21
ENDBRANCH  19  20
ENDBRANCH  18  19
ENDBRANCH  17  18
ENDBRANCH  15  17
ENDBRANCH   7  13
TORSDOF 7
ENDMDL
MODEL      229
REMARK 921   NORMALIZED FREE ENERGY PREDICTED BY IDOCK:   -0.17 KCAL/MOL
REMARK 922        TOTAL FREE ENERGY PREDICTED BY IDOCK:   -1.16 KCAL/MOL
REMARK 923 INTER-LIGAND FREE ENERGY PREDICTED BY IDOCK:   -1.58 KCAL/MOL
REMARK 924 INTRA-LIGAND FREE ENERGY PREDICTED BY IDOCK:    0.42 KCAL/MOL
REMARK 927      BINDING AFFINITY PREDICTED BY RF-SCORE:    0.00 PKD
ROOT
HETATM    1  O   UNL     1     -10.679  11.941  67.627  1.00  0.00    -0.203 OA 
HETATM    2  C   UNL     1     -10.959  10.699  67.177  1.00  0.00    -0.247 C  
HETATM    3  C   UNL     1     -10.011  10.183  66.153  1.00  0.00    -0.310 A  
HETATM    4  O   UNL     1     -11.885  10.045  67.623  1.00  0.00     0.331 OA 
HETATM    5  C   UNL     1      -9.448   8.884  66.275  1.00  0.00    -0.239 A  
HETATM    6  I   UNL     1      -9.787   7.674  68.033  1.00  0.00    -0.232 I  
HETATM    7  C   UNL     1      -8.567   8.357  65.288  1.00  0.00    -0.150 A  
HETATM    8  I   UNL     1     -10.542  12.818  64.543  1.00  0.00    -0.418 I  
HETATM    9  C   UNL     1      -8.270   9.148  64.164  1.00  0.00    -0.162 A  
HETATM   10  C   UNL     1      -9.695  10.937  65.010  1.00  0.00    -0.267 A  
HETATM   11  C   UNL     1      -8.820  10.431  64.040  1.00  0.00    -0.225 A  
HETATM   12  I   UNL     1      -7.225   8.460  62.463  1.00  0.00    -0.102 I  
ENDROOT
BRANCH   7  13
HETATM   13  N   UNL     1      -8.089   7.021  65.441  1.00  0.00    -0.129 N  
HETATM   14  O   UNL     1      -9.791   5.975  64.260  1.00  0.00     1.757 OA 
HETATM   15  C   UNL     1      -8.739   5.926  64.892  1.00  0.00     0.038 C  
HETATM   16  H   UNL     1      -7.234   6.865  65.976  1.00  0.00     0.000 HD 
BRANCH  15  17
HETATM   17  C   UNL     1      -7.952   4.626  64.995  1.00  0.00    -0.096 C  
BRANCH  17  18
HETATM   18  C   UNL     1      -7.350   4.487  66.392  1.00  0.00    -0.081 C  
BRANCH  18  19
HETATM   19  C   UNL     1      -5.835   4.698  66.466  1.00  0.00    -0.022 C  
BRANCH  19  20
HETATM   20  C   UNL     1      -5.130   3.960  67.609  1.00  0.00    -0.008 C  
BRANCH  20  21
HETATM   21  C   UNL     1      -5.910   4.119  68.910  1.00  0.00    -0.022 C  
HETATM   22  N   UNL     1      -6.654   5.289  68.971  1.00  0.00    -0.049 N  
HETATM   23  O   UNL     1      -5.808   3.317  69.832  1.00  0.00    -0.017 OA 
HETATM   24  H   UNL     1      -6.635   5.933  68.181  1.00  0.00     0.000 HD 
BRANCH  22  25
HETATM   25  C   UNL     1      -7.446   5.611  70.113  1.00  0.00    -0.077 A  
HETATM   26  C   UNL     1      -7.154   6.705  70.942  1.00  0.00    -0.069 A  
HETATM   27  I   UNL     1      -5.358   7.825  70.838  1.00  0.00    -0.026 I  
HETATM   28  C   UNL     1      -7.977   7.014  72.030  1.00  0.00    -0.094 A  
HETATM   29  C   UNL     1      -9.069   6.198  72.356  1.00  0.00    -0.136 A  
HETATM   30  I   UNL     1     -10.097   6.788  74.107  1.00  0.00    -0.029 I  
HETATM   31  C   UNL     1      -9.366   5.060  71.586  1.00  0.00    -0.188 A  
HETATM   32  C   UNL     1     -10.459   4.123  71.979  1.00  0.00     0.002 C  
HETATM   33  C   UNL     1      -8.546   4.778  70.460  1.00  0.00    -0.095 A  
HETATM   34  O   UNL     1     -10.318   2.914  72.020  1.00  0.00    -0.099 OA 
HETATM   35  I   UNL     1      -8.991   3.144  69.118  1.00  0.00    -0.227 I  
HETATM   36  O   UNL     1     -11.643   4.712  72.251  1.00  0.00     0.307 OA 
ENDBRANCH  22  25
ENDBRANCH  20  21
ENDBRANCH  19  20
ENDBRANCH  18  19
ENDBRANCH  17  18
ENDBRANCH  15  17
ENDBRANCH   7  13
TORSDOF 7
ENDMDL
MODEL      230
REMARK 921   NORMALIZED FREE ENERGY PREDICTED BY IDOCK:    0.17 KCAL/MOL
REMARK 922        TOTAL FREE ENERGY PREDICTED BY IDOCK:   -0.69 KCAL/MOL
REMARK 923 INTER-LIGAND FREE ENERGY PREDICTED BY IDOCK:   -4.07 KCAL/MOL
REMARK 924 INTRA-LIGAND FREE ENERGY PREDICTED BY IDOCK:    3.38 KCAL/MOL
REMARK 927      BINDING AFFINITY PREDICTED BY RF-SCORE:    0.00 PKD
ROOT
HETATM    1  O   UNL     1     -11.208  14.924  65.253  1.00  0.00    -0.340 OA 
HETATM    2  C   UNL     1     -10.892  14.053  66.236  1.00  0.00    -0.291 C  
HETATM    3  C   UNL     1     -10.285  12.780  65.763  1.00  0.00    -0.302 A  
HETATM    4  O   UNL     1     -11.047  14.325  67.413  1.00  0.00    -0.288 OA 
HETATM    5  C   UNL     1      -9.098  12.275  66.360  1.00  0.00    -0.158 A  
HETATM    6  I   UNL     1      -8.018  13.415  67.845  1.00  0.00    -0.206 I  
HETATM    7  C   UNL     1      -8.521  11.041  65.947  1.00  0.00    -0.140 A  
HETATM    8  I   UNL     1     -12.750  12.484  63.850  1.00  0.00    -0.074 I  
HETATM    9  C   UNL     1      -9.162  10.307  64.933  1.00  0.00    -0.227 A  
HETATM   10  C   UNL     1     -10.899  12.011  64.759  1.00  0.00    -0.306 A  
HETATM   11  C   UNL     1     -10.331  10.801  64.338  1.00  0.00    -0.405 A  
HETATM   12  I   UNL     1      -8.642   8.340  64.372  1.00  0.00     0.456 I  
ENDROOT
BRANCH   7  13
HETATM   13  N   UNL     1      -7.365  10.563  66.634  1.00  0.00    -0.113 N  
HETATM   14  O   UNL     1      -6.139  12.530  66.529  1.00  0.00     0.113 OA 
HETATM   15  C   UNL     1      -6.261  11.362  66.888  1.00  0.00    -0.135 C  
HETATM   16  H   UNL     1      -7.351   9.593  66.952  1.00  0.00     0.000 HD 
BRANCH  15  17
HETATM   17  C   UNL     1      -5.233  10.720  67.811  1.00  0.00    -0.039 C  
BRANCH  17  18
HETATM   18  C   UNL     1      -5.141   9.222  67.530  1.00  0.00    -0.037 C  
BRANCH  18  19
HETATM   19  C   UNL     1      -6.437   8.439  67.765  1.00  0.00    -0.061 C  
BRANCH  19  20
HETATM   20  C   UNL     1      -6.360   6.942  67.448  1.00  0.00    -0.045 C  
BRANCH  20  21
HETATM   21  C   UNL     1      -7.343   6.160  68.312  1.00  0.00    -0.086 C  
HETATM   22  N   UNL     1      -6.734   5.225  69.137  1.00  0.00    -0.051 N  
HETATM   23  O   UNL     1      -8.556   6.305  68.211  1.00  0.00    -0.117 OA 
HETATM   24  H   UNL     1      -5.719   5.127  69.114  1.00  0.00     0.000 HD 
BRANCH  22  25
HETATM   25  C   UNL     1      -7.494   4.397  70.016  1.00  0.00    -0.050 A  
HETATM   26  C   UNL     1      -7.877   3.091  69.670  1.00  0.00    -0.042 A  
HETATM   27  I   UNL     1      -7.686   2.276  67.724  1.00  0.00    -0.064 I  
HETATM   28  C   UNL     1      -8.587   2.295  70.574  1.00  0.00    -0.100 A  
HETATM   29  C   UNL     1      -8.992   2.807  71.814  1.00  0.00    -0.083 A  
HETATM   30  I   UNL     1     -10.156   1.467  72.965  1.00  0.00    -0.215 I  
HETATM   31  C   UNL     1      -8.680   4.128  72.179  1.00  0.00    -0.120 A  
HETATM   32  C   UNL     1      -9.192   4.722  73.448  1.00  0.00    -0.113 C  
HETATM   33  C   UNL     1      -7.923   4.915  71.269  1.00  0.00    -0.101 A  
HETATM   34  O   UNL     1      -9.722   5.818  73.505  1.00  0.00    -0.152 OA 
HETATM   35  I   UNL     1      -7.257   6.907  71.779  1.00  0.00    -0.080 I  
HETATM   36  O   UNL     1      -8.990   3.970  74.552  1.00  0.00    -0.099 OA 
ENDBRANCH  22  25
ENDBRANCH  20  21
ENDBRANCH  19  20
ENDBRANCH  18  19
ENDBRANCH  17  18
ENDBRANCH  15  17
ENDBRANCH   7  13
TORSDOF 7
ENDMDL
MODEL      231
REMARK 921   NORMALIZED FREE ENERGY PREDICTED BY IDOCK:    0.17 KCAL/MOL
REMARK 922        TOTAL FREE ENERGY PREDICTED BY IDOCK:   -0.68 KCAL/MOL
REMARK 923 INTER-LIGAND FREE ENERGY PREDICTED BY IDOCK:   -0.90 KCAL/MOL
REMARK 924 INTRA-LIGAND FREE ENERGY PREDICTED BY IDOCK:    0.22 KCAL/MOL
REMARK 927      BINDING AFFINITY PREDICTED BY RF-SCORE:    0.00 PKD
ROOT
HETATM    1  O   UNL     1     -13.293   7.167  71.693  1.00  0.00    -0.376 OA 
HETATM    2  C   UNL     1     -12.223   7.952  71.437  1.00  0.00    -0.313 C  
HETATM    3  C   UNL     1     -11.182   7.321  70.582  1.00  0.00    -0.300 A  
HETATM    4  O   UNL     1     -12.156   9.101  71.838  1.00  0.00    -0.349 OA 
HETATM    5  C   UNL     1     -10.646   8.012  69.462  1.00  0.00    -0.214 A  
HETATM    6  I   UNL     1     -11.442   9.922  68.836  1.00  0.00     0.418 I  
HETATM    7  C   UNL     1      -9.625   7.442  68.651  1.00  0.00    -0.146 A  
HETATM    8  I   UNL     1     -11.185   4.922  72.598  1.00  0.00     0.013 I  
HETATM    9  C   UNL     1      -9.133   6.168  68.991  1.00  0.00    -0.124 A  
HETATM   10  C   UNL     1     -10.657   6.054  70.892  1.00  0.00    -0.251 A  
HETATM   11  C   UNL     1      -9.660   5.480  70.093  1.00  0.00    -0.223 A  
HETATM   12  I   UNL     1      -7.442   5.266  68.105  1.00  0.00    -0.076 I  
ENDROOT
BRANCH   7  13
HETATM   13  N   UNL     1      -9.087   8.217  67.581  1.00  0.00    -0.131 N  
HETATM   14  O   UNL     1      -9.959   6.947  65.846  1.00  0.00     0.266 OA 
HETATM   15  C   UNL     1      -9.316   7.913  66.248  1.00  0.00    -0.164 C  
HETATM   16  H   UNL     1      -8.511   9.029  67.806  1.00  0.00     0.000 HD 
BRANCH  15  17
HETATM   17  C   UNL     1      -8.829   8.982  65.278  1.00  0.00    -0.234 C  
BRANCH  17  18
HETATM   18  C   UNL     1      -7.727   8.416  64.385  1.00  0.00    -0.133 C  
BRANCH  18  19
HETATM   19  C   UNL     1      -6.320   8.942  64.683  1.00  0.00    -0.066 C  
BRANCH  19  20
HETATM   20  C   UNL     1      -6.122   9.507  66.093  1.00  0.00    -0.063 C  
BRANCH  20  21
HETATM   21  C   UNL     1      -6.297  11.022  66.093  1.00  0.00    -0.096 C  
HETATM   22  N   UNL     1      -7.576  11.434  66.440  1.00  0.00    -0.321 N  
HETATM   23  O   UNL     1      -5.401  11.780  65.736  1.00  0.00    -0.110 OA 
HETATM   24  H   UNL     1      -8.280  10.731  66.664  1.00  0.00     0.000 HD 
BRANCH  22  25
HETATM   25  C   UNL     1      -7.927  12.815  66.492  1.00  0.00     0.502 A  
HETATM   26  C   UNL     1      -8.813  13.397  65.571  1.00  0.00     1.342 A  
HETATM   27  I   UNL     1      -9.493  12.435  63.810  1.00  0.00     1.457 I  
HETATM   28  C   UNL     1      -9.165  14.745  65.677  1.00  0.00     0.205 A  
HETATM   29  C   UNL     1      -8.590  15.561  66.661  1.00  0.00    -0.290 A  
HETATM   30  I   UNL     1      -9.179  17.589  66.558  1.00  0.00    -0.214 I  
HETATM   31  C   UNL     1      -7.655  15.034  67.569  1.00  0.00    -0.216 A  
HETATM   32  C   UNL     1      -6.954  15.909  68.554  1.00  0.00    -0.122 C  
HETATM   33  C   UNL     1      -7.334  13.653  67.477  1.00  0.00    -0.166 A  
HETATM   34  O   UNL     1      -5.750  15.880  68.732  1.00  0.00    -0.102 OA 
HETATM   35  I   UNL     1      -6.026  12.697  68.907  1.00  0.00    -0.095 I  
HETATM   36  O   UNL     1      -7.763  16.717  69.274  1.00  0.00    -0.206 OA 
ENDBRANCH  22  25
ENDBRANCH  20  21
ENDBRANCH  19  20
ENDBRANCH  18  19
ENDBRANCH  17  18
ENDBRANCH  15  17
ENDBRANCH   7  13
TORSDOF 7
ENDMDL
MODEL      232
REMARK 921   NORMALIZED FREE ENERGY PREDICTED BY IDOCK:    0.38 KCAL/MOL
REMARK 922        TOTAL FREE ENERGY PREDICTED BY IDOCK:   -0.38 KCAL/MOL
REMARK 923 INTER-LIGAND FREE ENERGY PREDICTED BY IDOCK:   -2.59 KCAL/MOL
REMARK 924 INTRA-LIGAND FREE ENERGY PREDICTED BY IDOCK:    2.21 KCAL/MOL
REMARK 927      BINDING AFFINITY PREDICTED BY RF-SCORE:    0.00 PKD
ROOT
HETATM    1  O   UNL     1      -9.092  10.571  66.682  1.00  0.00    -0.152 OA 
HETATM    2  C   UNL     1      -9.836   9.521  66.268  1.00  0.00    -0.266 C  
HETATM    3  C   UNL     1      -9.068   8.456  65.568  1.00  0.00    -0.108 A  
HETATM    4  O   UNL     1     -11.028   9.443  66.505  1.00  0.00     0.087 OA 
HETATM    5  C   UNL     1      -9.227   7.091  65.929  1.00  0.00     0.052 A  
HETATM    6  I   UNL     1     -10.438   6.511  67.622  1.00  0.00    -0.443 I  
HETATM    7  C   UNL     1      -8.529   6.053  65.248  1.00  0.00    -0.131 A  
HETATM    8  I   UNL     1      -7.955  10.699  63.684  1.00  0.00     0.370 I  
HETATM    9  C   UNL     1      -7.678   6.403  64.185  1.00  0.00    -0.105 A  
HETATM   10  C   UNL     1      -8.215   8.763  64.494  1.00  0.00    -0.167 A  
HETATM   11  C   UNL     1      -7.515   7.749  63.826  1.00  0.00    -0.108 A  
HETATM   12  I   UNL     1      -6.777   5.018  62.871  1.00  0.00    -0.031 I  
ENDROOT
BRANCH   7  13
HETATM   13  N   UNL     1      -8.785   4.699  65.619  1.00  0.00    -0.123 N  
HETATM   14  O   UNL     1      -9.303   3.917  63.496  1.00  0.00    -0.121 OA 
HETATM   15  C   UNL     1      -9.138   3.724  64.698  1.00  0.00    -0.138 C  
HETATM   16  H   UNL     1      -8.704   4.437  66.602  1.00  0.00     0.000 HD 
BRANCH  15  17
HETATM   17  C   UNL     1      -9.159   2.313  65.271  1.00  0.00    -0.119 C  
BRANCH  17  18
HETATM   18  C   UNL     1      -7.854   2.030  66.012  1.00  0.00    -0.076 C  
BRANCH  18  19
HETATM   19  C   UNL     1      -6.755   3.078  65.808  1.00  0.00    -0.044 C  
BRANCH  19  20
HETATM   20  C   UNL     1      -5.800   3.256  66.993  1.00  0.00    -0.023 C  
BRANCH  20  21
HETATM   21  C   UNL     1      -6.417   4.171  68.046  1.00  0.00    -0.038 C  
HETATM   22  N   UNL     1      -5.710   4.198  69.240  1.00  0.00    -0.017 N  
HETATM   23  O   UNL     1      -7.480   4.753  67.859  1.00  0.00    -0.076 OA 
HETATM   24  H   UNL     1      -4.866   3.635  69.331  1.00  0.00     0.000 HD 
BRANCH  22  25
HETATM   25  C   UNL     1      -6.138   4.996  70.342  1.00  0.00    -0.018 A  
HETATM   26  C   UNL     1      -6.121   6.399  70.302  1.00  0.00    -0.034 A  
HETATM   27  I   UNL     1      -5.177   7.530  68.779  1.00  0.00    -0.023 I  
HETATM   28  C   UNL     1      -6.586   7.148  71.388  1.00  0.00    -0.051 A  
HETATM   29  C   UNL     1      -7.013   6.516  72.564  1.00  0.00    -0.069 A  
HETATM   30  I   UNL     1      -7.558   7.847  74.113  1.00  0.00    -0.276 I  
HETATM   31  C   UNL     1      -6.994   5.114  72.669  1.00  0.00    -0.084 A  
HETATM   32  C   UNL     1      -7.344   4.429  73.947  1.00  0.00    -0.069 C  
HETATM   33  C   UNL     1      -6.557   4.362  71.545  1.00  0.00    -0.026 A  
HETATM   34  O   UNL     1      -6.664   3.545  74.438  1.00  0.00    -0.041 OA 
HETATM   35  I   UNL     1      -6.623   2.202  71.534  1.00  0.00    -0.019 I  
HETATM   36  O   UNL     1      -8.504   4.832  74.510  1.00  0.00    -0.103 OA 
ENDBRANCH  22  25
ENDBRANCH  20  21
ENDBRANCH  19  20
ENDBRANCH  18  19
ENDBRANCH  17  18
ENDBRANCH  15  17
ENDBRANCH   7  13
TORSDOF 7
ENDMDL
MODEL      233
REMARK 921   NORMALIZED FREE ENERGY PREDICTED BY IDOCK:    0.89 KCAL/MOL
REMARK 922        TOTAL FREE ENERGY PREDICTED BY IDOCK:    0.33 KCAL/MOL
REMARK 923 INTER-LIGAND FREE ENERGY PREDICTED BY IDOCK:   -0.30 KCAL/MOL
REMARK 924 INTRA-LIGAND FREE ENERGY PREDICTED BY IDOCK:    0.63 KCAL/MOL
REMARK 927      BINDING AFFINITY PREDICTED BY RF-SCORE:    0.00 PKD
ROOT
HETATM    1  O   UNL     1      -7.650   7.079  72.619  1.00  0.00    -0.088 OA 
HETATM    2  C   UNL     1      -6.630   7.572  71.884  1.00  0.00    -0.042 C  
HETATM    3  C   UNL     1      -6.977   7.882  70.471  1.00  0.00    -0.045 A  
HETATM    4  O   UNL     1      -5.533   7.790  72.368  1.00  0.00    -0.036 OA 
HETATM    5  C   UNL     1      -6.622   9.132  69.894  1.00  0.00    -0.047 A  
HETATM    6  I   UNL     1      -5.737  10.705  71.082  1.00  0.00     0.300 I  
HETATM    7  C   UNL     1      -6.914   9.435  68.534  1.00  0.00    -0.066 A  
HETATM    8  I   UNL     1      -8.075   4.955  70.250  1.00  0.00    -0.084 I  
HETATM    9  C   UNL     1      -7.554   8.457  67.751  1.00  0.00    -0.102 A  
HETATM   10  C   UNL     1      -7.607   6.929  69.652  1.00  0.00    -0.101 A  
HETATM   11  C   UNL     1      -7.909   7.224  68.316  1.00  0.00    -0.122 A  
HETATM   12  I   UNL     1      -7.821   8.588  65.661  1.00  0.00    -0.120 I  
ENDROOT
BRANCH   7  13
HETATM   13  N   UNL     1      -6.472  10.683  68.001  1.00  0.00    -0.062 N  
HETATM   14  O   UNL     1      -8.550  11.713  67.935  1.00  0.00    -0.137 OA 
HETATM   15  C   UNL     1      -7.335  11.741  67.759  1.00  0.00    -0.106 C  
HETATM   16  H   UNL     1      -5.481  10.803  67.791  1.00  0.00     0.000 HD 
BRANCH  15  17
HETATM   17  C   UNL     1      -6.631  13.041  67.392  1.00  0.00    -0.115 C  
BRANCH  17  18
HETATM   18  C   UNL     1      -7.552  14.229  67.660  1.00  0.00    -0.191 C  
BRANCH  18  19
HETATM   19  C   UNL     1      -7.453  15.366  66.638  1.00  0.00     0.320 C  
BRANCH  19  20
HETATM   20  C   UNL     1      -8.777  15.763  65.978  1.00  0.00    -0.169 C  
BRANCH  20  21
HETATM   21  C   UNL     1      -9.938  15.573  66.948  1.00  0.00    -0.247 C  
HETATM   22  N   UNL     1      -9.700  14.607  67.915  1.00  0.00    -0.213 N  
HETATM   23  O   UNL     1     -11.001  16.170  66.816  1.00  0.00    -0.229 OA 
HETATM   24  H   UNL     1      -8.808  14.113  67.916  1.00  0.00     0.000 HD 
BRANCH  22  25
HETATM   25  C   UNL     1     -10.673  14.289  68.908  1.00  0.00    -0.257 A  
HETATM   26  C   UNL     1     -11.588  13.235  68.750  1.00  0.00    -0.312 A  
HETATM   27  I   UNL     1     -11.888  12.189  66.933  1.00  0.00     0.272 I  
HETATM   28  C   UNL     1     -12.501  12.928  69.763  1.00  0.00     0.027 A  
HETATM   29  C   UNL     1     -12.570  13.707  70.927  1.00  0.00    -0.346 A  
HETATM   30  I   UNL     1     -14.104  13.132  72.264  1.00  0.00     0.533 I  
HETATM   31  C   UNL     1     -11.712  14.806  71.102  1.00  0.00    -0.360 A  
HETATM   32  C   UNL     1     -11.841  15.708  72.284  1.00  0.00    -0.481 C  
HETATM   33  C   UNL     1     -10.761  15.085  70.084  1.00  0.00    -0.156 A  
HETATM   34  O   UNL     1     -11.861  16.923  72.196  1.00  0.00    -0.151 OA 
HETATM   35  I   UNL     1      -9.292  16.655  70.307  1.00  0.00     2.993 I  
HETATM   36  O   UNL     1     -11.895  15.079  73.478  1.00  0.00    -0.363 OA 
ENDBRANCH  22  25
ENDBRANCH  20  21
ENDBRANCH  19  20
ENDBRANCH  18  19
ENDBRANCH  17  18
ENDBRANCH  15  17
ENDBRANCH   7  13
TORSDOF 7
ENDMDL
MODEL      234
REMARK 921   NORMALIZED FREE ENERGY PREDICTED BY IDOCK:    0.91 KCAL/MOL
REMARK 922        TOTAL FREE ENERGY PREDICTED BY IDOCK:    0.36 KCAL/MOL
REMARK 923 INTER-LIGAND FREE ENERGY PREDICTED BY IDOCK:    1.61 KCAL/MOL
REMARK 924 INTRA-LIGAND FREE ENERGY PREDICTED BY IDOCK:   -1.25 KCAL/MOL
REMARK 927      BINDING AFFINITY PREDICTED BY RF-SCORE:    0.00 PKD
ROOT
HETATM    1  O   UNL     1      -8.845   8.116  62.375  1.00  0.00    -0.018 OA 
HETATM    2  C   UNL     1      -8.950   8.482  63.672  1.00  0.00     0.593 C  
HETATM    3  C   UNL     1      -8.142   7.662  64.614  1.00  0.00    -0.112 A  
HETATM    4  O   UNL     1      -9.615   9.441  64.019  1.00  0.00     0.151 OA 
HETATM    5  C   UNL     1      -7.313   8.282  65.588  1.00  0.00    -0.072 A  
HETATM    6  I   UNL     1      -7.040  10.425  65.628  1.00  0.00    -0.036 I  
HETATM    7  C   UNL     1      -6.559   7.517  66.522  1.00  0.00    -0.053 A  
HETATM    8  I   UNL     1      -9.510   5.135  63.363  1.00  0.00     1.033 I  
HETATM    9  C   UNL     1      -6.660   6.114  66.477  1.00  0.00    -0.055 A  
HETATM   10  C   UNL     1      -8.222   6.258  64.609  1.00  0.00    -0.080 A  
HETATM   11  C   UNL     1      -7.474   5.497  65.517  1.00  0.00    -0.074 A  
HETATM   12  I   UNL     1      -5.860   4.812  67.934  1.00  0.00    -0.024 I  
ENDROOT
BRANCH   7  13
HETATM   13  N   UNL     1      -5.798   8.205  67.514  1.00  0.00    -0.038 N  
HETATM   14  O   UNL     1      -7.539   8.568  69.004  1.00  0.00    -0.090 OA 
HETATM   15  C   UNL     1      -6.353   8.665  68.698  1.00  0.00    -0.053 C  
HETATM   16  H   UNL     1      -4.804   8.364  67.346  1.00  0.00     0.000 HD 
BRANCH  15  17
HETATM   17  C   UNL     1      -5.330   9.180  69.701  1.00  0.00    -0.034 C  
BRANCH  17  18
HETATM   18  C   UNL     1      -5.951  10.272  70.569  1.00  0.00    -0.106 C  
BRANCH  18  19
HETATM   19  C   UNL     1      -5.506  11.699  70.228  1.00  0.00    -0.125 C  
BRANCH  19  20
HETATM   20  C   UNL     1      -6.233  12.807  70.996  1.00  0.00     0.834 C  
BRANCH  20  21
HETATM   21  C   UNL     1      -7.297  13.458  70.117  1.00  0.00     1.319 C  
HETATM   22  N   UNL     1      -7.296  12.994  68.810  1.00  0.00    -0.193 N  
HETATM   23  O   UNL     1      -8.018  14.360  70.530  1.00  0.00     1.111 OA 
HETATM   24  H   UNL     1      -6.619  12.283  68.534  1.00  0.00     0.000 HD 
BRANCH  22  25
HETATM   25  C   UNL     1      -8.219  13.489  67.841  1.00  0.00    -0.168 A  
HETATM   26  C   UNL     1      -7.965  14.646  67.087  1.00  0.00    -0.154 A  
HETATM   27  I   UNL     1      -6.378  15.993  67.481  1.00  0.00    -0.126 I  
HETATM   28  C   UNL     1      -8.876  15.078  66.119  1.00  0.00    -0.047 A  
HETATM   29  C   UNL     1     -10.092  14.406  65.928  1.00  0.00    -0.325 A  
HETATM   30  I   UNL     1     -11.363  15.306  64.498  1.00  0.00     0.064 I  
HETATM   31  C   UNL     1     -10.413  13.277  66.701  1.00  0.00    -0.279 A  
HETATM   32  C   UNL     1     -11.745  12.613  66.586  1.00  0.00    -0.398 C  
HETATM   33  C   UNL     1      -9.463  12.823  67.655  1.00  0.00    -0.190 A  
HETATM   34  O   UNL     1     -12.425  12.312  67.550  1.00  0.00    -0.117 OA 
HETATM   35  I   UNL     1      -9.779  11.014  68.795  1.00  0.00    -0.093 I  
HETATM   36  O   UNL     1     -12.132  12.328  65.324  1.00  0.00    -0.431 OA 
ENDBRANCH  22  25
ENDBRANCH  20  21
ENDBRANCH  19  20
ENDBRANCH  18  19
ENDBRANCH  17  18
ENDBRANCH  15  17
ENDBRANCH   7  13
TORSDOF 7
ENDMDL
MODEL      235
REMARK 921   NORMALIZED FREE ENERGY PREDICTED BY IDOCK:    0.92 KCAL/MOL
REMARK 922        TOTAL FREE ENERGY PREDICTED BY IDOCK:    0.37 KCAL/MOL
REMARK 923 INTER-LIGAND FREE ENERGY PREDICTED BY IDOCK:   -1.37 KCAL/MOL
REMARK 924 INTRA-LIGAND FREE ENERGY PREDICTED BY IDOCK:    1.75 KCAL/MOL
REMARK 927      BINDING AFFINITY PREDICTED BY RF-SCORE:    0.00 PKD
ROOT
HETATM    1  O   UNL     1     -14.411   8.847  70.882  1.00  0.00    -0.064 OA 
HETATM    2  C   UNL     1     -13.201   9.296  71.282  1.00  0.00    -0.261 C  
HETATM    3  C   UNL     1     -12.091   8.321  71.110  1.00  0.00    -0.274 A  
HETATM    4  O   UNL     1     -13.039  10.430  71.697  1.00  0.00    -0.403 OA 
HETATM    5  C   UNL     1     -10.872   8.710  70.492  1.00  0.00    -0.228 A  
HETATM    6  I   UNL     1     -10.638  10.667  69.606  1.00  0.00    -0.089 I  
HETATM    7  C   UNL     1      -9.784   7.802  70.349  1.00  0.00    -0.179 A  
HETATM    8  I   UNL     1     -13.841   6.267  72.704  1.00  0.00     2.304 I  
HETATM    9  C   UNL     1      -9.930   6.497  70.853  1.00  0.00    -0.184 A  
HETATM   10  C   UNL     1     -12.192   7.010  71.608  1.00  0.00    -0.357 A  
HETATM   11  C   UNL     1     -11.131   6.107  71.462  1.00  0.00    -0.342 A  
HETATM   12  I   UNL     1      -8.360   5.093  71.001  1.00  0.00    -0.133 I  
ENDROOT
BRANCH   7  13
HETATM   13  N   UNL     1      -8.566   8.278  69.777  1.00  0.00    -0.128 N  
HETATM   14  O   UNL     1      -8.337   6.612  68.177  1.00  0.00    -0.116 OA 
HETATM   15  C   UNL     1      -7.943   7.646  68.711  1.00  0.00    -0.126 C  
HETATM   16  H   UNL     1      -8.137   9.117  70.166  1.00  0.00     0.000 HD 
BRANCH  15  17
HETATM   17  C   UNL     1      -6.778   8.431  68.124  1.00  0.00    -0.065 C  
BRANCH  17  18
HETATM   18  C   UNL     1      -6.506   9.675  68.968  1.00  0.00    -0.045 C  
BRANCH  18  19
HETATM   19  C   UNL     1      -5.163  10.360  68.694  1.00  0.00    -0.038 C  
BRANCH  19  20
HETATM   20  C   UNL     1      -5.166  11.884  68.855  1.00  0.00    -0.050 C  
BRANCH  20  21
HETATM   21  C   UNL     1      -6.216  12.516  67.947  1.00  0.00    -0.100 C  
HETATM   22  N   UNL     1      -7.330  11.715  67.745  1.00  0.00    -0.099 N  
HETATM   23  O   UNL     1      -6.032  13.596  67.395  1.00  0.00    -0.346 OA 
HETATM   24  H   UNL     1      -7.375  10.802  68.195  1.00  0.00     0.000 HD 
BRANCH  22  25
HETATM   25  C   UNL     1      -8.416  12.139  66.922  1.00  0.00    -0.173 A  
HETATM   26  C   UNL     1      -9.326  13.126  67.333  1.00  0.00    -0.213 A  
HETATM   27  I   UNL     1      -9.438  13.887  69.307  1.00  0.00     0.948 I  
HETATM   28  C   UNL     1     -10.353  13.545  66.482  1.00  0.00    -0.282 A  
HETATM   29  C   UNL     1     -10.539  12.941  65.231  1.00  0.00    -0.297 A  
HETATM   30  I   UNL     1     -12.224  13.650  64.169  1.00  0.00    -0.232 I  
HETATM   31  C   UNL     1      -9.686  11.909  64.803  1.00  0.00    -0.143 A  
HETATM   32  C   UNL     1      -9.932  11.183  63.522  1.00  0.00    -0.379 C  
HETATM   33  C   UNL     1      -8.621  11.519  65.658  1.00  0.00     0.120 A  
HETATM   34  O   UNL     1      -9.919   9.969  63.431  1.00  0.00     0.041 OA 
HETATM   35  I   UNL     1      -7.158  10.050  65.046  1.00  0.00    -0.090 I  
HETATM   36  O   UNL     1     -10.132  11.976  62.447  1.00  0.00     0.648 OA 
ENDBRANCH  22  25
ENDBRANCH  20  21
ENDBRANCH  19  20
ENDBRANCH  18  19
ENDBRANCH  17  18
ENDBRANCH  15  17
ENDBRANCH   7  13
TORSDOF 7
ENDMDL
MODEL      236
REMARK 921   NORMALIZED FREE ENERGY PREDICTED BY IDOCK:    0.98 KCAL/MOL
REMARK 922        TOTAL FREE ENERGY PREDICTED BY IDOCK:    0.45 KCAL/MOL
REMARK 923 INTER-LIGAND FREE ENERGY PREDICTED BY IDOCK:   -0.27 KCAL/MOL
REMARK 924 INTRA-LIGAND FREE ENERGY PREDICTED BY IDOCK:    0.72 KCAL/MOL
REMARK 927      BINDING AFFINITY PREDICTED BY RF-SCORE:    0.00 PKD
ROOT
HETATM    1  O   UNL     1      -5.631  12.452  65.867  1.00  0.00     1.169 OA 
HETATM    2  C   UNL     1      -5.964  11.344  66.564  1.00  0.00    -0.130 C  
HETATM    3  C   UNL     1      -7.398  11.264  66.953  1.00  0.00    -0.145 A  
HETATM    4  O   UNL     1      -5.156  10.463  66.799  1.00  0.00    -0.039 OA 
HETATM    5  C   UNL     1      -8.148  10.079  66.722  1.00  0.00    -0.118 A  
HETATM    6  I   UNL     1      -7.307   8.414  65.631  1.00  0.00    -0.081 I  
HETATM    7  C   UNL     1      -9.511   9.969  67.119  1.00  0.00    -0.155 A  
HETATM    8  I   UNL     1      -7.067  14.117  68.206  1.00  0.00    -0.180 I  
HETATM    9  C   UNL     1     -10.110  11.063  67.770  1.00  0.00    -0.177 A  
HETATM   10  C   UNL     1      -8.031  12.331  67.615  1.00  0.00    -0.161 A  
HETATM   11  C   UNL     1      -9.375  12.236  67.998  1.00  0.00    -0.195 A  
HETATM   12  I   UNL     1     -12.011  11.012  68.686  1.00  0.00     0.349 I  
ENDROOT
BRANCH   7  13
HETATM   13  N   UNL     1     -10.185   8.728  66.914  1.00  0.00    -0.275 N  
HETATM   14  O   UNL     1     -10.858   8.406  69.112  1.00  0.00    -0.155 OA 
HETATM   15  C   UNL     1     -10.828   8.048  67.937  1.00  0.00     0.026 C  
HETATM   16  H   UNL     1     -10.196   8.326  65.977  1.00  0.00     0.000 HD 
BRANCH  15  17
HETATM   17  C   UNL     1     -11.657   6.861  67.463  1.00  0.00     0.607 C  
BRANCH  17  18
HETATM   18  C   UNL     1     -11.022   5.556  67.939  1.00  0.00     0.119 C  
BRANCH  18  19
HETATM   19  C   UNL     1     -10.239   4.791  66.868  1.00  0.00    -0.230 C  
BRANCH  19  20
HETATM   20  C   UNL     1      -8.777   5.219  66.701  1.00  0.00    -0.113 C  
BRANCH  20  21
HETATM   21  C   UNL     1      -7.952   4.791  67.909  1.00  0.00    -0.089 C  
HETATM   22  N   UNL     1      -8.233   5.517  69.059  1.00  0.00    -0.098 N  
HETATM   23  O   UNL     1      -7.073   3.941  67.828  1.00  0.00    -0.054 OA 
HETATM   24  H   UNL     1      -8.940   6.251  69.023  1.00  0.00     0.000 HD 
BRANCH  22  25
HETATM   25  C   UNL     1      -7.558   5.259  70.288  1.00  0.00    -0.072 A  
HETATM   26  C   UNL     1      -6.432   5.994  70.692  1.00  0.00    -0.040 A  
HETATM   27  I   UNL     1      -5.380   7.338  69.436  1.00  0.00    -0.015 I  
HETATM   28  C   UNL     1      -5.820   5.740  71.923  1.00  0.00    -0.026 A  
HETATM   29  C   UNL     1      -6.274   4.701  72.748  1.00  0.00    -0.025 A  
HETATM   30  I   UNL     1      -5.125   4.423  74.501  1.00  0.00    -0.009 I  
HETATM   31  C   UNL     1      -7.363   3.903  72.357  1.00  0.00    -0.058 A  
HETATM   32  C   UNL     1      -7.793   2.729  73.171  1.00  0.00    -0.055 C  
HETATM   33  C   UNL     1      -8.002   4.196  71.122  1.00  0.00    -0.071 A  
HETATM   34  O   UNL     1      -8.013   1.630  72.692  1.00  0.00    -0.043 OA 
HETATM   35  I   UNL     1      -9.775   3.136  70.486  1.00  0.00     0.337 I  
HETATM   36  O   UNL     1      -7.964   2.980  74.487  1.00  0.00    -0.062 OA 
ENDBRANCH  22  25
ENDBRANCH  20  21
ENDBRANCH  19  20
ENDBRANCH  18  19
ENDBRANCH  17  18
ENDBRANCH  15  17
ENDBRANCH   7  13
TORSDOF 7
ENDMDL
MODEL      237
REMARK 921   NORMALIZED FREE ENERGY PREDICTED BY IDOCK:    0.98 KCAL/MOL
REMARK 922        TOTAL FREE ENERGY PREDICTED BY IDOCK:    0.46 KCAL/MOL
REMARK 923 INTER-LIGAND FREE ENERGY PREDICTED BY IDOCK:   -1.71 KCAL/MOL
REMARK 924 INTRA-LIGAND FREE ENERGY PREDICTED BY IDOCK:    2.17 KCAL/MOL
REMARK 927      BINDING AFFINITY PREDICTED BY RF-SCORE:    0.00 PKD
ROOT
HETATM    1  O   UNL     1     -10.737   9.178  69.808  1.00  0.00    -0.224 OA 
HETATM    2  C   UNL     1     -11.655   9.985  69.232  1.00  0.00     0.018 C  
HETATM    3  C   UNL     1     -12.060  11.152  70.061  1.00  0.00    -0.437 A  
HETATM    4  O   UNL     1     -12.068   9.789  68.103  1.00  0.00     0.942 OA 
HETATM    5  C   UNL     1     -12.091  12.460  69.507  1.00  0.00    -0.189 A  
HETATM    6  I   UNL     1     -11.375  12.847  67.505  1.00  0.00    -0.427 I  
HETATM    7  C   UNL     1     -12.509  13.586  70.272  1.00  0.00    -0.239 A  
HETATM    8  I   UNL     1     -12.676   9.119  72.365  1.00  0.00    -0.101 I  
HETATM    9  C   UNL     1     -12.915  13.378  71.602  1.00  0.00    -0.355 A  
HETATM   10  C   UNL     1     -12.483  10.987  71.392  1.00  0.00    -0.331 A  
HETATM   11  C   UNL     1     -12.885  12.090  72.155  1.00  0.00    -0.113 A  
HETATM   12  I   UNL     1     -13.832  14.845  72.813  1.00  0.00     0.155 I  
ENDROOT
BRANCH   7  13
HETATM   13  N   UNL     1     -12.577  14.861  69.633  1.00  0.00    -0.590 N  
HETATM   14  O   UNL     1     -10.664  15.759  70.593  1.00  0.00    -0.303 OA 
HETATM   15  C   UNL     1     -11.626  15.850  69.835  1.00  0.00    -0.336 C  
HETATM   16  H   UNL     1     -13.355  15.051  69.003  1.00  0.00     0.000 HD 
BRANCH  15  17
HETATM   17  C   UNL     1     -11.773  17.045  68.903  1.00  0.00     0.896 C  
BRANCH  17  18
HETATM   18  C   UNL     1     -10.465  17.832  68.852  1.00  0.00    -0.213 C  
BRANCH  18  19
HETATM   19  C   UNL     1      -9.216  16.992  68.564  1.00  0.00    -0.266 C  
BRANCH  19  20
HETATM   20  C   UNL     1      -8.728  17.031  67.112  1.00  0.00    -0.226 C  
BRANCH  20  21
HETATM   21  C   UNL     1      -8.070  15.707  66.733  1.00  0.00    -0.244 C  
HETATM   22  N   UNL     1      -8.704  14.598  67.275  1.00  0.00    -0.196 N  
HETATM   23  O   UNL     1      -7.035  15.660  66.078  1.00  0.00     1.211 OA 
HETATM   24  H   UNL     1      -9.527  14.732  67.861  1.00  0.00     0.000 HD 
BRANCH  22  25
HETATM   25  C   UNL     1      -8.230  13.275  67.032  1.00  0.00    -0.045 A  
HETATM   26  C   UNL     1      -7.286  12.653  67.865  1.00  0.00    -0.116 A  
HETATM   27  I   UNL     1      -6.195  13.658  69.378  1.00  0.00    -0.091 I  
HETATM   28  C   UNL     1      -6.875  11.340  67.618  1.00  0.00    -0.077 A  
HETATM   29  C   UNL     1      -7.342  10.642  66.496  1.00  0.00    -0.134 A  
HETATM   30  I   UNL     1      -6.496   8.719  66.257  1.00  0.00    -0.067 I  
HETATM   31  C   UNL     1      -8.245  11.246  65.603  1.00  0.00     0.133 A  
HETATM   32  C   UNL     1      -8.671  10.559  64.349  1.00  0.00    -0.177 C  
HETATM   33  C   UNL     1      -8.686  12.567  65.886  1.00  0.00     0.512 A  
HETATM   34  O   UNL     1      -8.673  11.102  63.259  1.00  0.00    -0.103 OA 
HETATM   35  I   UNL     1     -10.183  13.544  64.671  1.00  0.00     0.225 I  
HETATM   36  O   UNL     1      -9.099   9.288  64.513  1.00  0.00    -0.200 OA 
ENDBRANCH  22  25
ENDBRANCH  20  21
ENDBRANCH  19  20
ENDBRANCH  18  19
ENDBRANCH  17  18
ENDBRANCH  15  17
ENDBRANCH   7  13
TORSDOF 7
ENDMDL
MODEL      238
REMARK 921   NORMALIZED FREE ENERGY PREDICTED BY IDOCK:    1.06 KCAL/MOL
REMARK 922        TOTAL FREE ENERGY PREDICTED BY IDOCK:    0.58 KCAL/MOL
REMARK 923 INTER-LIGAND FREE ENERGY PREDICTED BY IDOCK:   -3.64 KCAL/MOL
REMARK 924 INTRA-LIGAND FREE ENERGY PREDICTED BY IDOCK:    4.21 KCAL/MOL
REMARK 927      BINDING AFFINITY PREDICTED BY RF-SCORE:    0.00 PKD
ROOT
HETATM    1  O   UNL     1      -9.832   9.654  71.539  1.00  0.00    -0.090 OA 
HETATM    2  C   UNL     1      -9.692   8.643  70.654  1.00  0.00    -0.184 C  
HETATM    3  C   UNL     1      -9.334   9.073  69.275  1.00  0.00    -0.150 A  
HETATM    4  O   UNL     1      -9.801   7.476  70.985  1.00  0.00    -0.179 OA 
HETATM    5  C   UNL     1      -8.267   8.447  68.575  1.00  0.00    -0.124 A  
HETATM    6  I   UNL     1      -7.000   6.983  69.535  1.00  0.00    -0.066 I  
HETATM    7  C   UNL     1      -7.930   8.818  67.242  1.00  0.00    -0.097 A  
HETATM    8  I   UNL     1     -11.797  11.005  69.391  1.00  0.00    -0.331 I  
HETATM    9  C   UNL     1      -8.692   9.819  66.612  1.00  0.00    -0.131 A  
HETATM   10  C   UNL     1     -10.075  10.062  68.606  1.00  0.00    -0.172 A  
HETATM   11  C   UNL     1      -9.743  10.442  67.299  1.00  0.00    -0.195 A  
HETATM   12  I   UNL     1      -8.548  10.318  64.565  1.00  0.00    -0.189 I  
ENDROOT
BRANCH   7  13
HETATM   13  N   UNL     1      -6.889   8.104  66.575  1.00  0.00    -0.066 N  
HETATM   14  O   UNL     1      -8.259   6.805  65.225  1.00  0.00    -0.130 OA 
HETATM   15  C   UNL     1      -7.141   7.156  65.595  1.00  0.00    -0.068 C  
HETATM   16  H   UNL     1      -5.921   8.299  66.829  1.00  0.00     0.000 HD 
BRANCH  15  17
HETATM   17  C   UNL     1      -5.893   6.671  64.870  1.00  0.00    -0.031 C  
BRANCH  17  18
HETATM   18  C   UNL     1      -5.546   5.252  65.317  1.00  0.00    -0.014 C  
BRANCH  18  19
HETATM   19  C   UNL     1      -6.156   4.139  64.459  1.00  0.00    -0.022 C  
BRANCH  19  20
HETATM   20  C   UNL     1      -6.560   2.875  65.226  1.00  0.00    -0.036 C  
BRANCH  20  21
HETATM   21  C   UNL     1      -7.471   3.227  66.397  1.00  0.00    -0.076 C  
HETATM   22  N   UNL     1      -6.976   2.820  67.628  1.00  0.00    -0.048 N  
HETATM   23  O   UNL     1      -8.569   3.748  66.233  1.00  0.00    -0.109 OA 
HETATM   24  H   UNL     1      -6.079   2.337  67.667  1.00  0.00     0.000 HD 
BRANCH  22  25
HETATM   25  C   UNL     1      -7.692   3.060  68.838  1.00  0.00    -0.047 A  
HETATM   26  C   UNL     1      -8.955   3.673  68.851  1.00  0.00    -0.126 A  
HETATM   27  I   UNL     1      -9.834   4.614  67.168  1.00  0.00    -0.155 I  
HETATM   28  C   UNL     1      -9.644   3.856  70.053  1.00  0.00    -0.269 A  
HETATM   29  C   UNL     1      -9.061   3.496  71.276  1.00  0.00    -0.112 A  
HETATM   30  I   UNL     1     -10.234   3.973  72.969  1.00  0.00    -0.259 I  
HETATM   31  C   UNL     1      -7.774   2.931  71.314  1.00  0.00    -0.044 A  
HETATM   32  C   UNL     1      -7.095   2.639  72.611  1.00  0.00    -0.031 C  
HETATM   33  C   UNL     1      -7.099   2.713  70.083  1.00  0.00    -0.033 A  
HETATM   34  O   UNL     1      -5.947   2.965  72.850  1.00  0.00    -0.008 OA 
HETATM   35  I   UNL     1      -5.182   1.718  70.005  1.00  0.00    -0.005 I  
HETATM   36  O   UNL     1      -7.838   1.943  73.498  1.00  0.00    -0.040 OA 
ENDBRANCH  22  25
ENDBRANCH  20  21
ENDBRANCH  19  20
ENDBRANCH  18  19
ENDBRANCH  17  18
ENDBRANCH  15  17
ENDBRANCH   7  13
TORSDOF 7
ENDMDL
MODEL      239
REMARK 921   NORMALIZED FREE ENERGY PREDICTED BY IDOCK:    1.11 KCAL/MOL
REMARK 922        TOTAL FREE ENERGY PREDICTED BY IDOCK:    0.64 KCAL/MOL
REMARK 923 INTER-LIGAND FREE ENERGY PREDICTED BY IDOCK:   -0.75 KCAL/MOL
REMARK 924 INTRA-LIGAND FREE ENERGY PREDICTED BY IDOCK:    1.39 KCAL/MOL
REMARK 927      BINDING AFFINITY PREDICTED BY RF-SCORE:    0.00 PKD
ROOT
HETATM    1  O   UNL     1      -8.002   7.851  62.493  1.00  0.00    -0.137 OA 
HETATM    2  C   UNL     1      -8.497   8.498  63.571  1.00  0.00    -0.028 C  
HETATM    3  C   UNL     1      -8.067   7.938  64.881  1.00  0.00    -0.144 A  
HETATM    4  O   UNL     1      -9.195   9.490  63.463  1.00  0.00    -0.197 OA 
HETATM    5  C   UNL     1      -7.564   8.788  65.903  1.00  0.00    -0.090 A  
HETATM    6  I   UNL     1      -7.224  10.892  65.546  1.00  0.00     0.465 I  
HETATM    7  C   UNL     1      -7.180   8.278  67.176  1.00  0.00    -0.084 A  
HETATM    8  I   UNL     1      -9.076   5.153  63.860  1.00  0.00     0.545 I  
HETATM    9  C   UNL     1      -7.323   6.900  67.417  1.00  0.00    -0.092 A  
HETATM   10  C   UNL     1      -8.202   6.568  65.166  1.00  0.00    -0.126 A  
HETATM   11  C   UNL     1      -7.816   6.056  66.411  1.00  0.00    -0.104 A  
HETATM   12  I   UNL     1      -7.085   5.987  69.306  1.00  0.00    -0.070 I  
ENDROOT
BRANCH   7  13
HETATM   13  N   UNL     1      -6.744   9.197  68.178  1.00  0.00    -0.060 N  
HETATM   14  O   UNL     1      -8.848   9.754  68.984  1.00  0.00    -0.137 OA 
HETATM   15  C   UNL     1      -7.624   9.855  69.023  1.00  0.00    -0.086 C  
HETATM   16  H   UNL     1      -5.745   9.376  68.276  1.00  0.00     0.000 HD 
BRANCH  15  17
HETATM   17  C   UNL     1      -6.942  10.622  70.148  1.00  0.00    -0.073 C  
BRANCH  17  18
HETATM   18  C   UNL     1      -5.776   9.808  70.704  1.00  0.00    -0.066 C  
BRANCH  18  19
HETATM   19  C   UNL     1      -6.073   9.063  72.010  1.00  0.00    -0.051 C  
BRANCH  19  20
HETATM   20  C   UNL     1      -5.157   7.869  72.301  1.00  0.00    -0.035 C  
BRANCH  20  21
HETATM   21  C   UNL     1      -5.967   6.578  72.373  1.00  0.00    -0.038 C  
HETATM   22  N   UNL     1      -7.122   6.690  73.133  1.00  0.00    -0.077 N  
HETATM   23  O   UNL     1      -5.571   5.534  71.867  1.00  0.00    -0.016 OA 
HETATM   24  H   UNL     1      -7.345   7.583  73.571  1.00  0.00     0.000 HD 
BRANCH  22  25
HETATM   25  C   UNL     1      -8.005   5.585  73.316  1.00  0.00    -0.107 A  
HETATM   26  C   UNL     1      -7.565   4.352  73.825  1.00  0.00    -0.081 A  
HETATM   27  I   UNL     1      -5.527   3.835  74.083  1.00  0.00    -0.004 I  
HETATM   28  C   UNL     1      -8.468   3.304  74.028  1.00  0.00    -0.074 A  
HETATM   29  C   UNL     1      -9.815   3.437  73.665  1.00  0.00    -0.109 A  
HETATM   30  I   UNL     1     -10.967   1.688  73.952  1.00  0.00    -0.237 I  
HETATM   31  C   UNL     1     -10.287   4.635  73.099  1.00  0.00    -0.235 A  
HETATM   32  C   UNL     1     -11.692   4.759  72.610  1.00  0.00     0.183 C  
HETATM   33  C   UNL     1      -9.370   5.707  72.934  1.00  0.00    -0.141 A  
HETATM   34  O   UNL     1     -11.979   5.219  71.520  1.00  0.00     0.746 OA 
HETATM   35  I   UNL     1     -10.009   7.642  72.215  1.00  0.00    -0.311 I  
HETATM   36  O   UNL     1     -12.638   4.359  73.487  1.00  0.00     0.317 OA 
ENDBRANCH  22  25
ENDBRANCH  20  21
ENDBRANCH  19  20
ENDBRANCH  18  19
ENDBRANCH  17  18
ENDBRANCH  15  17
ENDBRANCH   7  13
TORSDOF 7
ENDMDL
MODEL      240
REMARK 921   NORMALIZED FREE ENERGY PREDICTED BY IDOCK:    1.17 KCAL/MOL
REMARK 922        TOTAL FREE ENERGY PREDICTED BY IDOCK:    0.72 KCAL/MOL
REMARK 923 INTER-LIGAND FREE ENERGY PREDICTED BY IDOCK:    1.72 KCAL/MOL
REMARK 924 INTRA-LIGAND FREE ENERGY PREDICTED BY IDOCK:   -1.00 KCAL/MOL
REMARK 927      BINDING AFFINITY PREDICTED BY RF-SCORE:    0.00 PKD
ROOT
HETATM    1  O   UNL     1     -12.507  16.478  71.923  1.00  0.00    -0.116 OA 
HETATM    2  C   UNL     1     -11.481  15.604  72.011  1.00  0.00    -0.404 C  
HETATM    3  C   UNL     1     -11.394  14.635  70.885  1.00  0.00    -0.140 A  
HETATM    4  O   UNL     1     -10.668  15.652  72.917  1.00  0.00     1.096 OA 
HETATM    5  C   UNL     1     -10.162  14.411  70.213  1.00  0.00     0.849 A  
HETATM    6  I   UNL     1      -8.408  15.592  70.663  1.00  0.00     3.436 I  
HETATM    7  C   UNL     1     -10.048  13.464  69.157  1.00  0.00     0.246 A  
HETATM    8  I   UNL     1     -14.391  13.921  71.458  1.00  0.00     0.745 I  
HETATM    9  C   UNL     1     -11.190  12.728  68.792  1.00  0.00    -0.283 A  
HETATM   10  C   UNL     1     -12.509  13.872  70.495  1.00  0.00    -0.352 A  
HETATM   11  C   UNL     1     -12.409  12.946  69.449  1.00  0.00     0.003 A  
HETATM   12  I   UNL     1     -11.178  11.089  67.461  1.00  0.00    -0.155 I  
ENDROOT
BRANCH   7  13
HETATM   13  N   UNL     1      -8.766  13.243  68.570  1.00  0.00    -0.335 N  
HETATM   14  O   UNL     1      -8.762  15.109  67.190  1.00  0.00    -0.187 OA 
HETATM   15  C   UNL     1      -8.213  14.104  67.635  1.00  0.00    -0.186 C  
HETATM   16  H   UNL     1      -8.236  12.418  68.850  1.00  0.00     0.000 HD 
BRANCH  15  17
HETATM   17  C   UNL     1      -6.760  13.798  67.298  1.00  0.00     0.195 C  
BRANCH  17  18
HETATM   18  C   UNL     1      -5.922  13.762  68.574  1.00  0.00    -0.093 C  
BRANCH  18  19
HETATM   19  C   UNL     1      -5.377  12.380  68.950  1.00  0.00    -0.054 C  
BRANCH  19  20
HETATM   20  C   UNL     1      -6.204  11.613  69.986  1.00  0.00    -0.140 C  
BRANCH  20  21
HETATM   21  C   UNL     1      -6.485  10.194  69.504  1.00  0.00    -0.055 C  
HETATM   22  N   UNL     1      -7.771  10.019  69.013  1.00  0.00    -0.086 N  
HETATM   23  O   UNL     1      -5.663   9.292  69.625  1.00  0.00    -0.033 OA 
HETATM   24  H   UNL     1      -8.413  10.811  69.005  1.00  0.00     0.000 HD 
BRANCH  22  25
HETATM   25  C   UNL     1      -8.216   8.757  68.519  1.00  0.00    -0.117 A  
HETATM   26  C   UNL     1      -7.752   8.221  67.308  1.00  0.00    -0.101 A  
HETATM   27  I   UNL     1      -6.608   9.306  65.892  1.00  0.00    -0.080 I  
HETATM   28  C   UNL     1      -8.181   6.962  66.876  1.00  0.00    -0.113 A  
HETATM   29  C   UNL     1      -9.135   6.240  67.607  1.00  0.00    -0.117 A  
HETATM   30  I   UNL     1      -9.722   4.421  66.704  1.00  0.00    -0.191 I  
HETATM   31  C   UNL     1      -9.669   6.764  68.797  1.00  0.00    -0.132 A  
HETATM   32  C   UNL     1     -10.760   6.059  69.532  1.00  0.00    -0.335 C  
HETATM   33  C   UNL     1      -9.197   8.026  69.247  1.00  0.00    -0.152 A  
HETATM   34  O   UNL     1     -11.766   6.619  69.929  1.00  0.00    -0.361 OA 
HETATM   35  I   UNL     1      -9.833   8.865  71.135  1.00  0.00    -0.364 I  
HETATM   36  O   UNL     1     -10.534   4.749  69.766  1.00  0.00    -0.164 OA 
ENDBRANCH  22  25
ENDBRANCH  20  21
ENDBRANCH  19  20
ENDBRANCH  18  19
ENDBRANCH  17  18
ENDBRANCH  15  17
ENDBRANCH   7  13
TORSDOF 7
ENDMDL
MODEL      241
REMARK 921   NORMALIZED FREE ENERGY PREDICTED BY IDOCK:    1.26 KCAL/MOL
REMARK 922        TOTAL FREE ENERGY PREDICTED BY IDOCK:    0.86 KCAL/MOL
REMARK 923 INTER-LIGAND FREE ENERGY PREDICTED BY IDOCK:   -3.81 KCAL/MOL
REMARK 924 INTRA-LIGAND FREE ENERGY PREDICTED BY IDOCK:    4.67 KCAL/MOL
REMARK 927      BINDING AFFINITY PREDICTED BY RF-SCORE:    0.00 PKD
ROOT
HETATM    1  O   UNL     1      -6.541  19.916  68.302  1.00  0.00    -0.257 OA 
HETATM    2  C   UNL     1      -6.869  19.037  69.274  1.00  0.00    -0.283 C  
HETATM    3  C   UNL     1      -7.380  17.730  68.779  1.00  0.00    -0.271 A  
HETATM    4  O   UNL     1      -6.704  19.289  70.454  1.00  0.00     0.093 OA 
HETATM    5  C   UNL     1      -6.864  16.509  69.292  1.00  0.00    -0.224 A  
HETATM    6  I   UNL     1      -5.195  16.484  70.664  1.00  0.00    -0.060 I  
HETATM    7  C   UNL     1      -7.362  15.247  68.859  1.00  0.00    -0.146 A  
HETATM    8  I   UNL     1      -9.450  19.347  67.071  1.00  0.00    -0.516 I  
HETATM    9  C   UNL     1      -8.403  15.227  67.912  1.00  0.00    -0.148 A  
HETATM   10  C   UNL     1      -8.425  17.665  67.842  1.00  0.00    -0.233 A  
HETATM   11  C   UNL     1      -8.914  16.429  67.401  1.00  0.00    -0.200 A  
HETATM   12  I   UNL     1      -9.472  13.495  67.350  1.00  0.00    -0.256 I  
ENDROOT
BRANCH   7  13
HETATM   13  N   UNL     1      -6.844  14.062  69.462  1.00  0.00    -0.250 N  
HETATM   14  O   UNL     1      -8.291  12.566  68.436  1.00  0.00    -0.167 OA 
HETATM   15  C   UNL     1      -7.345  12.800  69.184  1.00  0.00     0.140 C  
HETATM   16  H   UNL     1      -6.073  14.148  70.124  1.00  0.00     0.000 HD 
BRANCH  15  17
HETATM   17  C   UNL     1      -6.516  11.664  69.770  1.00  0.00    -0.111 C  
BRANCH  17  18
HETATM   18  C   UNL     1      -5.971  10.782  68.648  1.00  0.00    -0.039 C  
BRANCH  18  19
HETATM   19  C   UNL     1      -7.029   9.972  67.892  1.00  0.00    -0.084 C  
BRANCH  19  20
HETATM   20  C   UNL     1      -6.952  10.069  66.365  1.00  0.00    -0.101 C  
BRANCH  20  21
HETATM   21  C   UNL     1      -7.642   8.873  65.717  1.00  0.00    -0.090 C  
HETATM   22  N   UNL     1      -7.476   7.689  66.420  1.00  0.00    -0.082 N  
HETATM   23  O   UNL     1      -8.214   8.960  64.636  1.00  0.00    -0.146 OA 
HETATM   24  H   UNL     1      -6.932   7.694  67.283  1.00  0.00     0.000 HD 
BRANCH  22  25
HETATM   25  C   UNL     1      -8.049   6.464  65.965  1.00  0.00    -0.120 A  
HETATM   26  C   UNL     1      -9.406   6.158  66.150  1.00  0.00    -0.102 A  
HETATM   27  I   UNL     1     -10.716   7.274  67.385  1.00  0.00    -0.186 I  
HETATM   28  C   UNL     1      -9.940   4.964  65.654  1.00  0.00    -0.150 A  
HETATM   29  C   UNL     1      -9.119   4.018  65.026  1.00  0.00    -0.140 A  
HETATM   30  I   UNL     1     -10.117   2.240  64.466  1.00  0.00     0.577 I  
HETATM   31  C   UNL     1      -7.742   4.258  64.870  1.00  0.00    -0.078 A  
HETATM   32  C   UNL     1      -6.835   3.220  64.299  1.00  0.00    -0.044 C  
HETATM   33  C   UNL     1      -7.218   5.492  65.342  1.00  0.00    -0.067 A  
HETATM   34  O   UNL     1      -5.776   2.905  64.811  1.00  0.00    -0.013 OA 
HETATM   35  I   UNL     1      -5.150   6.036  65.027  1.00  0.00    -0.014 I  
HETATM   36  O   UNL     1      -7.255   2.673  63.138  1.00  0.00    -0.045 OA 
ENDBRANCH  22  25
ENDBRANCH  20  21
ENDBRANCH  19  20
ENDBRANCH  18  19
ENDBRANCH  17  18
ENDBRANCH  15  17
ENDBRANCH   7  13
TORSDOF 7
ENDMDL
MODEL      242
REMARK 921   NORMALIZED FREE ENERGY PREDICTED BY IDOCK:    1.83 KCAL/MOL
REMARK 922        TOTAL FREE ENERGY PREDICTED BY IDOCK:    1.65 KCAL/MOL
REMARK 923 INTER-LIGAND FREE ENERGY PREDICTED BY IDOCK:    0.45 KCAL/MOL
REMARK 924 INTRA-LIGAND FREE ENERGY PREDICTED BY IDOCK:    1.20 KCAL/MOL
REMARK 927      BINDING AFFINITY PREDICTED BY RF-SCORE:    0.00 PKD
ROOT
HETATM    1  O   UNL     1      -7.817   6.671  68.537  1.00  0.00    -0.107 OA 
HETATM    2  C   UNL     1      -7.060   7.772  68.336  1.00  0.00    -0.077 C  
HETATM    3  C   UNL     1      -7.724   9.054  68.694  1.00  0.00    -0.096 A  
HETATM    4  O   UNL     1      -5.909   7.700  67.944  1.00  0.00    -0.034 OA 
HETATM    5  C   UNL     1      -7.058  10.017  69.500  1.00  0.00    -0.091 A  
HETATM    6  I   UNL     1      -5.138   9.593  70.396  1.00  0.00    -0.035 I  
HETATM    7  C   UNL     1      -7.661  11.265  69.824  1.00  0.00     0.530 A  
HETATM    8  I   UNL     1     -10.101   8.170  66.853  1.00  0.00    -0.304 I  
HETATM    9  C   UNL     1      -8.942  11.543  69.314  1.00  0.00     0.445 A  
HETATM   10  C   UNL     1      -8.999   9.375  68.197  1.00  0.00    -0.128 A  
HETATM   11  C   UNL     1      -9.606  10.596  68.521  1.00  0.00    -0.175 A  
HETATM   12  I   UNL     1      -9.893  13.424  69.434  1.00  0.00     1.443 I  
ENDROOT
BRANCH   7  13
HETATM   13  N   UNL     1      -6.910  12.211  70.584  1.00  0.00     0.880 N  
HETATM   14  O   UNL     1      -5.657  13.055  68.822  1.00  0.00    -0.069 OA 
HETATM   15  C   UNL     1      -5.969  13.053  70.010  1.00  0.00    -0.140 C  
HETATM   16  H   UNL     1      -7.072  12.271  71.589  1.00  0.00     0.000 HD 
BRANCH  15  17
HETATM   17  C   UNL     1      -5.439  14.122  70.957  1.00  0.00    -0.179 C  
BRANCH  17  18
HETATM   18  C   UNL     1      -5.309  15.454  70.223  1.00  0.00    -0.127 C  
BRANCH  18  19
HETATM   19  C   UNL     1      -6.508  15.828  69.345  1.00  0.00    -0.165 C  
BRANCH  19  20
HETATM   20  C   UNL     1      -6.154  16.463  67.996  1.00  0.00    -0.128 C  
BRANCH  20  21
HETATM   21  C   UNL     1      -7.102  15.971  66.907  1.00  0.00    -0.147 C  
HETATM   22  N   UNL     1      -7.909  14.916  67.309  1.00  0.00    -0.202 N  
HETATM   23  O   UNL     1      -7.077  16.427  65.770  1.00  0.00     0.626 OA 
HETATM   24  H   UNL     1      -7.821  14.557  68.259  1.00  0.00     0.000 HD 
BRANCH  22  25
HETATM   25  C   UNL     1      -8.857  14.322  66.424  1.00  0.00     0.034 A  
HETATM   26  C   UNL     1      -8.726  13.003  65.962  1.00  0.00     0.626 A  
HETATM   27  I   UNL     1      -6.987  11.823  66.222  1.00  0.00     1.075 I  
HETATM   28  C   UNL     1      -9.698  12.443  65.127  1.00  0.00    -0.070 A  
HETATM   29  C   UNL     1     -10.785  13.206  64.679  1.00  0.00    -0.380 A  
HETATM   30  I   UNL     1     -12.059  12.190  63.332  1.00  0.00    -0.195 I  
HETATM   31  C   UNL     1     -10.925  14.549  65.071  1.00  0.00    -0.408 A  
HETATM   32  C   UNL     1     -12.016  15.406  64.521  1.00  0.00    -0.223 C  
HETATM   33  C   UNL     1      -9.953  15.096  65.952  1.00  0.00    -0.328 A  
HETATM   34  O   UNL     1     -11.825  16.525  64.080  1.00  0.00    -1.022 OA 
HETATM   35  I   UNL     1     -10.143  17.099  66.740  1.00  0.00    -0.298 I  
HETATM   36  O   UNL     1     -13.251  14.865  64.583  1.00  0.00    -0.078 OA 
ENDBRANCH  22  25
ENDBRANCH  20  21
ENDBRANCH  19  20
ENDBRANCH  18  19
ENDBRANCH  17  18
ENDBRANCH  15  17
ENDBRANCH   7  13
TORSDOF 7
ENDMDL
MODEL      243
REMARK 921   NORMALIZED FREE ENERGY PREDICTED BY IDOCK:    1.90 KCAL/MOL
REMARK 922        TOTAL FREE ENERGY PREDICTED BY IDOCK:    1.76 KCAL/MOL
REMARK 923 INTER-LIGAND FREE ENERGY PREDICTED BY IDOCK:    0.05 KCAL/MOL
REMARK 924 INTRA-LIGAND FREE ENERGY PREDICTED BY IDOCK:    1.71 KCAL/MOL
REMARK 927      BINDING AFFINITY PREDICTED BY RF-SCORE:    0.00 PKD
ROOT
HETATM    1  O   UNL     1      -5.699  12.410  65.238  1.00  0.00     3.089 OA 
HETATM    2  C   UNL     1      -5.961  11.354  66.038  1.00  0.00     0.125 C  
HETATM    3  C   UNL     1      -7.350  11.309  66.570  1.00  0.00    -0.101 A  
HETATM    4  O   UNL     1      -5.132  10.487  66.255  1.00  0.00    -0.045 OA 
HETATM    5  C   UNL     1      -8.117  10.116  66.495  1.00  0.00    -0.121 A  
HETATM    6  I   UNL     1      -7.385   8.374  65.446  1.00  0.00    -0.092 I  
HETATM    7  C   UNL     1      -9.435  10.041  67.029  1.00  0.00    -0.164 A  
HETATM    8  I   UNL     1      -6.902  14.241  67.584  1.00  0.00     0.063 I  
HETATM    9  C   UNL     1      -9.969  11.180  67.658  1.00  0.00    -0.174 A  
HETATM   10  C   UNL     1      -7.917  12.423  67.214  1.00  0.00    -0.178 A  
HETATM   11  C   UNL     1      -9.218  12.362  67.732  1.00  0.00    -0.193 A  
HETATM   12  I   UNL     1     -11.772  11.203  68.756  1.00  0.00    -0.225 I  
ENDROOT
BRANCH   7  13
HETATM   13  N   UNL     1     -10.125   8.793  66.978  1.00  0.00    -0.239 N  
HETATM   14  O   UNL     1     -10.254   8.446  69.269  1.00  0.00    -0.198 OA 
HETATM   15  C   UNL     1     -10.499   8.096  68.117  1.00  0.00    -0.170 C  
HETATM   16  H   UNL     1     -10.352   8.397  66.065  1.00  0.00     0.000 HD 
BRANCH  15  17
HETATM   17  C   UNL     1     -11.403   6.902  67.841  1.00  0.00     0.057 C  
BRANCH  17  18
HETATM   18  C   UNL     1     -10.687   5.606  68.216  1.00  0.00    -0.227 C  
BRANCH  18  19
HETATM   19  C   UNL     1     -10.090   4.833  67.035  1.00  0.00    -0.228 C  
BRANCH  19  20
HETATM   20  C   UNL     1      -8.602   5.089  66.777  1.00  0.00    -0.109 C  
BRANCH  20  21
HETATM   21  C   UNL     1      -7.758   4.552  67.928  1.00  0.00    -0.081 C  
HETATM   22  N   UNL     1      -8.262   4.871  69.181  1.00  0.00    -0.078 N  
HETATM   23  O   UNL     1      -6.697   3.968  67.739  1.00  0.00    -0.045 OA 
HETATM   24  H   UNL     1      -9.122   5.415  69.247  1.00  0.00     0.000 HD 
BRANCH  22  25
HETATM   25  C   UNL     1      -7.606   4.456  70.378  1.00  0.00    -0.049 A  
HETATM   26  C   UNL     1      -7.261   3.117  70.616  1.00  0.00    -0.033 A  
HETATM   27  I   UNL     1      -7.929   1.491  69.433  1.00  0.00    -0.065 I  
HETATM   28  C   UNL     1      -6.582   2.754  71.783  1.00  0.00    -0.018 A  
HETATM   29  C   UNL     1      -6.294   3.707  72.770  1.00  0.00    -0.013 A  
HETATM   30  I   UNL     1      -5.371   2.911  74.498  1.00  0.00     0.000 I  
HETATM   31  C   UNL     1      -6.672   5.050  72.599  1.00  0.00    -0.065 A  
HETATM   32  C   UNL     1      -6.468   6.056  73.682  1.00  0.00    -0.070 C  
HETATM   33  C   UNL     1      -7.326   5.415  71.391  1.00  0.00    -0.080 A  
HETATM   34  O   UNL     1      -7.337   6.828  74.046  1.00  0.00    -0.092 OA 
HETATM   35  I   UNL     1      -7.822   7.472  70.950  1.00  0.00    -0.098 I  
HETATM   36  O   UNL     1      -5.225   6.080  74.210  1.00  0.00    -0.031 OA 
ENDBRANCH  22  25
ENDBRANCH  20  21
ENDBRANCH  19  20
ENDBRANCH  18  19
ENDBRANCH  17  18
ENDBRANCH  15  17
ENDBRANCH   7  13
TORSDOF 7
ENDMDL
MODEL      244
REMARK 921   NORMALIZED FREE ENERGY PREDICTED BY IDOCK:    2.16 KCAL/MOL
REMARK 922        TOTAL FREE ENERGY PREDICTED BY IDOCK:    2.12 KCAL/MOL
REMARK 923 INTER-LIGAND FREE ENERGY PREDICTED BY IDOCK:    0.16 KCAL/MOL
REMARK 924 INTRA-LIGAND FREE ENERGY PREDICTED BY IDOCK:    1.96 KCAL/MOL
REMARK 927      BINDING AFFINITY PREDICTED BY RF-SCORE:    0.00 PKD
ROOT
HETATM    1  O   UNL     1     -10.587  10.125  63.288  1.00  0.00     0.820 OA 
HETATM    2  C   UNL     1      -9.793  10.965  63.988  1.00  0.00    -0.322 C  
HETATM    3  C   UNL     1     -10.274  11.271  65.362  1.00  0.00    -0.323 A  
HETATM    4  O   UNL     1      -8.744  11.387  63.536  1.00  0.00     0.097 OA 
HETATM    5  C   UNL     1      -9.396  11.181  66.475  1.00  0.00    -0.180 A  
HETATM    6  I   UNL     1      -7.384  10.422  66.259  1.00  0.00    -0.138 I  
HETATM    7  C   UNL     1      -9.826  11.503  67.794  1.00  0.00    -0.177 A  
HETATM    8  I   UNL     1     -13.012  12.077  64.069  1.00  0.00     0.755 I  
HETATM    9  C   UNL     1     -11.152  11.934  67.979  1.00  0.00    -0.240 A  
HETATM   10  C   UNL     1     -11.589  11.714  65.590  1.00  0.00    -0.016 A  
HETATM   11  C   UNL     1     -12.024  12.021  66.885  1.00  0.00    -0.091 A  
HETATM   12  I   UNL     1     -11.908  12.725  69.785  1.00  0.00    -0.121 I  
ENDROOT
BRANCH   7  13
HETATM   13  N   UNL     1      -8.874  11.454  68.856  1.00  0.00    -0.364 N  
HETATM   14  O   UNL     1      -8.704   9.142  68.975  1.00  0.00    -0.130 OA 
HETATM   15  C   UNL     1      -8.370  10.262  69.355  1.00  0.00    -0.161 C  
HETATM   16  H   UNL     1      -8.550  12.330  69.264  1.00  0.00     0.000 HD 
BRANCH  15  17
HETATM   17  C   UNL     1      -7.218  10.441  70.334  1.00  0.00     0.132 C  
BRANCH  17  18
HETATM   18  C   UNL     1      -6.719  11.883  70.298  1.00  0.00     0.593 C  
BRANCH  18  19
HETATM   19  C   UNL     1      -5.671  12.177  69.219  1.00  0.00    -0.073 C  
BRANCH  19  20
HETATM   20  C   UNL     1      -6.202  12.892  67.973  1.00  0.00    -0.110 C  
BRANCH  20  21
HETATM   21  C   UNL     1      -7.141  14.028  68.366  1.00  0.00    -0.102 C  
HETATM   22  N   UNL     1      -6.655  15.286  68.042  1.00  0.00    -0.127 N  
HETATM   23  O   UNL     1      -8.182  13.827  68.982  1.00  0.00     0.024 OA 
HETATM   24  H   UNL     1      -5.748  15.366  67.583  1.00  0.00     0.000 HD 
BRANCH  22  25
HETATM   25  C   UNL     1      -7.394  16.471  68.336  1.00  0.00    -0.179 A  
HETATM   26  C   UNL     1      -6.973  17.395  69.305  1.00  0.00    -0.175 A  
HETATM   27  I   UNL     1      -5.404  17.037  70.682  1.00  0.00     0.048 I  
HETATM   28  C   UNL     1      -7.703  18.565  69.537  1.00  0.00     0.331 A  
HETATM   29  C   UNL     1      -8.905  18.806  68.857  1.00  0.00    -0.202 A  
HETATM   30  I   UNL     1      -9.897  20.575  69.454  1.00  0.00     1.207 I  
HETATM   31  C   UNL     1      -9.394  17.880  67.919  1.00  0.00    -0.271 A  
HETATM   32  C   UNL     1     -10.722  18.068  67.265  1.00  0.00    -0.290 C  
HETATM   33  C   UNL     1      -8.624  16.714  67.663  1.00  0.00    -0.200 A  
HETATM   34  O   UNL     1     -11.556  17.184  67.183  1.00  0.00     0.593 OA 
HETATM   35  I   UNL     1      -9.196  15.293  66.138  1.00  0.00    -0.052 I  
HETATM   36  O   UNL     1     -10.923  19.290  66.727  1.00  0.00    -0.394 OA 
ENDBRANCH  22  25
ENDBRANCH  20  21
ENDBRANCH  19  20
ENDBRANCH  18  19
ENDBRANCH  17  18
ENDBRANCH  15  17
ENDBRANCH   7  13
TORSDOF 7
ENDMDL
MODEL      245
REMARK 921   NORMALIZED FREE ENERGY PREDICTED BY IDOCK:    2.28 KCAL/MOL
REMARK 922        TOTAL FREE ENERGY PREDICTED BY IDOCK:    2.29 KCAL/MOL
REMARK 923 INTER-LIGAND FREE ENERGY PREDICTED BY IDOCK:    0.14 KCAL/MOL
REMARK 924 INTRA-LIGAND FREE ENERGY PREDICTED BY IDOCK:    2.16 KCAL/MOL
REMARK 927      BINDING AFFINITY PREDICTED BY RF-SCORE:    0.00 PKD
ROOT
HETATM    1  O   UNL     1     -12.065  14.772  64.081  1.00  0.00    -0.473 OA 
HETATM    2  C   UNL     1     -11.588  14.192  65.205  1.00  0.00    -0.344 C  
HETATM    3  C   UNL     1     -10.805  12.948  64.975  1.00  0.00    -0.323 A  
HETATM    4  O   UNL     1     -11.748  14.690  66.305  1.00  0.00    -0.370 OA 
HETATM    5  C   UNL     1      -9.537  12.765  65.590  1.00  0.00    -0.042 A  
HETATM    6  I   UNL     1      -8.602  14.346  66.727  1.00  0.00     0.222 I  
HETATM    7  C   UNL     1      -8.788  11.567  65.413  1.00  0.00     0.091 A  
HETATM    8  I   UNL     1     -13.251  11.885  63.329  1.00  0.00     2.097 I  
HETATM    9  C   UNL     1      -9.338  10.544  64.620  1.00  0.00    -0.248 A  
HETATM   10  C   UNL     1     -11.323  11.897  64.198  1.00  0.00    -0.380 A  
HETATM   11  C   UNL     1     -10.587  10.720  64.008  1.00  0.00    -0.175 A  
HETATM   12  I   UNL     1      -8.535   8.597  64.457  1.00  0.00     0.067 I  
ENDROOT
BRANCH   7  13
HETATM   13  N   UNL     1      -7.551  11.423  66.111  1.00  0.00    -0.367 N  
HETATM   14  O   UNL     1      -6.253  10.854  64.273  1.00  0.00     0.150 OA 
HETATM   15  C   UNL     1      -6.366  11.092  65.473  1.00  0.00     0.149 C  
HETATM   16  H   UNL     1      -7.539  11.571  67.120  1.00  0.00     0.000 HD 
BRANCH  15  17
HETATM   17  C   UNL     1      -5.135  11.197  66.364  1.00  0.00    -0.116 C  
BRANCH  17  18
HETATM   18  C   UNL     1      -5.515  10.912  67.816  1.00  0.00    -0.039 C  
BRANCH  18  19
HETATM   19  C   UNL     1      -5.776  12.156  68.671  1.00  0.00    -0.053 C  
BRANCH  19  20
HETATM   20  C   UNL     1      -7.102  12.151  69.439  1.00  0.00     0.112 C  
BRANCH  20  21
HETATM   21  C   UNL     1      -7.892  10.882  69.135  1.00  0.00    -0.119 C  
HETATM   22  N   UNL     1      -7.314   9.731  69.653  1.00  0.00    -0.088 N  
HETATM   23  O   UNL     1      -8.895  10.893  68.430  1.00  0.00    -0.134 OA 
HETATM   24  H   UNL     1      -6.443   9.805  70.178  1.00  0.00     0.000 HD 
BRANCH  22  25
HETATM   25  C   UNL     1      -7.909   8.448  69.467  1.00  0.00    -0.102 A  
HETATM   26  C   UNL     1      -7.277   7.428  68.738  1.00  0.00    -0.090 A  
HETATM   27  I   UNL     1      -5.547   7.717  67.550  1.00  0.00    -0.039 I  
HETATM   28  C   UNL     1      -7.874   6.170  68.612  1.00  0.00    -0.101 A  
HETATM   29  C   UNL     1      -9.144   5.922  69.150  1.00  0.00    -0.122 A  
HETATM   30  I   UNL     1      -9.899   3.991  68.734  1.00  0.00     0.421 I  
HETATM   31  C   UNL     1      -9.838   6.932  69.839  1.00  0.00    -0.172 A  
HETATM   32  C   UNL     1     -11.232   6.719  70.326  1.00  0.00    -0.334 C  
HETATM   33  C   UNL     1      -9.205   8.195  69.996  1.00  0.00    -0.155 A  
HETATM   34  O   UNL     1     -12.133   7.518  70.140  1.00  0.00     0.107 OA 
HETATM   35  I   UNL     1     -10.108   9.775  71.161  1.00  0.00     1.076 I  
HETATM   36  O   UNL     1     -11.422   5.584  71.033  1.00  0.00     0.029 OA 
ENDBRANCH  22  25
ENDBRANCH  20  21
ENDBRANCH  19  20
ENDBRANCH  18  19
ENDBRANCH  17  18
ENDBRANCH  15  17
ENDBRANCH   7  13
TORSDOF 7
ENDMDL
MODEL      246
REMARK 921   NORMALIZED FREE ENERGY PREDICTED BY IDOCK:    2.28 KCAL/MOL
REMARK 922        TOTAL FREE ENERGY PREDICTED BY IDOCK:    2.30 KCAL/MOL
REMARK 923 INTER-LIGAND FREE ENERGY PREDICTED BY IDOCK:   -3.12 KCAL/MOL
REMARK 924 INTRA-LIGAND FREE ENERGY PREDICTED BY IDOCK:    5.42 KCAL/MOL
REMARK 927      BINDING AFFINITY PREDICTED BY RF-SCORE:    0.00 PKD
ROOT
HETATM    1  O   UNL     1     -12.938  11.355  64.241  1.00  0.00     0.200 OA 
HETATM    2  C   UNL     1     -11.705  11.225  64.779  1.00  0.00     0.340 C  
HETATM    3  C   UNL     1     -11.497  11.986  66.040  1.00  0.00    -0.399 A  
HETATM    4  O   UNL     1     -10.861  10.498  64.287  1.00  0.00     0.059 OA 
HETATM    5  C   UNL     1     -10.921  11.359  67.178  1.00  0.00    -0.285 A  
HETATM    6  I   UNL     1     -10.498   9.240  67.199  1.00  0.00    -0.140 I  
HETATM    7  C   UNL     1     -10.680  12.077  68.384  1.00  0.00    -0.229 A  
HETATM    8  I   UNL     1     -12.510  14.524  64.508  1.00  0.00     0.266 I  
HETATM    9  C   UNL     1     -11.010  13.444  68.427  1.00  0.00    -0.267 A  
HETATM   10  C   UNL     1     -11.803  13.355  66.122  1.00  0.00    -0.385 A  
HETATM   11  C   UNL     1     -11.581  14.067  67.308  1.00  0.00    -0.396 A  
HETATM   12  I   UNL     1     -10.481  14.751  69.999  1.00  0.00     0.356 I  
ENDROOT
BRANCH   7  13
HETATM   13  N   UNL     1     -10.041  11.402  69.467  1.00  0.00    -0.393 N  
HETATM   14  O   UNL     1     -11.548   9.645  69.634  1.00  0.00    -0.088 OA 
HETATM   15  C   UNL     1     -10.523  10.216  69.999  1.00  0.00    -0.274 C  
HETATM   16  H   UNL     1      -9.194  11.808  69.865  1.00  0.00     0.000 HD 
BRANCH  15  17
HETATM   17  C   UNL     1      -9.580   9.560  70.999  1.00  0.00    -0.160 C  
BRANCH  17  18
HETATM   18  C   UNL     1      -8.227   9.291  70.344  1.00  0.00    -0.199 C  
BRANCH  18  19
HETATM   19  C   UNL     1      -7.872  10.229  69.186  1.00  0.00    -0.127 C  
BRANCH  19  20
HETATM   20  C   UNL     1      -7.068   9.586  68.052  1.00  0.00    -0.080 C  
BRANCH  20  21
HETATM   21  C   UNL     1      -6.701   8.148  68.403  1.00  0.00    -0.064 C  
HETATM   22  N   UNL     1      -7.675   7.492  69.143  1.00  0.00    -0.111 N  
HETATM   23  O   UNL     1      -5.611   7.666  68.118  1.00  0.00    -0.026 OA 
HETATM   24  H   UNL     1      -8.531   7.988  69.390  1.00  0.00     0.000 HD 
BRANCH  22  25
HETATM   25  C   UNL     1      -7.507   6.140  69.567  1.00  0.00    -0.092 A  
HETATM   26  C   UNL     1      -7.024   5.809  70.842  1.00  0.00    -0.066 A  
HETATM   27  I   UNL     1      -6.176   7.209  72.188  1.00  0.00    -0.039 I  
HETATM   28  C   UNL     1      -6.910   4.473  71.236  1.00  0.00    -0.031 A  
HETATM   29  C   UNL     1      -7.210   3.435  70.343  1.00  0.00    -0.041 A  
HETATM   30  I   UNL     1      -6.852   1.499  71.113  1.00  0.00    -0.024 I  
HETATM   31  C   UNL     1      -7.644   3.720  69.036  1.00  0.00    -0.053 A  
HETATM   32  C   UNL     1      -7.866   2.631  68.040  1.00  0.00    -0.059 C  
HETATM   33  C   UNL     1      -7.793   5.082  68.660  1.00  0.00    -0.078 A  
HETATM   34  O   UNL     1      -7.426   2.667  66.904  1.00  0.00    -0.067 OA 
HETATM   35  I   UNL     1      -8.592   5.641  66.731  1.00  0.00    -0.115 I  
HETATM   36  O   UNL     1      -8.633   1.608  68.475  1.00  0.00    -0.056 OA 
ENDBRANCH  22  25
ENDBRANCH  20  21
ENDBRANCH  19  20
ENDBRANCH  18  19
ENDBRANCH  17  18
ENDBRANCH  15  17
ENDBRANCH   7  13
TORSDOF 7
ENDMDL
MODEL      247
REMARK 921   NORMALIZED FREE ENERGY PREDICTED BY IDOCK:    2.43 KCAL/MOL
REMARK 922        TOTAL FREE ENERGY PREDICTED BY IDOCK:    2.50 KCAL/MOL
REMARK 923 INTER-LIGAND FREE ENERGY PREDICTED BY IDOCK:   -5.49 KCAL/MOL
REMARK 924 INTRA-LIGAND FREE ENERGY PREDICTED BY IDOCK:    8.00 KCAL/MOL
REMARK 927      BINDING AFFINITY PREDICTED BY RF-SCORE:    0.00 PKD
ROOT
HETATM    1  O   UNL     1     -10.702  14.630  64.877  1.00  0.00    -0.402 OA 
HETATM    2  C   UNL     1     -10.474  13.827  65.940  1.00  0.00    -0.297 C  
HETATM    3  C   UNL     1      -9.932  12.485  65.597  1.00  0.00    -0.259 A  
HETATM    4  O   UNL     1     -10.652  14.206  67.084  1.00  0.00    -0.275 OA 
HETATM    5  C   UNL     1      -8.799  11.964  66.280  1.00  0.00    -0.111 A  
HETATM    6  I   UNL     1      -7.701  13.160  67.706  1.00  0.00    -0.191 I  
HETATM    7  C   UNL     1      -8.285  10.668  65.992  1.00  0.00    -0.158 A  
HETATM    8  I   UNL     1     -12.344  12.174  63.621  1.00  0.00    -0.369 I  
HETATM    9  C   UNL     1      -8.936   9.890  65.018  1.00  0.00    -0.201 A  
HETATM   10  C   UNL     1     -10.558  11.672  64.637  1.00  0.00    -0.312 A  
HETATM   11  C   UNL     1     -10.052  10.400  64.339  1.00  0.00    -0.342 A  
HETATM   12  I   UNL     1      -8.520   7.855  64.641  1.00  0.00     0.338 I  
ENDROOT
BRANCH   7  13
HETATM   13  N   UNL     1      -7.185  10.182  66.761  1.00  0.00    -0.091 N  
HETATM   14  O   UNL     1      -5.920  12.126  66.703  1.00  0.00    -0.226 OA 
HETATM   15  C   UNL     1      -6.086  10.966  67.072  1.00  0.00    -0.074 C  
HETATM   16  H   UNL     1      -7.209   9.218  67.094  1.00  0.00     0.000 HD 
BRANCH  15  17
HETATM   17  C   UNL     1      -5.132  10.323  68.071  1.00  0.00    -0.034 C  
BRANCH  17  18
HETATM   18  C   UNL     1      -5.128   8.807  67.889  1.00  0.00    -0.034 C  
BRANCH  18  19
HETATM   19  C   UNL     1      -6.463   8.118  68.191  1.00  0.00    -0.056 C  
BRANCH  19  20
HETATM   20  C   UNL     1      -6.383   6.949  69.179  1.00  0.00    -0.028 C  
BRANCH  20  21
HETATM   21  C   UNL     1      -7.722   6.746  69.879  1.00  0.00    -0.109 C  
HETATM   22  N   UNL     1      -8.600   7.809  69.716  1.00  0.00    -0.133 N  
HETATM   23  O   UNL     1      -7.948   5.766  70.579  1.00  0.00    -0.101 OA 
HETATM   24  H   UNL     1      -8.307   8.616  69.165  1.00  0.00     0.000 HD 
BRANCH  22  25
HETATM   25  C   UNL     1      -9.901   7.799  70.301  1.00  0.00    -0.184 A  
HETATM   26  C   UNL     1     -10.516   6.615  70.739  1.00  0.00    -0.216 A  
HETATM   27  I   UNL     1      -9.785   4.673  70.314  1.00  0.00    -0.290 I  
HETATM   28  C   UNL     1     -11.776   6.650  71.344  1.00  0.00    -0.374 A  
HETATM   29  C   UNL     1     -12.480   7.856  71.465  1.00  0.00    -0.318 A  
HETATM   30  I   UNL     1     -14.411   7.651  72.302  1.00  0.00    -0.022 I  
HETATM   31  C   UNL     1     -11.926   9.058  70.989  1.00  0.00    -0.323 A  
HETATM   32  C   UNL     1     -12.703  10.331  71.013  1.00  0.00    -0.396 C  
HETATM   33  C   UNL     1     -10.628   9.017  70.411  1.00  0.00    -0.218 A  
HETATM   34  O   UNL     1     -12.791  11.077  70.054  1.00  0.00    -0.170 OA 
HETATM   35  I   UNL     1      -9.614  10.818  69.780  1.00  0.00     0.947 I  
HETATM   36  O   UNL     1     -13.277  10.626  72.199  1.00  0.00    -0.464 OA 
ENDBRANCH  22  25
ENDBRANCH  20  21
ENDBRANCH  19  20
ENDBRANCH  18  19
ENDBRANCH  17  18
ENDBRANCH  15  17
ENDBRANCH   7  13
TORSDOF 7
ENDMDL
MODEL      248
REMARK 921   NORMALIZED FREE ENERGY PREDICTED BY IDOCK:    2.72 KCAL/MOL
REMARK 922        TOTAL FREE ENERGY PREDICTED BY IDOCK:    2.92 KCAL/MOL
REMARK 923 INTER-LIGAND FREE ENERGY PREDICTED BY IDOCK:   -1.55 KCAL/MOL
REMARK 924 INTRA-LIGAND FREE ENERGY PREDICTED BY IDOCK:    4.47 KCAL/MOL
REMARK 927      BINDING AFFINITY PREDICTED BY RF-SCORE:    0.00 PKD
ROOT
HETATM    1  O   UNL     1     -12.898  11.823  63.978  1.00  0.00    -0.351 OA 
HETATM    2  C   UNL     1     -11.746  11.522  64.616  1.00  0.00     0.025 C  
HETATM    3  C   UNL     1     -11.553  12.227  65.912  1.00  0.00    -0.450 A  
HETATM    4  O   UNL     1     -10.963  10.697  64.179  1.00  0.00     0.076 OA 
HETATM    5  C   UNL     1     -11.170  11.510  67.078  1.00  0.00    -0.300 A  
HETATM    6  I   UNL     1     -11.031   9.354  67.074  1.00  0.00     0.935 I  
HETATM    7  C   UNL     1     -10.946  12.169  68.320  1.00  0.00    -0.234 A  
HETATM    8  I   UNL     1     -12.084  14.903  64.371  1.00  0.00     0.134 I  
HETATM    9  C   UNL     1     -11.097  13.567  68.373  1.00  0.00    -0.271 A  
HETATM   10  C   UNL     1     -11.685  13.623  66.007  1.00  0.00    -0.358 A  
HETATM   11  C   UNL     1     -11.478  14.279  67.227  1.00  0.00    -0.371 A  
HETATM   12  I   UNL     1     -10.545  14.765  70.022  1.00  0.00     0.254 I  
ENDROOT
BRANCH   7  13
HETATM   13  N   UNL     1     -10.500  11.397  69.434  1.00  0.00    -0.434 N  
HETATM   14  O   UNL     1     -12.454  10.182  69.735  1.00  0.00    -0.004 OA 
HETATM   15  C   UNL     1     -11.295  10.441  70.048  1.00  0.00    -0.313 C  
HETATM   16  H   UNL     1      -9.559  11.555  69.794  1.00  0.00     0.000 HD 
BRANCH  15  17
HETATM   17  C   UNL     1     -10.557   9.592  71.075  1.00  0.00    -0.362 C  
BRANCH  17  18
HETATM   18  C   UNL     1      -9.265   9.045  70.471  1.00  0.00    -0.261 C  
BRANCH  18  19
HETATM   19  C   UNL     1      -8.035   9.939  70.657  1.00  0.00     0.217 C  
BRANCH  19  20
HETATM   20  C   UNL     1      -6.870   9.649  69.705  1.00  0.00    -0.070 C  
BRANCH  20  21
HETATM   21  C   UNL     1      -7.189   8.449  68.819  1.00  0.00    -0.079 C  
HETATM   22  N   UNL     1      -8.301   8.636  68.011  1.00  0.00    -0.122 N  
HETATM   23  O   UNL     1      -6.556   7.402  68.891  1.00  0.00    -0.045 OA 
HETATM   24  H   UNL     1      -8.807   9.520  68.058  1.00  0.00     0.000 HD 
BRANCH  22  25
HETATM   25  C   UNL     1      -8.752   7.621  67.116  1.00  0.00    -0.125 A  
HETATM   26  C   UNL     1      -9.513   6.524  67.550  1.00  0.00    -0.125 A  
HETATM   27  I   UNL     1      -9.826   6.030  69.587  1.00  0.00    -0.262 I  
HETATM   28  C   UNL     1      -9.972   5.570  66.637  1.00  0.00    -0.213 A  
HETATM   29  C   UNL     1      -9.625   5.651  65.281  1.00  0.00     0.372 A  
HETATM   30  I   UNL     1     -10.329   4.038  64.110  1.00  0.00     0.018 I  
HETATM   31  C   UNL     1      -8.817   6.701  64.812  1.00  0.00     0.431 A  
HETATM   32  C   UNL     1      -8.350   6.745  63.395  1.00  0.00     0.198 C  
HETATM   33  C   UNL     1      -8.389   7.687  65.742  1.00  0.00    -0.141 A  
HETATM   34  O   UNL     1      -7.193   6.955  63.081  1.00  0.00    -0.059 OA 
HETATM   35  I   UNL     1      -7.270   9.425  65.113  1.00  0.00    -0.115 I  
HETATM   36  O   UNL     1      -9.320   6.575  62.471  1.00  0.00     0.857 OA 
ENDBRANCH  22  25
ENDBRANCH  20  21
ENDBRANCH  19  20
ENDBRANCH  18  19
ENDBRANCH  17  18
ENDBRANCH  15  17
ENDBRANCH   7  13
TORSDOF 7
ENDMDL
MODEL      249
REMARK 921   NORMALIZED FREE ENERGY PREDICTED BY IDOCK:    2.84 KCAL/MOL
REMARK 922        TOTAL FREE ENERGY PREDICTED BY IDOCK:    3.09 KCAL/MOL
REMARK 923 INTER-LIGAND FREE ENERGY PREDICTED BY IDOCK:    0.17 KCAL/MOL
REMARK 924 INTRA-LIGAND FREE ENERGY PREDICTED BY IDOCK:    2.92 KCAL/MOL
REMARK 927      BINDING AFFINITY PREDICTED BY RF-SCORE:    0.00 PKD
ROOT
HETATM    1  O   UNL     1      -8.735   9.302  64.046  1.00  0.00    -0.205 OA 
HETATM    2  C   UNL     1      -9.090   8.509  65.081  1.00  0.00     0.080 C  
HETATM    3  C   UNL     1      -8.199   8.604  66.268  1.00  0.00    -0.116 A  
HETATM    4  O   UNL     1     -10.093   7.819  65.050  1.00  0.00     2.209 OA 
HETATM    5  C   UNL     1      -8.740   8.778  67.571  1.00  0.00    -0.134 A  
HETATM    6  I   UNL     1     -10.856   9.101  67.872  1.00  0.00     0.282 I  
HETATM    7  C   UNL     1      -7.908   8.836  68.724  1.00  0.00    -0.101 A  
HETATM    8  I   UNL     1      -5.801   8.033  64.334  1.00  0.00    -0.053 I  
HETATM    9  C   UNL     1      -6.518   8.699  68.555  1.00  0.00    -0.055 A  
HETATM   10  C   UNL     1      -6.806   8.463  66.144  1.00  0.00    -0.065 A  
HETATM   11  C   UNL     1      -5.978   8.530  67.272  1.00  0.00    -0.051 A  
HETATM   12  I   UNL     1      -5.139   8.473  70.138  1.00  0.00    -0.021 I  
ENDROOT
BRANCH   7  13
HETATM   13  N   UNL     1      -8.522   8.948  70.007  1.00  0.00    -0.129 N  
HETATM   14  O   UNL     1      -8.814   6.676  70.379  1.00  0.00    -0.149 OA 
HETATM   15  C   UNL     1      -8.915   7.843  70.748  1.00  0.00    -0.140 C  
HETATM   16  H   UNL     1      -8.679   9.878  70.396  1.00  0.00     0.000 HD 
BRANCH  15  17
HETATM   17  C   UNL     1      -9.353   8.177  72.168  1.00  0.00    -0.270 C  
BRANCH  17  18
HETATM   18  C   UNL     1     -10.768   8.750  72.158  1.00  0.00    -0.383 C  
BRANCH  18  19
HETATM   19  C   UNL     1     -10.857  10.242  71.820  1.00  0.00     1.708 C  
BRANCH  19  20
HETATM   20  C   UNL     1     -12.157  10.677  71.135  1.00  0.00    -0.445 C  
BRANCH  20  21
HETATM   21  C   UNL     1     -12.073  12.138  70.705  1.00  0.00    -0.250 C  
HETATM   22  N   UNL     1     -10.801  12.527  70.309  1.00  0.00     0.562 N  
HETATM   23  O   UNL     1     -13.033  12.896  70.787  1.00  0.00    -0.103 OA 
HETATM   24  H   UNL     1     -10.043  11.845  70.329  1.00  0.00     0.000 HD 
BRANCH  22  25
HETATM   25  C   UNL     1     -10.529  13.859  69.876  1.00  0.00     0.644 A  
HETATM   26  C   UNL     1     -11.157  14.976  70.449  1.00  0.00    -0.229 A  
HETATM   27  I   UNL     1     -12.804  14.859  71.777  1.00  0.00    -0.556 I  
HETATM   28  C   UNL     1     -10.835  16.269  70.024  1.00  0.00    -0.329 A  
HETATM   29  C   UNL     1      -9.932  16.474  68.972  1.00  0.00    -0.275 A  
HETATM   30  I   UNL     1      -9.689  18.500  68.422  1.00  0.00    -0.443 I  
HETATM   31  C   UNL     1      -9.322  15.381  68.332  1.00  0.00    -0.193 A  
HETATM   32  C   UNL     1      -8.440  15.574  67.143  1.00  0.00    -0.212 C  
HETATM   33  C   UNL     1      -9.626  14.073  68.797  1.00  0.00    -0.097 A  
HETATM   34  O   UNL     1      -8.547  14.922  66.121  1.00  0.00    -0.002 OA 
HETATM   35  I   UNL     1      -8.640  12.327  67.991  1.00  0.00    -0.170 I  
HETATM   36  O   UNL     1      -7.475  16.507  67.296  1.00  0.00    -0.137 OA 
ENDBRANCH  22  25
ENDBRANCH  20  21
ENDBRANCH  19  20
ENDBRANCH  18  19
ENDBRANCH  17  18
ENDBRANCH  15  17
ENDBRANCH   7  13
TORSDOF 7
ENDMDL
MODEL      250
REMARK 921   NORMALIZED FREE ENERGY PREDICTED BY IDOCK:    3.37 KCAL/MOL
REMARK 922        TOTAL FREE ENERGY PREDICTED BY IDOCK:    3.83 KCAL/MOL
REMARK 923 INTER-LIGAND FREE ENERGY PREDICTED BY IDOCK:    1.38 KCAL/MOL
REMARK 924 INTRA-LIGAND FREE ENERGY PREDICTED BY IDOCK:    2.45 KCAL/MOL
REMARK 927      BINDING AFFINITY PREDICTED BY RF-SCORE:    0.00 PKD
ROOT
HETATM    1  O   UNL     1      -6.759  10.627  70.422  1.00  0.00    -0.263 OA 
HETATM    2  C   UNL     1      -7.877  11.345  70.179  1.00  0.00     1.780 C  
HETATM    3  C   UNL     1      -7.676  12.527  69.299  1.00  0.00     0.438 A  
HETATM    4  O   UNL     1      -8.966  11.007  70.610  1.00  0.00     2.098 OA 
HETATM    5  C   UNL     1      -8.537  12.764  68.194  1.00  0.00    -0.185 A  
HETATM    6  I   UNL     1     -10.054  11.334  67.627  1.00  0.00    -0.229 I  
HETATM    7  C   UNL     1      -8.384  13.908  67.360  1.00  0.00    -0.198 A  
HETATM    8  I   UNL     1      -5.386  13.408  71.249  1.00  0.00    -0.103 I  
HETATM    9  C   UNL     1      -7.361  14.825  67.661  1.00  0.00    -0.186 A  
HETATM   10  C   UNL     1      -6.671  13.472  69.571  1.00  0.00    -0.011 A  
HETATM   11  C   UNL     1      -6.506  14.594  68.748  1.00  0.00    -0.088 A  
HETATM   12  I   UNL     1      -7.138  16.711  66.739  1.00  0.00    -0.115 I  
ENDROOT
BRANCH   7  13
HETATM   13  N   UNL     1      -9.324  14.119  66.307  1.00  0.00    -0.463 N  
HETATM   14  O   UNL     1     -11.038  14.966  67.623  1.00  0.00    -0.290 OA 
HETATM   15  C   UNL     1     -10.585  14.654  66.525  1.00  0.00    -0.300 C  
HETATM   16  H   UNL     1      -9.058  13.865  65.356  1.00  0.00     0.000 HD 
BRANCH  15  17
HETATM   17  C   UNL     1     -11.343  14.987  65.247  1.00  0.00    -0.349 C  
BRANCH  17  18
HETATM   18  C   UNL     1     -12.212  13.803  64.830  1.00  0.00    -0.443 C  
BRANCH  18  19
HETATM   19  C   UNL     1     -11.500  12.446  64.832  1.00  0.00    -0.378 C  
BRANCH  19  20
HETATM   20  C   UNL     1     -10.377  12.300  63.800  1.00  0.00    -0.464 C  
BRANCH  20  21
HETATM   21  C   UNL     1      -9.954  10.840  63.672  1.00  0.00    -0.345 C  
HETATM   22  N   UNL     1      -9.251  10.368  64.771  1.00  0.00    -0.209 N  
HETATM   23  O   UNL     1     -10.157  10.192  62.651  1.00  0.00     0.112 OA 
HETATM   24  H   UNL     1      -9.073  10.995  65.555  1.00  0.00     0.000 HD 
BRANCH  22  25
HETATM   25  C   UNL     1      -8.772   9.025  64.829  1.00  0.00    -0.153 A  
HETATM   26  C   UNL     1      -7.653   8.597  64.097  1.00  0.00    -0.121 A  
HETATM   27  I   UNL     1      -6.722   9.742  62.577  1.00  0.00    -0.127 I  
HETATM   28  C   UNL     1      -7.189   7.283  64.211  1.00  0.00    -0.075 A  
HETATM   29  C   UNL     1      -7.869   6.349  65.003  1.00  0.00    -0.112 A  
HETATM   30  I   UNL     1      -7.058   4.398  64.931  1.00  0.00    -0.065 I  
HETATM   31  C   UNL     1      -9.027   6.719  65.710  1.00  0.00    -0.043 A  
HETATM   32  C   UNL     1      -9.823   5.714  66.473  1.00  0.00    -0.168 C  
HETATM   33  C   UNL     1      -9.467   8.067  65.618  1.00  0.00     0.261 A  
HETATM   34  O   UNL     1     -11.034   5.616  66.385  1.00  0.00    -0.218 OA 
HETATM   35  I   UNL     1     -11.144   8.790  66.773  1.00  0.00     2.505 I  
HETATM   36  O   UNL     1      -9.104   4.936  67.311  1.00  0.00    -0.113 OA 
ENDBRANCH  22  25
ENDBRANCH  20  21
ENDBRANCH  19  20
ENDBRANCH  18  19
ENDBRANCH  17  18
ENDBRANCH  15  17
ENDBRANCH   7  13
TORSDOF 7
ENDMDL
MODEL      251
REMARK 921   NORMALIZED FREE ENERGY PREDICTED BY IDOCK:    3.39 KCAL/MOL
REMARK 922        TOTAL FREE ENERGY PREDICTED BY IDOCK:    3.86 KCAL/MOL
REMARK 923 INTER-LIGAND FREE ENERGY PREDICTED BY IDOCK:   -1.32 KCAL/MOL
REMARK 924 INTRA-LIGAND FREE ENERGY PREDICTED BY IDOCK:    5.18 KCAL/MOL
REMARK 927      BINDING AFFINITY PREDICTED BY RF-SCORE:    0.00 PKD
ROOT
HETATM    1  O   UNL     1     -12.067  14.776  64.086  1.00  0.00    -0.473 OA 
HETATM    2  C   UNL     1     -11.583  14.258  65.236  1.00  0.00    -0.348 C  
HETATM    3  C   UNL     1     -10.814  12.995  65.071  1.00  0.00    -0.328 A  
HETATM    4  O   UNL     1     -11.728  14.819  66.307  1.00  0.00    -0.343 OA 
HETATM    5  C   UNL     1      -9.541  12.836  65.683  1.00  0.00    -0.042 A  
HETATM    6  I   UNL     1      -8.582  14.471  66.720  1.00  0.00     0.182 I  
HETATM    7  C   UNL     1      -8.803  11.623  65.567  1.00  0.00     0.113 A  
HETATM    8  I   UNL     1     -13.284  11.863  63.510  1.00  0.00     1.670 I  
HETATM    9  C   UNL     1      -9.370  10.562  64.839  1.00  0.00    -0.232 A  
HETATM   10  C   UNL     1     -11.347  11.906  64.359  1.00  0.00    -0.326 A  
HETATM   11  C   UNL     1     -10.623  10.714  64.230  1.00  0.00    -0.082 A  
HETATM   12  I   UNL     1      -8.585   8.602  64.780  1.00  0.00     0.072 I  
ENDROOT
BRANCH   7  13
HETATM   13  N   UNL     1      -7.562  11.509  66.261  1.00  0.00    -0.372 N  
HETATM   14  O   UNL     1      -6.308  10.732  64.469  1.00  0.00     0.045 OA 
HETATM   15  C   UNL     1      -6.396  11.084  65.643  1.00  0.00     0.087 C  
HETATM   16  H   UNL     1      -7.530  11.749  67.251  1.00  0.00     0.000 HD 
BRANCH  15  17
HETATM   17  C   UNL     1      -5.150  11.234  66.506  1.00  0.00    -0.121 C  
BRANCH  17  18
HETATM   18  C   UNL     1      -5.525  11.160  67.984  1.00  0.00    -0.042 C  
BRANCH  18  19
HETATM   19  C   UNL     1      -5.664  12.516  68.684  1.00  0.00    -0.054 C  
BRANCH  19  20
HETATM   20  C   UNL     1      -6.933  12.686  69.525  1.00  0.00     0.181 C  
BRANCH  20  21
HETATM   21  C   UNL     1      -7.805  11.438  69.437  1.00  0.00     0.209 C  
HETATM   22  N   UNL     1      -7.246  10.326  70.051  1.00  0.00    -0.158 N  
HETATM   23  O   UNL     1      -8.858  11.424  68.809  1.00  0.00    -0.150 OA 
HETATM   24  H   UNL     1      -6.335  10.411  70.500  1.00  0.00     0.000 HD 
BRANCH  22  25
HETATM   25  C   UNL     1      -7.917   9.067  70.068  1.00  0.00    -0.113 A  
HETATM   26  C   UNL     1      -9.253   8.925  69.660  1.00  0.00    -0.152 A  
HETATM   27  I   UNL     1     -10.556  10.552  69.281  1.00  0.00    -0.302 I  
HETATM   28  C   UNL     1      -9.864   7.668  69.653  1.00  0.00    -0.181 A  
HETATM   29  C   UNL     1      -9.181   6.535  70.117  1.00  0.00    -0.158 A  
HETATM   30  I   UNL     1     -10.340   4.767  70.126  1.00  0.00     0.452 I  
HETATM   31  C   UNL     1      -7.860   6.641  70.588  1.00  0.00    -0.106 A  
HETATM   32  C   UNL     1      -7.155   5.469  71.183  1.00  0.00    -0.067 C  
HETATM   33  C   UNL     1      -7.235   7.917  70.554  1.00  0.00    -0.053 A  
HETATM   34  O   UNL     1      -6.548   5.521  72.238  1.00  0.00    -0.054 OA 
HETATM   35  I   UNL     1      -5.163   8.177  71.111  1.00  0.00    -0.029 I  
HETATM   36  O   UNL     1      -7.200   4.341  70.442  1.00  0.00    -0.040 OA 
ENDBRANCH  22  25
ENDBRANCH  20  21
ENDBRANCH  19  20
ENDBRANCH  18  19
ENDBRANCH  17  18
ENDBRANCH  15  17
ENDBRANCH   7  13
TORSDOF 7
ENDMDL
MODEL      252
REMARK 921   NORMALIZED FREE ENERGY PREDICTED BY IDOCK:    3.41 KCAL/MOL
REMARK 922        TOTAL FREE ENERGY PREDICTED BY IDOCK:    3.88 KCAL/MOL
REMARK 923 INTER-LIGAND FREE ENERGY PREDICTED BY IDOCK:    4.68 KCAL/MOL
REMARK 924 INTRA-LIGAND FREE ENERGY PREDICTED BY IDOCK:   -0.80 KCAL/MOL
REMARK 927      BINDING AFFINITY PREDICTED BY RF-SCORE:    0.00 PKD
ROOT
HETATM    1  O   UNL     1     -11.865  16.923  72.744  1.00  0.00    -0.349 OA 
HETATM    2  C   UNL     1     -11.182  15.811  72.396  1.00  0.00     0.119 C  
HETATM    3  C   UNL     1     -11.282  15.447  70.957  1.00  0.00    -0.408 A  
HETATM    4  O   UNL     1     -10.500  15.197  73.197  1.00  0.00     1.942 OA 
HETATM    5  C   UNL     1     -10.117  15.138  70.204  1.00  0.00    -0.018 A  
HETATM    6  I   UNL     1      -8.142  15.360  71.051  1.00  0.00     4.668 I  
HETATM    7  C   UNL     1     -10.193  14.753  68.835  1.00  0.00    -0.237 A  
HETATM    8  I   UNL     1     -14.395  15.592  71.285  1.00  0.00     0.699 I  
HETATM    9  C   UNL     1     -11.461  14.666  68.233  1.00  0.00    -0.314 A  
HETATM   10  C   UNL     1     -12.530  15.339  70.320  1.00  0.00    -0.363 A  
HETATM   11  C   UNL     1     -12.614  14.973  68.970  1.00  0.00     0.219 A  
HETATM   12  I   UNL     1     -11.821  13.850  66.319  1.00  0.00    -0.501 I  
ENDROOT
BRANCH   7  13
HETATM   13  N   UNL     1      -8.990  14.393  68.157  1.00  0.00    -0.178 N  
HETATM   14  O   UNL     1      -9.123  15.991  66.479  1.00  0.00    -0.232 OA 
HETATM   15  C   UNL     1      -8.537  15.062  67.030  1.00  0.00    -0.239 C  
HETATM   16  H   UNL     1      -8.440  13.613  68.517  1.00  0.00     0.000 HD 
BRANCH  15  17
HETATM   17  C   UNL     1      -7.136  14.656  66.593  1.00  0.00     1.506 C  
BRANCH  17  18
HETATM   18  C   UNL     1      -6.169  14.760  67.770  1.00  0.00    -0.157 C  
BRANCH  18  19
HETATM   19  C   UNL     1      -5.424  13.466  68.110  1.00  0.00    -0.106 C  
BRANCH  19  20
HETATM   20  C   UNL     1      -5.932  12.730  69.354  1.00  0.00    -0.104 C  
BRANCH  20  21
HETATM   21  C   UNL     1      -6.252  11.276  69.024  1.00  0.00    -0.056 C  
HETATM   22  N   UNL     1      -7.229  11.131  68.048  1.00  0.00    -0.077 N  
HETATM   23  O   UNL     1      -5.741  10.343  69.633  1.00  0.00    -0.037 OA 
HETATM   24  H   UNL     1      -7.646  11.964  67.635  1.00  0.00     0.000 HD 
BRANCH  22  25
HETATM   25  C   UNL     1      -7.661   9.844  67.611  1.00  0.00    -0.091 A  
HETATM   26  C   UNL     1      -8.523   9.043  68.376  1.00  0.00    -0.129 A  
HETATM   27  I   UNL     1      -9.044   9.451  70.389  1.00  0.00    -0.183 I  
HETATM   28  C   UNL     1      -8.957   7.804  67.896  1.00  0.00    -0.125 A  
HETATM   29  C   UNL     1      -8.487   7.305  66.674  1.00  0.00    -0.124 A  
HETATM   30  I   UNL     1      -9.184   5.364  66.206  1.00  0.00    -0.165 I  
HETATM   31  C   UNL     1      -7.578   8.048  65.900  1.00  0.00    -0.086 A  
HETATM   32  C   UNL     1      -6.987   7.488  64.650  1.00  0.00    -0.052 C  
HETATM   33  C   UNL     1      -7.175   9.323  66.379  1.00  0.00    -0.088 A  
HETATM   34  O   UNL     1      -5.795   7.525  64.401  1.00  0.00    -0.037 OA 
HETATM   35  I   UNL     1      -5.900  10.619  65.210  1.00  0.00     0.102 I  
HETATM   36  O   UNL     1      -7.880   6.966  63.782  1.00  0.00    -0.121 OA 
ENDBRANCH  22  25
ENDBRANCH  20  21
ENDBRANCH  19  20
ENDBRANCH  18  19
ENDBRANCH  17  18
ENDBRANCH  15  17
ENDBRANCH   7  13
TORSDOF 7
ENDMDL
MODEL      253
REMARK 921   NORMALIZED FREE ENERGY PREDICTED BY IDOCK:    3.42 KCAL/MOL
REMARK 922        TOTAL FREE ENERGY PREDICTED BY IDOCK:    3.89 KCAL/MOL
REMARK 923 INTER-LIGAND FREE ENERGY PREDICTED BY IDOCK:    0.12 KCAL/MOL
REMARK 924 INTRA-LIGAND FREE ENERGY PREDICTED BY IDOCK:    3.77 KCAL/MOL
REMARK 927      BINDING AFFINITY PREDICTED BY RF-SCORE:    0.00 PKD
ROOT
HETATM    1  O   UNL     1      -6.495   6.465  68.291  1.00  0.00    -0.045 OA 
HETATM    2  C   UNL     1      -6.375   7.759  68.661  1.00  0.00    -0.044 C  
HETATM    3  C   UNL     1      -7.323   8.686  67.988  1.00  0.00    -0.092 A  
HETATM    4  O   UNL     1      -5.585   8.113  69.518  1.00  0.00    -0.026 OA 
HETATM    5  C   UNL     1      -8.079   9.624  68.742  1.00  0.00    -0.097 A  
HETATM    6  I   UNL     1      -8.032   9.626  70.902  1.00  0.00     0.904 I  
HETATM    7  C   UNL     1      -8.966  10.545  68.114  1.00  0.00    -0.138 A  
HETATM    8  I   UNL     1      -6.310   7.516  65.263  1.00  0.00    -0.037 I  
HETATM    9  C   UNL     1      -9.073  10.523  66.712  1.00  0.00    -0.151 A  
HETATM   10  C   UNL     1      -7.453   8.704  66.588  1.00  0.00    -0.089 A  
HETATM   11  C   UNL     1      -8.332   9.597  65.963  1.00  0.00    -0.123 A  
HETATM   12  I   UNL     1     -10.101  11.971  65.570  1.00  0.00    -0.268 I  
ENDROOT
BRANCH   7  13
HETATM   13  N   UNL     1      -9.646  11.502  68.926  1.00  0.00    -0.395 N  
HETATM   14  O   UNL     1     -11.427  11.879  67.488  1.00  0.00    -0.301 OA 
HETATM   15  C   UNL     1     -10.846  12.086  68.550  1.00  0.00    -0.233 C  
HETATM   16  H   UNL     1      -9.232  11.768  69.820  1.00  0.00     0.000 HD 
BRANCH  15  17
HETATM   17  C   UNL     1     -11.500  12.914  69.647  1.00  0.00    -0.251 C  
BRANCH  17  18
HETATM   18  C   UNL     1     -12.458  12.045  70.459  1.00  0.00    -0.292 C  
BRANCH  18  19
HETATM   19  C   UNL     1     -12.680  10.635  69.902  1.00  0.00    -0.081 C  
BRANCH  19  20
HETATM   20  C   UNL     1     -13.271   9.629  70.895  1.00  0.00    -0.214 C  
BRANCH  20  21
HETATM   21  C   UNL     1     -12.226   8.591  71.292  1.00  0.00    -0.277 C  
HETATM   22  N   UNL     1     -12.294   7.422  70.547  1.00  0.00    -0.554 N  
HETATM   23  O   UNL     1     -11.463   8.764  72.236  1.00  0.00    -0.362 OA 
HETATM   24  H   UNL     1     -13.001   7.338  69.817  1.00  0.00     0.000 HD 
BRANCH  22  25
HETATM   25  C   UNL     1     -11.398   6.337  70.778  1.00  0.00    -0.332 A  
HETATM   26  C   UNL     1     -10.358   6.023  69.889  1.00  0.00    -0.227 A  
HETATM   27  I   UNL     1     -10.154   6.867  67.956  1.00  0.00    -0.259 I  
HETATM   28  C   UNL     1      -9.474   4.976  70.169  1.00  0.00    -0.234 A  
HETATM   29  C   UNL     1      -9.649   4.175  71.306  1.00  0.00    -0.172 A  
HETATM   30  I   UNL     1      -8.269   2.581  71.463  1.00  0.00    -0.090 I  
HETATM   31  C   UNL     1     -10.712   4.418  72.194  1.00  0.00    -0.019 A  
HETATM   32  C   UNL     1     -10.976   3.512  73.350  1.00  0.00    -0.210 C  
HETATM   33  C   UNL     1     -11.580   5.509  71.920  1.00  0.00     0.081 A  
HETATM   34  O   UNL     1     -12.082   3.075  73.615  1.00  0.00     0.139 OA 
HETATM   35  I   UNL     1     -13.156   6.071  73.288  1.00  0.00     4.714 I  
HETATM   36  O   UNL     1      -9.899   3.240  74.118  1.00  0.00    -0.104 OA 
ENDBRANCH  22  25
ENDBRANCH  20  21
ENDBRANCH  19  20
ENDBRANCH  18  19
ENDBRANCH  17  18
ENDBRANCH  15  17
ENDBRANCH   7  13
TORSDOF 7
ENDMDL
MODEL      254
REMARK 921   NORMALIZED FREE ENERGY PREDICTED BY IDOCK:    3.66 KCAL/MOL
REMARK 922        TOTAL FREE ENERGY PREDICTED BY IDOCK:    4.24 KCAL/MOL
REMARK 923 INTER-LIGAND FREE ENERGY PREDICTED BY IDOCK:    3.15 KCAL/MOL
REMARK 924 INTRA-LIGAND FREE ENERGY PREDICTED BY IDOCK:    1.09 KCAL/MOL
REMARK 927      BINDING AFFINITY PREDICTED BY RF-SCORE:    0.00 PKD
ROOT
HETATM    1  O   UNL     1      -9.699  19.734  68.519  1.00  0.00    -0.371 OA 
HETATM    2  C   UNL     1      -9.689  18.800  67.543  1.00  0.00    -0.307 C  
HETATM    3  C   UNL     1      -9.081  17.500  67.935  1.00  0.00    -0.261 A  
HETATM    4  O   UNL     1     -10.190  19.003  66.452  1.00  0.00    -0.379 OA 
HETATM    5  C   UNL     1      -9.748  16.275  67.663  1.00  0.00    -0.234 A  
HETATM    6  I   UNL     1     -11.748  16.245  66.846  1.00  0.00     1.615 I  
HETATM    7  C   UNL     1      -9.168  15.019  67.998  1.00  0.00    -0.183 A  
HETATM    8  I   UNL     1      -6.567  19.122  68.868  1.00  0.00    -0.346 I  
HETATM    9  C   UNL     1      -7.895  15.006  68.596  1.00  0.00    -0.138 A  
HETATM   10  C   UNL     1      -7.806  17.443  68.526  1.00  0.00    -0.268 A  
HETATM   11  C   UNL     1      -7.233  16.212  68.869  1.00  0.00    -0.178 A  
HETATM   12  I   UNL     1      -6.741  13.267  68.911  1.00  0.00    -0.064 I  
ENDROOT
BRANCH   7  13
HETATM   13  N   UNL     1      -9.865  13.826  67.639  1.00  0.00    -0.229 N  
HETATM   14  O   UNL     1      -9.901  14.199  65.348  1.00  0.00    -0.292 OA 
HETATM   15  C   UNL     1     -10.162  13.500  66.324  1.00  0.00    -0.299 C  
HETATM   16  H   UNL     1     -10.155  13.187  68.379  1.00  0.00     0.000 HD 
BRANCH  15  17
HETATM   17  C   UNL     1     -10.718  12.093  66.148  1.00  0.00    -0.307 C  
BRANCH  17  18
HETATM   18  C   UNL     1     -11.721  11.784  67.257  1.00  0.00    -0.293 C  
BRANCH  18  19
HETATM   19  C   UNL     1     -12.145  10.315  67.353  1.00  0.00     2.674 C  
BRANCH  19  20
HETATM   20  C   UNL     1     -11.527   9.534  68.517  1.00  0.00     0.351 C  
BRANCH  20  21
HETATM   21  C   UNL     1     -10.664   8.390  67.996  1.00  0.00    -0.055 C  
HETATM   22  N   UNL     1     -10.464   7.378  68.924  1.00  0.00    -0.207 N  
HETATM   23  O   UNL     1     -10.141   8.422  66.887  1.00  0.00    -0.239 OA 
HETATM   24  H   UNL     1     -10.888   7.460  69.848  1.00  0.00     0.000 HD 
BRANCH  22  25
HETATM   25  C   UNL     1      -9.680   6.226  68.617  1.00  0.00    -0.127 A  
HETATM   26  C   UNL     1      -9.968   5.396  67.522  1.00  0.00    -0.166 A  
HETATM   27  I   UNL     1     -11.747   5.515  66.378  1.00  0.00     4.105 I  
HETATM   28  C   UNL     1      -9.153   4.299  67.228  1.00  0.00    -0.153 A  
HETATM   29  C   UNL     1      -8.074   3.964  68.059  1.00  0.00    -0.088 A  
HETATM   30  I   UNL     1      -7.057   2.200  67.489  1.00  0.00    -0.048 I  
HETATM   31  C   UNL     1      -7.785   4.735  69.199  1.00  0.00    -0.071 A  
HETATM   32  C   UNL     1      -6.708   4.333  70.151  1.00  0.00    -0.033 C  
HETATM   33  C   UNL     1      -8.595   5.871  69.465  1.00  0.00    -0.117 A  
HETATM   34  O   UNL     1      -6.865   4.298  71.358  1.00  0.00    -0.029 OA 
HETATM   35  I   UNL     1      -8.157   7.214  71.100  1.00  0.00    -0.103 I  
HETATM   36  O   UNL     1      -5.519   4.047  69.579  1.00  0.00    -0.014 OA 
ENDBRANCH  22  25
ENDBRANCH  20  21
ENDBRANCH  19  20
ENDBRANCH  18  19
ENDBRANCH  17  18
ENDBRANCH  15  17
ENDBRANCH   7  13
TORSDOF 7
ENDMDL
MODEL      255
REMARK 921   NORMALIZED FREE ENERGY PREDICTED BY IDOCK:    3.76 KCAL/MOL
REMARK 922        TOTAL FREE ENERGY PREDICTED BY IDOCK:    4.38 KCAL/MOL
REMARK 923 INTER-LIGAND FREE ENERGY PREDICTED BY IDOCK:    3.37 KCAL/MOL
REMARK 924 INTRA-LIGAND FREE ENERGY PREDICTED BY IDOCK:    1.01 KCAL/MOL
REMARK 927      BINDING AFFINITY PREDICTED BY RF-SCORE:    0.00 PKD
ROOT
HETATM    1  O   UNL     1      -7.566   7.643  62.576  1.00  0.00    -0.093 OA 
HETATM    2  C   UNL     1      -8.173   8.619  63.287  1.00  0.00    -0.162 C  
HETATM    3  C   UNL     1      -8.463   8.265  64.702  1.00  0.00    -0.069 A  
HETATM    4  O   UNL     1      -8.408   9.714  62.808  1.00  0.00    -0.139 OA 
HETATM    5  C   UNL     1      -8.115   9.150  65.758  1.00  0.00    -0.112 A  
HETATM    6  I   UNL     1      -6.985  10.953  65.383  1.00  0.00     0.579 I  
HETATM    7  C   UNL     1      -8.415   8.847  67.116  1.00  0.00    -0.106 A  
HETATM    8  I   UNL     1      -9.901   5.701  63.615  1.00  0.00     3.060 I  
HETATM    9  C   UNL     1      -9.089   7.646  67.402  1.00  0.00    -0.126 A  
HETATM   10  C   UNL     1      -9.144   7.079  65.030  1.00  0.00     0.667 A  
HETATM   11  C   UNL     1      -9.433   6.767  66.365  1.00  0.00    -0.166 A  
HETATM   12  I   UNL     1      -9.876   7.139  69.294  1.00  0.00    -0.177 I  
ENDROOT
BRANCH   7  13
HETATM   13  N   UNL     1      -8.094   9.810  68.120  1.00  0.00    -0.108 N  
HETATM   14  O   UNL     1      -9.897  11.223  67.742  1.00  0.00    -0.169 OA 
HETATM   15  C   UNL     1      -8.881  10.925  68.366  1.00  0.00    -0.147 C  
HETATM   16  H   UNL     1      -7.252   9.673  68.678  1.00  0.00     0.000 HD 
BRANCH  15  17
HETATM   17  C   UNL     1      -8.475  11.704  69.610  1.00  0.00     1.196 C  
BRANCH  17  18
HETATM   18  C   UNL     1      -7.127  11.205  70.123  1.00  0.00     0.396 C  
BRANCH  18  19
HETATM   19  C   UNL     1      -7.184   9.901  70.926  1.00  0.00     0.180 C  
BRANCH  19  20
HETATM   20  C   UNL     1      -5.865   9.126  71.002  1.00  0.00    -0.051 C  
BRANCH  20  21
HETATM   21  C   UNL     1      -6.115   7.684  71.430  1.00  0.00    -0.035 C  
HETATM   22  N   UNL     1      -7.445   7.299  71.335  1.00  0.00    -0.081 N  
HETATM   23  O   UNL     1      -5.223   6.977  71.888  1.00  0.00    -0.031 OA 
HETATM   24  H   UNL     1      -8.134   7.972  70.999  1.00  0.00     0.000 HD 
BRANCH  22  25
HETATM   25  C   UNL     1      -7.870   5.986  71.694  1.00  0.00    -0.102 A  
HETATM   26  C   UNL     1      -8.551   5.722  72.893  1.00  0.00    -0.122 A  
HETATM   27  I   UNL     1      -8.760   7.120  74.471  1.00  0.00    -0.096 I  
HETATM   28  C   UNL     1      -8.988   4.428  73.193  1.00  0.00    -0.120 A  
HETATM   29  C   UNL     1      -8.695   3.357  72.338  1.00  0.00    -0.084 A  
HETATM   30  I   UNL     1      -9.349   1.476  73.050  1.00  0.00    -0.109 I  
HETATM   31  C   UNL     1      -7.966   3.566  71.154  1.00  0.00    -0.059 A  
HETATM   32  C   UNL     1      -7.555   2.424  70.286  1.00  0.00    -0.043 C  
HETATM   33  C   UNL     1      -7.562   4.891  70.840  1.00  0.00    -0.073 A  
HETATM   34  O   UNL     1      -6.424   2.286  69.858  1.00  0.00    -0.028 OA 
HETATM   35  I   UNL     1      -6.567   5.359  68.979  1.00  0.00    -0.056 I  
HETATM   36  O   UNL     1      -8.547   1.563  69.969  1.00  0.00    -0.045 OA 
ENDBRANCH  22  25
ENDBRANCH  20  21
ENDBRANCH  19  20
ENDBRANCH  18  19
ENDBRANCH  17  18
ENDBRANCH  15  17
ENDBRANCH   7  13
TORSDOF 7
ENDMDL
MODEL      256
REMARK 921   NORMALIZED FREE ENERGY PREDICTED BY IDOCK:    4.43 KCAL/MOL
REMARK 922        TOTAL FREE ENERGY PREDICTED BY IDOCK:    5.32 KCAL/MOL
REMARK 923 INTER-LIGAND FREE ENERGY PREDICTED BY IDOCK:    3.03 KCAL/MOL
REMARK 924 INTRA-LIGAND FREE ENERGY PREDICTED BY IDOCK:    2.28 KCAL/MOL
REMARK 927      BINDING AFFINITY PREDICTED BY RF-SCORE:    0.00 PKD
ROOT
HETATM    1  O   UNL     1      -7.779   7.458  62.498  1.00  0.00    -0.105 OA 
HETATM    2  C   UNL     1      -8.339   8.470  63.195  1.00  0.00    -0.116 C  
HETATM    3  C   UNL     1      -8.602   8.165  64.627  1.00  0.00     0.035 A  
HETATM    4  O   UNL     1      -8.555   9.558  62.690  1.00  0.00    -0.176 OA 
HETATM    5  C   UNL     1      -8.201   9.069  65.647  1.00  0.00    -0.119 A  
HETATM    6  I   UNL     1      -7.030  10.827  65.191  1.00  0.00     0.553 I  
HETATM    7  C   UNL     1      -8.474   8.814  67.021  1.00  0.00    -0.109 A  
HETATM    8  I   UNL     1     -10.140   5.615  63.651  1.00  0.00     3.838 I  
HETATM    9  C   UNL     1      -9.174   7.641  67.358  1.00  0.00    -0.132 A  
HETATM   10  C   UNL     1      -9.307   7.009  65.006  1.00  0.00     1.124 A  
HETATM   11  C   UNL     1      -9.570   6.744  66.356  1.00  0.00    -0.149 A  
HETATM   12  I   UNL     1      -9.925   7.211  69.284  1.00  0.00    -0.189 I  
ENDROOT
BRANCH   7  13
HETATM   13  N   UNL     1      -8.100   9.795  67.987  1.00  0.00    -0.105 N  
HETATM   14  O   UNL     1      -9.850  11.266  67.588  1.00  0.00    -0.172 OA 
HETATM   15  C   UNL     1      -8.838  10.948  68.207  1.00  0.00    -0.140 C  
HETATM   16  H   UNL     1      -7.256   9.641  68.539  1.00  0.00     0.000 HD 
BRANCH  15  17
HETATM   17  C   UNL     1      -8.382  11.750  69.419  1.00  0.00     0.696 C  
BRANCH  17  18
HETATM   18  C   UNL     1      -7.032  11.233  69.911  1.00  0.00     0.056 C  
BRANCH  18  19
HETATM   19  C   UNL     1      -7.106  10.028  70.854  1.00  0.00     0.238 C  
BRANCH  19  20
HETATM   20  C   UNL     1      -5.828   9.186  70.935  1.00  0.00    -0.046 C  
BRANCH  20  21
HETATM   21  C   UNL     1      -6.164   7.732  71.251  1.00  0.00    -0.035 C  
HETATM   22  N   UNL     1      -7.473   7.386  70.948  1.00  0.00    -0.073 N  
HETATM   23  O   UNL     1      -5.360   6.984  71.796  1.00  0.00    -0.034 OA 
HETATM   24  H   UNL     1      -8.095   8.090  70.552  1.00  0.00     0.000 HD 
BRANCH  22  25
HETATM   25  C   UNL     1      -7.969   6.069  71.179  1.00  0.00    -0.116 A  
HETATM   26  C   UNL     1      -7.717   5.009  70.294  1.00  0.00    -0.067 A  
HETATM   27  I   UNL     1      -6.870   5.248  68.367  1.00  0.00    -0.059 I  
HETATM   28  C   UNL     1      -8.186   3.722  70.574  1.00  0.00    -0.072 A  
HETATM   29  C   UNL     1      -8.976   3.477  71.705  1.00  0.00    -0.105 A  
HETATM   30  I   UNL     1      -9.672   1.486  71.862  1.00  0.00    -0.210 I  
HETATM   31  C   UNL     1      -9.301   4.521  72.589  1.00  0.00    -0.154 A  
HETATM   32  C   UNL     1     -10.226   4.302  73.739  1.00  0.00    -0.168 C  
HETATM   33  C   UNL     1      -8.786   5.817  72.316  1.00  0.00    -0.132 A  
HETATM   34  O   UNL     1     -11.159   5.043  73.995  1.00  0.00    -0.276 OA 
HETATM   35  I   UNL     1      -9.094   7.467  73.678  1.00  0.00    -0.325 I  
HETATM   36  O   UNL     1      -9.931   3.234  74.512  1.00  0.00    -0.122 OA 
ENDBRANCH  22  25
ENDBRANCH  20  21
ENDBRANCH  19  20
ENDBRANCH  18  19
ENDBRANCH  17  18
ENDBRANCH  15  17
ENDBRANCH   7  13
TORSDOF 7
ENDMDL
MODEL      257
REMARK 921   NORMALIZED FREE ENERGY PREDICTED BY IDOCK:    4.43 KCAL/MOL
REMARK 922        TOTAL FREE ENERGY PREDICTED BY IDOCK:    5.32 KCAL/MOL
REMARK 923 INTER-LIGAND FREE ENERGY PREDICTED BY IDOCK:    1.85 KCAL/MOL
REMARK 924 INTRA-LIGAND FREE ENERGY PREDICTED BY IDOCK:    3.47 KCAL/MOL
REMARK 927      BINDING AFFINITY PREDICTED BY RF-SCORE:    0.00 PKD
ROOT
HETATM    1  O   UNL     1      -8.800   9.677  64.948  1.00  0.00    -0.172 OA 
HETATM    2  C   UNL     1     -10.118   9.772  65.231  1.00  0.00    -0.054 C  
HETATM    3  C   UNL     1     -10.492   9.313  66.596  1.00  0.00    -0.237 A  
HETATM    4  O   UNL     1     -10.915  10.246  64.441  1.00  0.00     0.676 OA 
HETATM    5  C   UNL     1     -11.320  10.114  67.429  1.00  0.00     0.214 A  
HETATM    6  I   UNL     1     -11.918  12.104  66.835  1.00  0.00     0.619 I  
HETATM    7  C   UNL     1     -11.720   9.679  68.724  1.00  0.00     0.624 A  
HETATM    8  I   UNL     1      -9.000   6.634  65.950  1.00  0.00     0.113 I  
HETATM    9  C   UNL     1     -11.289   8.416  69.169  1.00  0.00     0.521 A  
HETATM   10  C   UNL     1     -10.092   8.054  67.075  1.00  0.00    -0.279 A  
HETATM   11  C   UNL     1     -10.470   7.623  68.353  1.00  0.00    -0.208 A  
HETATM   12  I   UNL     1     -11.989   7.465  70.920  1.00  0.00    -0.173 I  
ENDROOT
BRANCH   7  13
HETATM   13  N   UNL     1     -12.604  10.505  69.481  1.00  0.00    -0.479 N  
HETATM   14  O   UNL     1     -11.229  10.770  71.331  1.00  0.00     0.488 OA 
HETATM   15  C   UNL     1     -12.275  11.004  70.732  1.00  0.00    -0.380 C  
HETATM   16  H   UNL     1     -13.515  10.737  69.086  1.00  0.00     0.000 HD 
BRANCH  15  17
HETATM   17  C   UNL     1     -13.268  12.027  71.268  1.00  0.00    -0.071 C  
BRANCH  17  18
HETATM   18  C   UNL     1     -13.190  13.313  70.449  1.00  0.00     0.485 C  
BRANCH  18  19
HETATM   19  C   UNL     1     -11.772  13.848  70.221  1.00  0.00    -0.294 C  
BRANCH  19  20
HETATM   20  C   UNL     1     -11.070  13.315  68.968  1.00  0.00    -0.291 C  
BRANCH  20  21
HETATM   21  C   UNL     1      -9.847  14.165  68.637  1.00  0.00    -0.206 C  
HETATM   22  N   UNL     1     -10.115  15.525  68.583  1.00  0.00    -0.206 N  
HETATM   23  O   UNL     1      -8.761  13.664  68.368  1.00  0.00    -0.176 OA 
HETATM   24  H   UNL     1     -11.064  15.853  68.761  1.00  0.00     0.000 HD 
BRANCH  22  25
HETATM   25  C   UNL     1      -9.095  16.476  68.284  1.00  0.00    -0.214 A  
HETATM   26  C   UNL     1      -7.835  16.441  68.902  1.00  0.00    -0.234 A  
HETATM   27  I   UNL     1      -7.364  15.218  70.567  1.00  0.00     1.758 I  
HETATM   28  C   UNL     1      -6.846  17.365  68.554  1.00  0.00    -0.203 A  
HETATM   29  C   UNL     1      -7.113  18.388  67.633  1.00  0.00    -0.209 A  
HETATM   30  I   UNL     1      -5.511  19.739  67.351  1.00  0.00    -0.179 I  
HETATM   31  C   UNL     1      -8.379  18.496  67.033  1.00  0.00    -0.259 A  
HETATM   32  C   UNL     1      -8.715  19.638  66.133  1.00  0.00    -0.333 C  
HETATM   33  C   UNL     1      -9.364  17.527  67.364  1.00  0.00    -0.249 A  
HETATM   34  O   UNL     1      -9.737  20.291  66.237  1.00  0.00    -0.398 OA 
HETATM   35  I   UNL     1     -11.297  17.501  66.396  1.00  0.00     2.050 I  
HETATM   36  O   UNL     1      -7.814  19.876  65.155  1.00  0.00    -0.191 OA 
ENDBRANCH  22  25
ENDBRANCH  20  21
ENDBRANCH  19  20
ENDBRANCH  18  19
ENDBRANCH  17  18
ENDBRANCH  15  17
ENDBRANCH   7  13
TORSDOF 7
ENDMDL
MODEL      258
REMARK 921   NORMALIZED FREE ENERGY PREDICTED BY IDOCK:    4.75 KCAL/MOL
REMARK 922        TOTAL FREE ENERGY PREDICTED BY IDOCK:    5.78 KCAL/MOL
REMARK 923 INTER-LIGAND FREE ENERGY PREDICTED BY IDOCK:   -1.49 KCAL/MOL
REMARK 924 INTRA-LIGAND FREE ENERGY PREDICTED BY IDOCK:    7.27 KCAL/MOL
REMARK 927      BINDING AFFINITY PREDICTED BY RF-SCORE:    0.00 PKD
ROOT
HETATM    1  O   UNL     1     -11.651  10.591  68.948  1.00  0.00    -0.253 OA 
HETATM    2  C   UNL     1     -12.252  11.787  68.766  1.00  0.00     0.036 C  
HETATM    3  C   UNL     1     -12.203  12.691  69.947  1.00  0.00    -0.238 A  
HETATM    4  O   UNL     1     -12.742  12.107  67.697  1.00  0.00     0.711 OA 
HETATM    5  C   UNL     1     -11.797  14.046  69.808  1.00  0.00    -0.324 A  
HETATM    6  I   UNL     1     -11.053  14.807  67.927  1.00  0.00    -0.346 I  
HETATM    7  C   UNL     1     -11.777  14.937  70.918  1.00  0.00    -0.323 A  
HETATM    8  I   UNL     1     -13.411  10.333  71.620  1.00  0.00    -0.066 I  
HETATM    9  C   UNL     1     -12.188  14.453  72.173  1.00  0.00    -0.149 A  
HETATM   10  C   UNL     1     -12.615  12.250  71.216  1.00  0.00    -0.234 A  
HETATM   11  C   UNL     1     -12.588  13.117  72.317  1.00  0.00     0.075 A  
HETATM   12  I   UNL     1     -12.504  15.663  73.874  1.00  0.00    -0.737 I  
ENDROOT
BRANCH   7  13
HETATM   13  N   UNL     1     -11.419  16.300  70.695  1.00  0.00    -0.511 N  
HETATM   14  O   UNL     1      -9.770  15.905  69.111  1.00  0.00    -0.218 OA 
HETATM   15  C   UNL     1     -10.445  16.679  69.785  1.00  0.00    -0.182 C  
HETATM   16  H   UNL     1     -11.901  17.026  71.226  1.00  0.00     0.000 HD 
BRANCH  15  17
HETATM   17  C   UNL     1     -10.369  18.183  69.551  1.00  0.00     0.364 C  
BRANCH  17  18
HETATM   18  C   UNL     1      -8.910  18.625  69.458  1.00  0.00     0.525 C  
BRANCH  18  19
HETATM   19  C   UNL     1      -7.914  17.504  69.144  1.00  0.00     0.014 C  
BRANCH  19  20
HETATM   20  C   UNL     1      -7.329  17.530  67.729  1.00  0.00    -0.192 C  
BRANCH  20  21
HETATM   21  C   UNL     1      -7.053  16.114  67.236  1.00  0.00    -0.196 C  
HETATM   22  N   UNL     1      -7.804  15.144  67.887  1.00  0.00    -0.126 N  
HETATM   23  O   UNL     1      -6.188  15.872  66.401  1.00  0.00     0.266 OA 
HETATM   24  H   UNL     1      -8.459  15.428  68.614  1.00  0.00     0.000 HD 
BRANCH  22  25
HETATM   25  C   UNL     1      -7.679  13.761  67.561  1.00  0.00    -0.176 A  
HETATM   26  C   UNL     1      -8.310  13.196  66.442  1.00  0.00     0.564 A  
HETATM   27  I   UNL     1      -9.772  14.191  65.276  1.00  0.00     0.576 I  
HETATM   28  C   UNL     1      -8.132  11.844  66.132  1.00  0.00     0.290 A  
HETATM   29  C   UNL     1      -7.378  11.010  66.970  1.00  0.00    -0.123 A  
HETATM   30  I   UNL     1      -7.345   8.982  66.370  1.00  0.00    -0.088 I  
HETATM   31  C   UNL     1      -6.776  11.521  68.132  1.00  0.00    -0.062 A  
HETATM   32  C   UNL     1      -6.059  10.628  69.090  1.00  0.00    -0.042 C  
HETATM   33  C   UNL     1      -6.930  12.905  68.416  1.00  0.00    -0.096 A  
HETATM   34  O   UNL     1      -6.243  10.657  70.293  1.00  0.00    -0.112 OA 
HETATM   35  I   UNL     1      -5.929  13.835  70.091  1.00  0.00    -0.083 I  
HETATM   36  O   UNL     1      -5.150   9.803  68.527  1.00  0.00    -0.034 OA 
ENDBRANCH  22  25
ENDBRANCH  20  21
ENDBRANCH  19  20
ENDBRANCH  18  19
ENDBRANCH  17  18
ENDBRANCH  15  17
ENDBRANCH   7  13
TORSDOF 7
ENDMDL
MODEL      259
REMARK 921   NORMALIZED FREE ENERGY PREDICTED BY IDOCK:    4.91 KCAL/MOL
REMARK 922        TOTAL FREE ENERGY PREDICTED BY IDOCK:    6.01 KCAL/MOL
REMARK 923 INTER-LIGAND FREE ENERGY PREDICTED BY IDOCK:    3.85 KCAL/MOL
REMARK 924 INTRA-LIGAND FREE ENERGY PREDICTED BY IDOCK:    2.16 KCAL/MOL
REMARK 927      BINDING AFFINITY PREDICTED BY RF-SCORE:    0.00 PKD
ROOT
HETATM    1  O   UNL     1      -5.917  15.509  69.847  1.00  0.00    -0.136 OA 
HETATM    2  C   UNL     1      -6.942  14.679  70.142  1.00  0.00     0.015 C  
HETATM    3  C   UNL     1      -7.729  14.224  68.964  1.00  0.00    -0.065 A  
HETATM    4  O   UNL     1      -7.157  14.299  71.279  1.00  0.00     0.965 OA 
HETATM    5  C   UNL     1      -8.035  12.848  68.783  1.00  0.00     0.065 A  
HETATM    6  I   UNL     1      -7.220  11.336  70.093  1.00  0.00     1.725 I  
HETATM    7  C   UNL     1      -8.817  12.396  67.683  1.00  0.00    -0.177 A  
HETATM    8  I   UNL     1      -8.054  17.245  68.197  1.00  0.00    -0.252 I  
HETATM    9  C   UNL     1      -9.305  13.349  66.771  1.00  0.00    -0.256 A  
HETATM   10  C   UNL     1      -8.244  15.145  68.035  1.00  0.00    -0.142 A  
HETATM   11  C   UNL     1      -9.005  14.708  66.943  1.00  0.00    -0.275 A  
HETATM   12  I   UNL     1     -10.705  12.935  65.245  1.00  0.00    -0.365 I  
ENDROOT
BRANCH   7  13
HETATM   13  N   UNL     1      -9.140  11.008  67.597  1.00  0.00    -0.144 N  
HETATM   14  O   UNL     1     -11.442  11.263  67.450  1.00  0.00    -0.450 OA 
HETATM   15  C   UNL     1     -10.443  10.550  67.468  1.00  0.00    -0.239 C  
HETATM   16  H   UNL     1      -8.383  10.326  67.632  1.00  0.00     0.000 HD 
BRANCH  15  17
HETATM   17  C   UNL     1     -10.546   9.057  67.184  1.00  0.00    -0.291 C  
BRANCH  17  18
HETATM   18  C   UNL     1     -11.883   8.520  67.687  1.00  0.00     3.276 C  
BRANCH  18  19
HETATM   19  C   UNL     1     -11.958   8.287  69.200  1.00  0.00     1.867 C  
BRANCH  19  20
HETATM   20  C   UNL     1     -12.147   6.828  69.625  1.00  0.00     0.305 C  
BRANCH  20  21
HETATM   21  C   UNL     1     -10.808   6.201  70.000  1.00  0.00    -0.341 C  
HETATM   22  N   UNL     1     -10.518   5.046  69.288  1.00  0.00    -0.137 N  
HETATM   23  O   UNL     1     -10.110   6.649  70.903  1.00  0.00    -0.187 OA 
HETATM   24  H   UNL     1     -11.184   4.708  68.595  1.00  0.00     0.000 HD 
BRANCH  22  25
HETATM   25  C   UNL     1      -9.309   4.319  69.505  1.00  0.00    -0.162 A  
HETATM   26  C   UNL     1      -8.964   3.797  70.761  1.00  0.00    -0.094 A  
HETATM   27  I   UNL     1      -9.980   4.268  72.560  1.00  0.00    -0.231 I  
HETATM   28  C   UNL     1      -7.790   3.056  70.926  1.00  0.00    -0.046 A  
HETATM   29  C   UNL     1      -6.900   2.878  69.858  1.00  0.00    -0.034 A  
HETATM   30  I   UNL     1      -5.136   1.828  70.367  1.00  0.00    -0.004 I  
HETATM   31  C   UNL     1      -7.177   3.432  68.596  1.00  0.00    -0.050 A  
HETATM   32  C   UNL     1      -6.193   3.342  67.478  1.00  0.00    -0.032 C  
HETATM   33  C   UNL     1      -8.392   4.149  68.430  1.00  0.00    -0.091 A  
HETATM   34  O   UNL     1      -5.872   4.298  66.794  1.00  0.00    -0.021 OA 
HETATM   35  I   UNL     1      -8.998   4.918  66.503  1.00  0.00    -0.129 I  
HETATM   36  O   UNL     1      -5.706   2.104  67.246  1.00  0.00    -0.018 OA 
ENDBRANCH  22  25
ENDBRANCH  20  21
ENDBRANCH  19  20
ENDBRANCH  18  19
ENDBRANCH  17  18
ENDBRANCH  15  17
ENDBRANCH   7  13
TORSDOF 7
ENDMDL
MODEL      260
REMARK 921   NORMALIZED FREE ENERGY PREDICTED BY IDOCK:    5.05 KCAL/MOL
REMARK 922        TOTAL FREE ENERGY PREDICTED BY IDOCK:    6.19 KCAL/MOL
REMARK 923 INTER-LIGAND FREE ENERGY PREDICTED BY IDOCK:   -2.88 KCAL/MOL
REMARK 924 INTRA-LIGAND FREE ENERGY PREDICTED BY IDOCK:    9.07 KCAL/MOL
REMARK 927      BINDING AFFINITY PREDICTED BY RF-SCORE:    0.00 PKD
ROOT
HETATM    1  O   UNL     1     -10.699  14.633  64.872  1.00  0.00    -0.402 OA 
HETATM    2  C   UNL     1     -10.489  13.810  65.923  1.00  0.00    -0.297 C  
HETATM    3  C   UNL     1      -9.935  12.476  65.564  1.00  0.00    -0.248 A  
HETATM    4  O   UNL     1     -10.692  14.165  67.070  1.00  0.00    -0.281 OA 
HETATM    5  C   UNL     1      -8.815  11.945  66.260  1.00  0.00    -0.111 A  
HETATM    6  I   UNL     1      -7.751  13.115  67.732  1.00  0.00    -0.191 I  
HETATM    7  C   UNL     1      -8.291  10.657  65.957  1.00  0.00    -0.160 A  
HETATM    8  I   UNL     1     -12.305  12.197  63.533  1.00  0.00    -0.246 I  
HETATM    9  C   UNL     1      -8.919   9.897  64.954  1.00  0.00    -0.207 A  
HETATM   10  C   UNL     1     -10.539  11.680  64.575  1.00  0.00    -0.318 A  
HETATM   11  C   UNL     1     -10.022  10.416  64.262  1.00  0.00    -0.368 A  
HETATM   12  I   UNL     1      -8.487   7.870  64.545  1.00  0.00     0.398 I  
ENDROOT
BRANCH   7  13
HETATM   13  N   UNL     1      -7.205  10.159  66.738  1.00  0.00    -0.091 N  
HETATM   14  O   UNL     1      -5.933  12.099  66.722  1.00  0.00    -0.241 OA 
HETATM   15  C   UNL     1      -6.108  10.936  67.076  1.00  0.00    -0.074 C  
HETATM   16  H   UNL     1      -7.237   9.192  67.060  1.00  0.00     0.000 HD 
BRANCH  15  17
HETATM   17  C   UNL     1      -5.173  10.279  68.082  1.00  0.00    -0.034 C  
BRANCH  17  18
HETATM   18  C   UNL     1      -5.147   8.768  67.864  1.00  0.00    -0.034 C  
BRANCH  18  19
HETATM   19  C   UNL     1      -6.497   8.066  68.045  1.00  0.00    -0.056 C  
BRANCH  19  20
HETATM   20  C   UNL     1      -6.500   6.915  69.055  1.00  0.00    -0.036 C  
BRANCH  20  21
HETATM   21  C   UNL     1      -7.885   6.750  69.674  1.00  0.00    -0.115 C  
HETATM   22  N   UNL     1      -8.561   7.949  69.847  1.00  0.00    -0.138 N  
HETATM   23  O   UNL     1      -8.303   5.660  70.050  1.00  0.00    -0.116 OA 
HETATM   24  H   UNL     1      -8.113   8.819  69.561  1.00  0.00     0.000 HD 
BRANCH  22  25
HETATM   25  C   UNL     1      -9.869   7.993  70.415  1.00  0.00    -0.183 A  
HETATM   26  C   UNL     1     -10.865   8.858  69.934  1.00  0.00    -0.211 A  
HETATM   27  I   UNL     1     -10.509  10.427  68.555  1.00  0.00    -0.283 I  
HETATM   28  C   UNL     1     -12.148   8.844  70.490  1.00  0.00     0.067 A  
HETATM   29  C   UNL     1     -12.447   8.018  71.582  1.00  0.00    -0.320 A  
HETATM   30  I   UNL     1     -14.411   8.250  72.331  1.00  0.00     0.028 I  
HETATM   31  C   UNL     1     -11.464   7.176  72.131  1.00  0.00    -0.306 A  
HETATM   32  C   UNL     1     -11.734   6.369  73.357  1.00  0.00     0.824 C  
HETATM   33  C   UNL     1     -10.175   7.169  71.533  1.00  0.00    -0.197 A  
HETATM   34  O   UNL     1     -10.975   6.328  74.309  1.00  0.00     0.159 OA 
HETATM   35  I   UNL     1      -8.629   5.812  72.195  1.00  0.00    -0.127 I  
HETATM   36  O   UNL     1     -12.873   5.643  73.322  1.00  0.00     1.038 OA 
ENDBRANCH  22  25
ENDBRANCH  20  21
ENDBRANCH  19  20
ENDBRANCH  18  19
ENDBRANCH  17  18
ENDBRANCH  15  17
ENDBRANCH   7  13
TORSDOF 7
ENDMDL
MODEL      261
REMARK 921   NORMALIZED FREE ENERGY PREDICTED BY IDOCK:    5.60 KCAL/MOL
REMARK 922        TOTAL FREE ENERGY PREDICTED BY IDOCK:    6.97 KCAL/MOL
REMARK 923 INTER-LIGAND FREE ENERGY PREDICTED BY IDOCK:    0.16 KCAL/MOL
REMARK 924 INTRA-LIGAND FREE ENERGY PREDICTED BY IDOCK:    6.81 KCAL/MOL
REMARK 927      BINDING AFFINITY PREDICTED BY RF-SCORE:    0.00 PKD
ROOT
HETATM    1  O   UNL     1      -9.033   9.027  64.946  1.00  0.00    -0.194 OA 
HETATM    2  C   UNL     1      -8.686  10.251  65.402  1.00  0.00    -0.169 C  
HETATM    3  C   UNL     1      -9.777  11.261  65.356  1.00  0.00    -0.271 A  
HETATM    4  O   UNL     1      -7.581  10.479  65.861  1.00  0.00    -0.141 OA 
HETATM    5  C   UNL     1     -10.068  12.067  66.490  1.00  0.00    -0.201 A  
HETATM    6  I   UNL     1      -9.077  11.741  68.382  1.00  0.00    -0.040 I  
HETATM    7  C   UNL     1     -11.084  13.064  66.456  1.00  0.00    -0.288 A  
HETATM    8  I   UNL     1     -10.135  10.527  62.331  1.00  0.00     1.332 I  
HETATM    9  C   UNL     1     -11.797  13.254  65.259  1.00  0.00    -0.357 A  
HETATM   10  C   UNL     1     -10.507  11.490  64.176  1.00  0.00    -0.353 A  
HETATM   11  C   UNL     1     -11.517  12.460  64.138  1.00  0.00    -0.448 A  
HETATM   12  I   UNL     1     -13.135  14.850  64.906  1.00  0.00     1.866 I  
ENDROOT
BRANCH   7  13
HETATM   13  N   UNL     1     -11.280  13.881  67.610  1.00  0.00    -0.284 N  
HETATM   14  O   UNL     1      -9.619  15.433  67.142  1.00  0.00    -0.208 OA 
HETATM   15  C   UNL     1     -10.534  15.024  67.853  1.00  0.00    -0.247 C  
HETATM   16  H   UNL     1     -11.999  13.614  68.283  1.00  0.00     0.000 HD 
BRANCH  15  17
HETATM   17  C   UNL     1     -11.043  15.857  69.022  1.00  0.00    -0.294 C  
BRANCH  17  18
HETATM   18  C   UNL     1     -10.336  15.439  70.310  1.00  0.00    -0.205 C  
BRANCH  18  19
HETATM   19  C   UNL     1     -11.124  14.464  71.191  1.00  0.00     0.568 C  
BRANCH  19  20
HETATM   20  C   UNL     1     -12.129  13.580  70.446  1.00  0.00    -0.415 C  
BRANCH  20  21
HETATM   21  C   UNL     1     -12.266  12.226  71.134  1.00  0.00     0.004 C  
HETATM   22  N   UNL     1     -11.330  11.292  70.712  1.00  0.00    -0.165 N  
HETATM   23  O   UNL     1     -13.174  11.986  71.922  1.00  0.00    -0.480 OA 
HETATM   24  H   UNL     1     -10.644  11.559  70.006  1.00  0.00     0.000 HD 
BRANCH  22  25
HETATM   25  C   UNL     1     -11.304   9.969  71.244  1.00  0.00    -0.263 A  
HETATM   26  C   UNL     1     -12.453   9.344  71.753  1.00  0.00    -0.391 A  
HETATM   27  I   UNL     1     -14.285  10.345  72.115  1.00  0.00     1.596 I  
HETATM   28  C   UNL     1     -12.397   8.030  72.229  1.00  0.00    -0.336 A  
HETATM   29  C   UNL     1     -11.181   7.335  72.271  1.00  0.00    -0.267 A  
HETATM   30  I   UNL     1     -11.314   5.411  73.139  1.00  0.00     0.035 I  
HETATM   31  C   UNL     1      -9.995   7.942  71.824  1.00  0.00    -0.228 A  
HETATM   32  C   UNL     1      -8.676   7.257  71.959  1.00  0.00    -0.117 C  
HETATM   33  C   UNL     1     -10.070   9.263  71.306  1.00  0.00    -0.291 A  
HETATM   34  O   UNL     1      -7.685   7.802  72.413  1.00  0.00    -0.088 OA 
HETATM   35  I   UNL     1      -8.343  10.244  70.453  1.00  0.00     1.633 I  
HETATM   36  O   UNL     1      -8.644   5.987  71.500  1.00  0.00    -0.130 OA 
ENDBRANCH  22  25
ENDBRANCH  20  21
ENDBRANCH  19  20
ENDBRANCH  18  19
ENDBRANCH  17  18
ENDBRANCH  15  17
ENDBRANCH   7  13
TORSDOF 7
ENDMDL
MODEL      262
REMARK 921   NORMALIZED FREE ENERGY PREDICTED BY IDOCK:    5.85 KCAL/MOL
REMARK 922        TOTAL FREE ENERGY PREDICTED BY IDOCK:    7.33 KCAL/MOL
REMARK 923 INTER-LIGAND FREE ENERGY PREDICTED BY IDOCK:   -0.83 KCAL/MOL
REMARK 924 INTRA-LIGAND FREE ENERGY PREDICTED BY IDOCK:    8.16 KCAL/MOL
REMARK 927      BINDING AFFINITY PREDICTED BY RF-SCORE:    0.00 PKD
ROOT
HETATM    1  O   UNL     1     -10.699  14.633  64.872  1.00  0.00    -0.402 OA 
HETATM    2  C   UNL     1     -10.489  13.810  65.923  1.00  0.00    -0.297 C  
HETATM    3  C   UNL     1      -9.935  12.476  65.564  1.00  0.00    -0.248 A  
HETATM    4  O   UNL     1     -10.692  14.165  67.070  1.00  0.00    -0.281 OA 
HETATM    5  C   UNL     1      -8.815  11.945  66.260  1.00  0.00    -0.111 A  
HETATM    6  I   UNL     1      -7.751  13.115  67.732  1.00  0.00    -0.191 I  
HETATM    7  C   UNL     1      -8.291  10.657  65.957  1.00  0.00    -0.160 A  
HETATM    8  I   UNL     1     -12.305  12.197  63.533  1.00  0.00    -0.246 I  
HETATM    9  C   UNL     1      -8.919   9.897  64.954  1.00  0.00    -0.207 A  
HETATM   10  C   UNL     1     -10.539  11.680  64.575  1.00  0.00    -0.318 A  
HETATM   11  C   UNL     1     -10.022  10.416  64.262  1.00  0.00    -0.368 A  
HETATM   12  I   UNL     1      -8.487   7.870  64.545  1.00  0.00     0.398 I  
ENDROOT
BRANCH   7  13
HETATM   13  N   UNL     1      -7.205  10.159  66.738  1.00  0.00    -0.091 N  
HETATM   14  O   UNL     1      -5.933  12.099  66.722  1.00  0.00    -0.241 OA 
HETATM   15  C   UNL     1      -6.108  10.936  67.076  1.00  0.00    -0.074 C  
HETATM   16  H   UNL     1      -7.237   9.192  67.060  1.00  0.00     0.000 HD 
BRANCH  15  17
HETATM   17  C   UNL     1      -5.173  10.279  68.082  1.00  0.00    -0.034 C  
BRANCH  17  18
HETATM   18  C   UNL     1      -5.147   8.768  67.864  1.00  0.00    -0.034 C  
BRANCH  18  19
HETATM   19  C   UNL     1      -6.497   8.066  68.045  1.00  0.00    -0.056 C  
BRANCH  19  20
HETATM   20  C   UNL     1      -6.492   6.562  67.753  1.00  0.00    -0.052 C  
BRANCH  20  21
HETATM   21  C   UNL     1      -7.567   5.854  68.571  1.00  0.00    -0.090 C  
HETATM   22  N   UNL     1      -7.764   6.410  69.827  1.00  0.00    -0.106 N  
HETATM   23  O   UNL     1      -8.131   4.843  68.167  1.00  0.00    -0.086 OA 
HETATM   24  H   UNL     1      -7.206   7.217  70.107  1.00  0.00     0.000 HD 
BRANCH  22  25
HETATM   25  C   UNL     1      -8.727   5.879  70.735  1.00  0.00    -0.134 A  
HETATM   26  C   UNL     1      -9.529   6.703  71.542  1.00  0.00    -0.156 A  
HETATM   27  I   UNL     1      -9.222   8.785  71.784  1.00  0.00    -0.050 I  
HETATM   28  C   UNL     1     -10.491   6.147  72.391  1.00  0.00    -0.228 A  
HETATM   29  C   UNL     1     -10.628   4.757  72.506  1.00  0.00    -0.200 A  
HETATM   30  I   UNL     1     -12.060   4.145  73.936  1.00  0.00     3.286 I  
HETATM   31  C   UNL     1      -9.807   3.894  71.760  1.00  0.00    -0.249 A  
HETATM   32  C   UNL     1      -9.867   2.415  71.948  1.00  0.00    -0.158 C  
HETATM   33  C   UNL     1      -8.860   4.469  70.870  1.00  0.00    -0.113 A  
HETATM   34  O   UNL     1      -8.876   1.721  72.093  1.00  0.00    -0.066 OA 
HETATM   35  I   UNL     1      -7.648   3.248  69.563  1.00  0.00    -0.052 I  
HETATM   36  O   UNL     1     -11.108   1.884  71.904  1.00  0.00     0.584 OA 
ENDBRANCH  22  25
ENDBRANCH  20  21
ENDBRANCH  19  20
ENDBRANCH  18  19
ENDBRANCH  17  18
ENDBRANCH  15  17
ENDBRANCH   7  13
TORSDOF 7
ENDMDL
MODEL      263
REMARK 921   NORMALIZED FREE ENERGY PREDICTED BY IDOCK:    7.17 KCAL/MOL
REMARK 922        TOTAL FREE ENERGY PREDICTED BY IDOCK:    9.18 KCAL/MOL
REMARK 923 INTER-LIGAND FREE ENERGY PREDICTED BY IDOCK:    5.85 KCAL/MOL
REMARK 924 INTRA-LIGAND FREE ENERGY PREDICTED BY IDOCK:    3.33 KCAL/MOL
REMARK 927      BINDING AFFINITY PREDICTED BY RF-SCORE:    0.00 PKD
ROOT
HETATM    1  O   UNL     1     -10.043  18.386  68.586  1.00  0.00    -0.369 OA 
HETATM    2  C   UNL     1      -9.701  17.153  69.021  1.00  0.00    -0.212 C  
HETATM    3  C   UNL     1      -9.384  16.180  67.941  1.00  0.00    -0.212 A  
HETATM    4  O   UNL     1      -9.611  16.890  70.207  1.00  0.00     1.119 OA 
HETATM    5  C   UNL     1      -8.204  15.390  67.999  1.00  0.00    -0.144 A  
HETATM    6  I   UNL     1      -6.727  15.692  69.546  1.00  0.00    -0.121 I  
HETATM    7  C   UNL     1      -7.900  14.429  66.994  1.00  0.00     0.050 A  
HETATM    8  I   UNL     1     -12.154  16.911  66.669  1.00  0.00     4.281 I  
HETATM    9  C   UNL     1      -8.808  14.257  65.934  1.00  0.00     0.675 A  
HETATM   10  C   UNL     1     -10.270  15.971  66.869  1.00  0.00    -0.280 A  
HETATM   11  C   UNL     1      -9.973  15.035  65.870  1.00  0.00    -0.353 A  
HETATM   12  I   UNL     1      -8.696  12.706  64.505  1.00  0.00     3.813 I  
ENDROOT
BRANCH   7  13
HETATM   13  N   UNL     1      -6.731  13.625  67.148  1.00  0.00    -0.134 N  
HETATM   14  O   UNL     1      -7.820  11.632  67.627  1.00  0.00    -0.121 OA 
HETATM   15  C   UNL     1      -6.787  12.270  67.438  1.00  0.00    -0.145 C  
HETATM   16  H   UNL     1      -5.817  14.064  67.039  1.00  0.00     0.000 HD 
BRANCH  15  17
HETATM   17  C   UNL     1      -5.440  11.564  67.352  1.00  0.00    -0.067 C  
BRANCH  17  18
HETATM   18  C   UNL     1      -5.619  10.166  66.765  1.00  0.00    -0.046 C  
BRANCH  18  19
HETATM   19  C   UNL     1      -6.967   9.504  67.071  1.00  0.00    -0.085 C  
BRANCH  19  20
HETATM   20  C   UNL     1      -7.490   9.723  68.494  1.00  0.00    -0.079 C  
BRANCH  20  21
HETATM   21  C   UNL     1      -7.589   8.395  69.239  1.00  0.00    -0.089 C  
HETATM   22  N   UNL     1      -8.440   7.482  68.634  1.00  0.00    -0.129 N  
HETATM   23  O   UNL     1      -7.023   8.207  70.310  1.00  0.00    -0.040 OA 
HETATM   24  H   UNL     1      -8.920   7.743  67.773  1.00  0.00     0.000 HD 
BRANCH  22  25
HETATM   25  C   UNL     1      -8.660   6.186  69.188  1.00  0.00    -0.119 A  
HETATM   26  C   UNL     1      -9.672   5.936  70.129  1.00  0.00    -0.168 A  
HETATM   27  I   UNL     1     -10.787   7.452  71.102  1.00  0.00    -0.298 I  
HETATM   28  C   UNL     1      -9.883   4.644  70.620  1.00  0.00    -0.296 A  
HETATM   29  C   UNL     1      -9.048   3.586  70.237  1.00  0.00    -0.132 A  
HETATM   30  I   UNL     1      -9.479   1.751  71.195  1.00  0.00    -0.159 I  
HETATM   31  C   UNL     1      -7.987   3.803  69.341  1.00  0.00    -0.059 A  
HETATM   32  C   UNL     1      -7.024   2.713  69.004  1.00  0.00    -0.044 C  
HETATM   33  C   UNL     1      -7.806   5.111  68.817  1.00  0.00    -0.079 A  
HETATM   34  O   UNL     1      -5.815   2.864  69.017  1.00  0.00    -0.022 OA 
HETATM   35  I   UNL     1      -6.304   5.533  67.321  1.00  0.00    -0.042 I  
HETATM   36  O   UNL     1      -7.592   1.544  68.638  1.00  0.00    -0.046 OA 
ENDBRANCH  22  25
ENDBRANCH  20  21
ENDBRANCH  19  20
ENDBRANCH  18  19
ENDBRANCH  17  18
ENDBRANCH  15  17
ENDBRANCH   7  13
TORSDOF 7
ENDMDL
MODEL      264
REMARK 921   NORMALIZED FREE ENERGY PREDICTED BY IDOCK:    7.54 KCAL/MOL
REMARK 922        TOTAL FREE ENERGY PREDICTED BY IDOCK:    9.70 KCAL/MOL
REMARK 923 INTER-LIGAND FREE ENERGY PREDICTED BY IDOCK:    3.81 KCAL/MOL
REMARK 924 INTRA-LIGAND FREE ENERGY PREDICTED BY IDOCK:    5.89 KCAL/MOL
REMARK 927      BINDING AFFINITY PREDICTED BY RF-SCORE:    0.00 PKD
ROOT
HETATM    1  O   UNL     1      -6.575   7.168  68.732  1.00  0.00    -0.041 OA 
HETATM    2  C   UNL     1      -6.232   8.435  68.415  1.00  0.00    -0.054 C  
HETATM    3  C   UNL     1      -7.186   9.126  67.506  1.00  0.00    -0.080 A  
HETATM    4  O   UNL     1      -5.245   8.973  68.885  1.00  0.00    -0.036 OA 
HETATM    5  C   UNL     1      -7.655  10.434  67.805  1.00  0.00    -0.089 A  
HETATM    6  I   UNL     1      -7.159  11.405  69.671  1.00  0.00     0.462 I  
HETATM    7  C   UNL     1      -8.540  11.128  66.932  1.00  0.00    -0.148 A  
HETATM    8  I   UNL     1      -6.905   6.672  65.578  1.00  0.00    -0.054 I  
HETATM    9  C   UNL     1      -8.939  10.494  65.741  1.00  0.00    -0.180 A  
HETATM   10  C   UNL     1      -7.601   8.533  66.301  1.00  0.00    -0.090 A  
HETATM   11  C   UNL     1      -8.482   9.203  65.442  1.00  0.00    -0.163 A  
HETATM   12  I   UNL     1     -10.007  11.442  64.185  1.00  0.00    -0.387 I  
ENDROOT
BRANCH   7  13
HETATM   13  N   UNL     1      -8.920  12.463  67.262  1.00  0.00    -0.182 N  
HETATM   14  O   UNL     1      -7.003  13.505  66.471  1.00  0.00     0.945 OA 
HETATM   15  C   UNL     1      -8.118  13.559  66.984  1.00  0.00     0.004 C  
HETATM   16  H   UNL     1      -9.818  12.618  67.719  1.00  0.00     0.000 HD 
BRANCH  15  17
HETATM   17  C   UNL     1      -8.799  14.900  67.226  1.00  0.00    -0.216 C  
BRANCH  17  18
HETATM   18  C   UNL     1      -8.032  16.013  66.516  1.00  0.00    -0.271 C  
BRANCH  18  19
HETATM   19  C   UNL     1      -8.889  17.197  66.057  1.00  0.00    -0.142 C  
BRANCH  19  20
HETATM   20  C   UNL     1      -9.601  17.958  67.180  1.00  0.00    -0.280 C  
BRANCH  20  21
HETATM   21  C   UNL     1      -9.940  17.019  68.333  1.00  0.00    -0.289 C  
HETATM   22  N   UNL     1     -11.089  16.270  68.119  1.00  0.00    -0.347 N  
HETATM   23  O   UNL     1      -9.289  17.004  69.372  1.00  0.00    -0.048 OA 
HETATM   24  H   UNL     1     -11.606  16.390  67.249  1.00  0.00     0.000 HD 
BRANCH  22  25
HETATM   25  C   UNL     1     -11.564  15.339  69.090  1.00  0.00    -0.332 A  
HETATM   26  C   UNL     1     -12.173  14.126  68.728  1.00  0.00    -0.199 A  
HETATM   27  I   UNL     1     -12.771  13.642  66.754  1.00  0.00     1.475 I  
HETATM   28  C   UNL     1     -12.589  13.220  69.708  1.00  0.00     0.069 A  
HETATM   29  C   UNL     1     -12.472  13.531  71.069  1.00  0.00    -0.369 A  
HETATM   30  I   UNL     1     -13.275  12.067  72.365  1.00  0.00     1.534 I  
HETATM   31  C   UNL     1     -11.920  14.759  71.476  1.00  0.00    -0.415 A  
HETATM   32  C   UNL     1     -11.884  15.152  72.915  1.00  0.00    -0.345 C  
HETATM   33  C   UNL     1     -11.464  15.656  70.473  1.00  0.00    -0.360 A  
HETATM   34  O   UNL     1     -12.246  16.243  73.317  1.00  0.00    -0.486 OA 
HETATM   35  I   UNL     1     -10.464  17.504  70.978  1.00  0.00     4.055 I  
HETATM   36  O   UNL     1     -11.377  14.217  73.748  1.00  0.00     0.871 OA 
ENDBRANCH  22  25
ENDBRANCH  20  21
ENDBRANCH  19  20
ENDBRANCH  18  19
ENDBRANCH  17  18
ENDBRANCH  15  17
ENDBRANCH   7  13
TORSDOF 7
ENDMDL
MODEL      265
REMARK 921   NORMALIZED FREE ENERGY PREDICTED BY IDOCK:    7.61 KCAL/MOL
REMARK 922        TOTAL FREE ENERGY PREDICTED BY IDOCK:    9.81 KCAL/MOL
REMARK 923 INTER-LIGAND FREE ENERGY PREDICTED BY IDOCK:    7.76 KCAL/MOL
REMARK 924 INTRA-LIGAND FREE ENERGY PREDICTED BY IDOCK:    2.05 KCAL/MOL
REMARK 927      BINDING AFFINITY PREDICTED BY RF-SCORE:    0.00 PKD
ROOT
HETATM    1  O   UNL     1      -8.486  14.500  71.700  1.00  0.00     3.741 OA 
HETATM    2  C   UNL     1      -8.848  14.614  70.403  1.00  0.00     1.618 C  
HETATM    3  C   UNL     1      -8.161  13.669  69.483  1.00  0.00     0.822 A  
HETATM    4  O   UNL     1      -9.709  15.396  70.041  1.00  0.00    -0.241 OA 
HETATM    5  C   UNL     1      -8.902  12.905  68.541  1.00  0.00    -0.044 A  
HETATM    6  I   UNL     1     -11.063  12.934  68.525  1.00  0.00    -0.359 I  
HETATM    7  C   UNL     1      -8.262  12.022  67.626  1.00  0.00    -0.155 A  
HETATM    8  I   UNL     1      -5.453  14.708  70.669  1.00  0.00    -0.151 I  
HETATM    9  C   UNL     1      -6.858  11.927  67.658  1.00  0.00    -0.112 A  
HETATM   10  C   UNL     1      -6.760  13.551  69.475  1.00  0.00    -0.011 A  
HETATM   11  C   UNL     1      -6.122  12.676  68.587  1.00  0.00    -0.067 A  
HETATM   12  I   UNL     1      -5.698  10.906  66.219  1.00  0.00    -0.111 I  
ENDROOT
BRANCH   7  13
HETATM   13  N   UNL     1      -9.061  11.334  66.665  1.00  0.00    -0.174 N  
HETATM   14  O   UNL     1      -7.684  11.706  64.834  1.00  0.00     1.151 OA 
HETATM   15  C   UNL     1      -8.693  11.215  65.333  1.00  0.00    -0.057 C  
HETATM   16  H   UNL     1      -9.938  10.912  66.970  1.00  0.00     0.000 HD 
BRANCH  15  17
HETATM   17  C   UNL     1      -9.578  10.269  64.531  1.00  0.00    -0.378 C  
BRANCH  17  18
HETATM   18  C   UNL     1     -10.310   9.314  65.471  1.00  0.00     0.653 C  
BRANCH  18  19
HETATM   19  C   UNL     1     -10.020   7.828  65.234  1.00  0.00     1.947 C  
BRANCH  19  20
HETATM   20  C   UNL     1      -8.791   7.280  65.967  1.00  0.00    -0.161 C  
BRANCH  20  21
HETATM   21  C   UNL     1      -9.148   6.897  67.400  1.00  0.00    -0.122 C  
HETATM   22  N   UNL     1      -8.807   7.865  68.334  1.00  0.00    -0.131 N  
HETATM   23  O   UNL     1      -9.616   5.800  67.682  1.00  0.00    -0.111 OA 
HETATM   24  H   UNL     1      -8.364   8.728  68.018  1.00  0.00     0.000 HD 
BRANCH  22  25
HETATM   25  C   UNL     1      -9.062   7.682  69.725  1.00  0.00    -0.147 A  
HETATM   26  C   UNL     1     -10.176   8.252  70.363  1.00  0.00    -0.201 A  
HETATM   27  I   UNL     1     -11.438   9.702  69.475  1.00  0.00     0.300 I  
HETATM   28  C   UNL     1     -10.415   8.017  71.721  1.00  0.00    -0.287 A  
HETATM   29  C   UNL     1      -9.513   7.267  72.488  1.00  0.00    -0.147 A  
HETATM   30  I   UNL     1     -10.014   7.143  74.538  1.00  0.00     1.194 I  
HETATM   31  C   UNL     1      -8.355   6.725  71.903  1.00  0.00    -0.109 A  
HETATM   32  C   UNL     1      -7.332   6.015  72.725  1.00  0.00    -0.090 C  
HETATM   33  C   UNL     1      -8.142   6.937  70.514  1.00  0.00    -0.115 A  
HETATM   34  O   UNL     1      -6.138   6.245  72.647  1.00  0.00    -0.044 OA 
HETATM   35  I   UNL     1      -6.479   6.031  69.473  1.00  0.00    -0.047 I  
HETATM   36  O   UNL     1      -7.822   5.059  73.542  1.00  0.00    -0.098 OA 
ENDBRANCH  22  25
ENDBRANCH  20  21
ENDBRANCH  19  20
ENDBRANCH  18  19
ENDBRANCH  17  18
ENDBRANCH  15  17
ENDBRANCH   7  13
TORSDOF 7
ENDMDL
MODEL      266
REMARK 921   NORMALIZED FREE ENERGY PREDICTED BY IDOCK:    7.65 KCAL/MOL
REMARK 922        TOTAL FREE ENERGY PREDICTED BY IDOCK:    9.87 KCAL/MOL
REMARK 923 INTER-LIGAND FREE ENERGY PREDICTED BY IDOCK:    2.32 KCAL/MOL
REMARK 924 INTRA-LIGAND FREE ENERGY PREDICTED BY IDOCK:    7.54 KCAL/MOL
REMARK 927      BINDING AFFINITY PREDICTED BY RF-SCORE:    0.00 PKD
ROOT
HETATM    1  O   UNL     1      -9.510   9.806  66.766  1.00  0.00    -0.152 OA 
HETATM    2  C   UNL     1      -9.989   8.820  65.976  1.00  0.00    -0.082 C  
HETATM    3  C   UNL     1      -8.949   7.925  65.403  1.00  0.00     0.056 A  
HETATM    4  O   UNL     1     -11.184   8.658  65.800  1.00  0.00     2.844 OA 
HETATM    5  C   UNL     1      -9.087   6.512  65.475  1.00  0.00     0.166 A  
HETATM    6  I   UNL     1     -10.707   5.598  66.576  1.00  0.00     0.150 I  
HETATM    7  C   UNL     1      -8.121   5.637  64.902  1.00  0.00    -0.127 A  
HETATM    8  I   UNL     1      -7.513  10.504  64.352  1.00  0.00     0.406 I  
HETATM    9  C   UNL     1      -7.017   6.201  64.238  1.00  0.00    -0.051 A  
HETATM   10  C   UNL     1      -7.835   8.447  64.722  1.00  0.00    -0.128 A  
HETATM   11  C   UNL     1      -6.873   7.593  64.166  1.00  0.00    -0.056 A  
HETATM   12  I   UNL     1      -5.629   5.103  63.085  1.00  0.00    -0.014 I  
ENDROOT
BRANCH   7  13
HETATM   13  N   UNL     1      -8.355   4.230  64.955  1.00  0.00    -0.106 N  
HETATM   14  O   UNL     1      -7.134   3.669  63.063  1.00  0.00    -0.045 OA 
HETATM   15  C   UNL     1      -7.821   3.347  64.029  1.00  0.00    -0.081 C  
HETATM   16  H   UNL     1      -8.939   3.859  65.704  1.00  0.00     0.000 HD 
BRANCH  15  17
HETATM   17  C   UNL     1      -8.020   1.881  64.388  1.00  0.00    -0.069 C  
BRANCH  17  18
HETATM   18  C   UNL     1      -7.497   1.611  65.798  1.00  0.00    -0.061 C  
BRANCH  18  19
HETATM   19  C   UNL     1      -6.461   2.619  66.306  1.00  0.00    -0.028 C  
BRANCH  19  20
HETATM   20  C   UNL     1      -6.557   2.956  67.797  1.00  0.00    -0.037 C  
BRANCH  20  21
HETATM   21  C   UNL     1      -7.149   4.348  67.995  1.00  0.00    -0.060 C  
HETATM   22  N   UNL     1      -7.638   4.565  69.275  1.00  0.00    -0.055 N  
HETATM   23  O   UNL     1      -7.244   5.150  67.074  1.00  0.00    -0.078 OA 
HETATM   24  H   UNL     1      -7.573   3.819  69.967  1.00  0.00     0.000 HD 
BRANCH  22  25
HETATM   25  C   UNL     1      -8.231   5.808  69.647  1.00  0.00    -0.108 A  
HETATM   26  C   UNL     1      -7.789   7.034  69.124  1.00  0.00    -0.114 A  
HETATM   27  I   UNL     1      -6.014   7.269  67.992  1.00  0.00    -0.037 I  
HETATM   28  C   UNL     1      -8.421   8.229  69.480  1.00  0.00    -0.125 A  
HETATM   29  C   UNL     1      -9.462   8.237  70.419  1.00  0.00    -0.167 A  
HETATM   30  I   UNL     1     -10.186  10.166  70.894  1.00  0.00     1.507 I  
HETATM   31  C   UNL     1      -9.899   7.039  71.011  1.00  0.00    -0.185 A  
HETATM   32  C   UNL     1     -10.932   7.039  72.088  1.00  0.00    -0.234 C  
HETATM   33  C   UNL     1      -9.276   5.826  70.612  1.00  0.00    -0.152 A  
HETATM   34  O   UNL     1     -10.808   6.422  73.131  1.00  0.00    -0.253 OA 
HETATM   35  I   UNL     1      -9.960   3.909  71.340  1.00  0.00     0.080 I  
HETATM   36  O   UNL     1     -12.047   7.748  71.808  1.00  0.00    -0.278 OA 
ENDBRANCH  22  25
ENDBRANCH  20  21
ENDBRANCH  19  20
ENDBRANCH  18  19
ENDBRANCH  17  18
ENDBRANCH  15  17
ENDBRANCH   7  13
TORSDOF 7
ENDMDL
MODEL      267
REMARK 921   NORMALIZED FREE ENERGY PREDICTED BY IDOCK:    7.66 KCAL/MOL
REMARK 922        TOTAL FREE ENERGY PREDICTED BY IDOCK:    9.87 KCAL/MOL
REMARK 923 INTER-LIGAND FREE ENERGY PREDICTED BY IDOCK:   -2.40 KCAL/MOL
REMARK 924 INTRA-LIGAND FREE ENERGY PREDICTED BY IDOCK:   12.27 KCAL/MOL
REMARK 927      BINDING AFFINITY PREDICTED BY RF-SCORE:    0.00 PKD
ROOT
HETATM    1  O   UNL     1      -9.805  10.700  63.928  1.00  0.00    -0.294 OA 
HETATM    2  C   UNL     1      -8.882  10.147  64.746  1.00  0.00    -0.195 C  
HETATM    3  C   UNL     1      -9.399   9.059  65.619  1.00  0.00    -0.289 A  
HETATM    4  O   UNL     1      -7.712  10.486  64.720  1.00  0.00    -0.109 OA 
HETATM    5  C   UNL     1      -8.711   7.820  65.719  1.00  0.00    -0.133 A  
HETATM    6  I   UNL     1      -6.997   7.384  64.477  1.00  0.00    -0.061 I  
HETATM    7  C   UNL     1      -9.170   6.779  66.576  1.00  0.00    -0.162 A  
HETATM    8  I   UNL     1     -11.626  11.060  66.547  1.00  0.00     1.435 I  
HETATM    9  C   UNL     1     -10.324   7.005  67.346  1.00  0.00    -0.244 A  
HETATM   10  C   UNL     1     -10.544   9.248  66.413  1.00  0.00     0.033 A  
HETATM   11  C   UNL     1     -11.009   8.224  67.249  1.00  0.00     0.095 A  
HETATM   12  I   UNL     1     -11.009   5.720  68.876  1.00  0.00     0.370 I  
ENDROOT
BRANCH   7  13
HETATM   13  N   UNL     1      -8.395   5.585  66.677  1.00  0.00    -0.109 N  
HETATM   14  O   UNL     1      -6.386   6.489  65.947  1.00  0.00    -0.036 OA 
HETATM   15  C   UNL     1      -7.044   5.541  66.367  1.00  0.00    -0.069 C  
HETATM   16  H   UNL     1      -8.853   4.729  66.990  1.00  0.00     0.000 HD 
BRANCH  15  17
HETATM   17  C   UNL     1      -6.367   4.229  66.743  1.00  0.00    -0.037 C  
BRANCH  17  18
HETATM   18  C   UNL     1      -6.858   3.760  68.110  1.00  0.00    -0.047 C  
BRANCH  18  19
HETATM   19  C   UNL     1      -6.169   4.423  69.307  1.00  0.00    -0.028 C  
BRANCH  19  20
HETATM   20  C   UNL     1      -5.488   5.762  69.005  1.00  0.00    -0.004 C  
BRANCH  20  21
HETATM   21  C   UNL     1      -6.497   6.903  69.074  1.00  0.00    -0.036 C  
HETATM   22  N   UNL     1      -7.477   6.720  70.039  1.00  0.00    -0.092 N  
HETATM   23  O   UNL     1      -6.471   7.842  68.286  1.00  0.00    -0.051 OA 
HETATM   24  H   UNL     1      -7.459   5.878  70.613  1.00  0.00     0.000 HD 
BRANCH  22  25
HETATM   25  C   UNL     1      -8.509   7.683  70.248  1.00  0.00    -0.134 A  
HETATM   26  C   UNL     1      -8.536   8.910  69.566  1.00  0.00    -0.134 A  
HETATM   27  I   UNL     1      -6.930   9.657  68.403  1.00  0.00    -0.065 I  
HETATM   28  C   UNL     1      -9.586   9.812  69.767  1.00  0.00    -0.256 A  
HETATM   29  C   UNL     1     -10.594   9.542  70.702  1.00  0.00    -0.308 A  
HETATM   30  I   UNL     1     -12.008  11.098  70.925  1.00  0.00     0.110 I  
HETATM   31  C   UNL     1     -10.575   8.351  71.449  1.00  0.00    -0.296 A  
HETATM   32  C   UNL     1     -11.579   8.094  72.523  1.00  0.00    -0.404 C  
HETATM   33  C   UNL     1      -9.526   7.423  71.208  1.00  0.00    -0.154 A  
HETATM   34  O   UNL     1     -11.279   7.703  73.636  1.00  0.00    -0.183 OA 
HETATM   35  I   UNL     1      -9.472   5.496  72.185  1.00  0.00    -0.188 I  
HETATM   36  O   UNL     1     -12.865   8.289  72.158  1.00  0.00    -0.331 OA 
ENDBRANCH  22  25
ENDBRANCH  20  21
ENDBRANCH  19  20
ENDBRANCH  18  19
ENDBRANCH  17  18
ENDBRANCH  15  17
ENDBRANCH   7  13
TORSDOF 7
ENDMDL
MODEL      268
REMARK 921   NORMALIZED FREE ENERGY PREDICTED BY IDOCK:    8.02 KCAL/MOL
REMARK 922        TOTAL FREE ENERGY PREDICTED BY IDOCK:   10.39 KCAL/MOL
REMARK 923 INTER-LIGAND FREE ENERGY PREDICTED BY IDOCK:    9.20 KCAL/MOL
REMARK 924 INTRA-LIGAND FREE ENERGY PREDICTED BY IDOCK:    1.19 KCAL/MOL
REMARK 927      BINDING AFFINITY PREDICTED BY RF-SCORE:    0.00 PKD
ROOT
HETATM    1  O   UNL     1      -8.478  14.500  71.679  1.00  0.00     3.741 OA 
HETATM    2  C   UNL     1      -8.830  14.526  70.375  1.00  0.00     1.853 C  
HETATM    3  C   UNL     1      -8.051  13.604  69.504  1.00  0.00     0.822 A  
HETATM    4  O   UNL     1      -9.750  15.214  69.969  1.00  0.00    -0.122 OA 
HETATM    5  C   UNL     1      -8.711  12.739  68.590  1.00  0.00     0.057 A  
HETATM    6  I   UNL     1     -10.866  12.580  68.551  1.00  0.00    -0.288 I  
HETATM    7  C   UNL     1      -7.984  11.875  67.723  1.00  0.00    -0.144 A  
HETATM    8  I   UNL     1      -5.460  14.924  70.671  1.00  0.00    -0.099 I  
HETATM    9  C   UNL     1      -6.579  11.903  67.773  1.00  0.00    -0.084 A  
HETATM   10  C   UNL     1      -6.646  13.608  69.516  1.00  0.00    -0.069 A  
HETATM   11  C   UNL     1      -5.922  12.752  68.675  1.00  0.00    -0.065 A  
HETATM   12  I   UNL     1      -5.315  10.923  66.394  1.00  0.00    -0.136 I  
ENDROOT
BRANCH   7  13
HETATM   13  N   UNL     1      -8.708  11.079  66.785  1.00  0.00    -0.148 N  
HETATM   14  O   UNL     1      -7.467  11.653  64.910  1.00  0.00     1.346 OA 
HETATM   15  C   UNL     1      -8.375  11.018  65.441  1.00  0.00     0.010 C  
HETATM   16  H   UNL     1      -9.502  10.532  67.117  1.00  0.00     0.000 HD 
BRANCH  15  17
HETATM   17  C   UNL     1      -9.139   9.955  64.663  1.00  0.00    -0.288 C  
BRANCH  17  18
HETATM   18  C   UNL     1      -9.567   8.828  65.600  1.00  0.00    -0.105 C  
BRANCH  18  19
HETATM   19  C   UNL     1      -9.069   7.434  65.203  1.00  0.00     0.488 C  
BRANCH  19  20
HETATM   20  C   UNL     1      -7.641   7.102  65.648  1.00  0.00    -0.093 C  
BRANCH  20  21
HETATM   21  C   UNL     1      -7.632   6.599  67.088  1.00  0.00    -0.096 C  
HETATM   22  N   UNL     1      -7.957   5.255  67.208  1.00  0.00    -0.100 N  
HETATM   23  O   UNL     1      -7.433   7.349  68.037  1.00  0.00    -0.100 OA 
HETATM   24  H   UNL     1      -8.169   4.718  66.368  1.00  0.00     0.000 HD 
BRANCH  22  25
HETATM   25  C   UNL     1      -8.002   4.609  68.479  1.00  0.00    -0.080 A  
HETATM   26  C   UNL     1      -6.951   3.805  68.947  1.00  0.00    -0.046 A  
HETATM   27  I   UNL     1      -5.323   3.166  67.751  1.00  0.00    -0.014 I  
HETATM   28  C   UNL     1      -7.013   3.221  70.216  1.00  0.00    -0.034 A  
HETATM   29  C   UNL     1      -8.154   3.367  71.017  1.00  0.00    -0.062 A  
HETATM   30  I   UNL     1      -8.074   2.299  72.840  1.00  0.00    -0.055 I  
HETATM   31  C   UNL     1      -9.253   4.117  70.564  1.00  0.00    -0.194 A  
HETATM   32  C   UNL     1     -10.515   4.196  71.357  1.00  0.00     0.224 C  
HETATM   33  C   UNL     1      -9.163   4.739  69.290  1.00  0.00    -0.118 A  
HETATM   34  O   UNL     1     -11.619   4.023  70.873  1.00  0.00     3.632 OA 
HETATM   35  I   UNL     1     -10.726   6.036  68.552  1.00  0.00    -0.256 I  
HETATM   36  O   UNL     1     -10.351   4.519  72.658  1.00  0.00    -0.182 OA 
ENDBRANCH  22  25
ENDBRANCH  20  21
ENDBRANCH  19  20
ENDBRANCH  18  19
ENDBRANCH  17  18
ENDBRANCH  15  17
ENDBRANCH   7  13
TORSDOF 7
ENDMDL
MODEL      269
REMARK 921   NORMALIZED FREE ENERGY PREDICTED BY IDOCK:    8.53 KCAL/MOL
REMARK 922        TOTAL FREE ENERGY PREDICTED BY IDOCK:   11.09 KCAL/MOL
REMARK 923 INTER-LIGAND FREE ENERGY PREDICTED BY IDOCK:    7.16 KCAL/MOL
REMARK 924 INTRA-LIGAND FREE ENERGY PREDICTED BY IDOCK:    3.94 KCAL/MOL
REMARK 927      BINDING AFFINITY PREDICTED BY RF-SCORE:    0.00 PKD
ROOT
HETATM    1  O   UNL     1      -7.628  15.687  65.177  1.00  0.00     4.297 OA 
HETATM    2  C   UNL     1      -7.200  14.944  66.221  1.00  0.00     2.678 C  
HETATM    3  C   UNL     1      -8.041  13.754  66.521  1.00  0.00     0.722 A  
HETATM    4  O   UNL     1      -6.175  15.210  66.823  1.00  0.00     0.203 OA 
HETATM    5  C   UNL     1      -7.449  12.476  66.712  1.00  0.00     0.244 A  
HETATM    6  I   UNL     1      -5.336  12.160  66.392  1.00  0.00     1.601 I  
HETATM    7  C   UNL     1      -8.232  11.332  67.035  1.00  0.00    -0.151 A  
HETATM    8  I   UNL     1     -10.499  15.695  66.612  1.00  0.00    -0.284 I  
HETATM    9  C   UNL     1      -9.622  11.490  67.182  1.00  0.00    -0.177 A  
HETATM   10  C   UNL     1      -9.432  13.871  66.686  1.00  0.00    -0.285 A  
HETATM   11  C   UNL     1     -10.212  12.748  66.992  1.00  0.00    -0.245 A  
HETATM   12  I   UNL     1     -10.921  10.002  67.929  1.00  0.00    -0.018 I  
ENDROOT
BRANCH   7  13
HETATM   13  N   UNL     1      -7.566  10.093  67.277  1.00  0.00    -0.095 N  
HETATM   14  O   UNL     1      -8.152   9.064  65.281  1.00  0.00    -0.114 OA 
HETATM   15  C   UNL     1      -7.565   9.053  66.360  1.00  0.00    -0.092 C  
HETATM   16  H   UNL     1      -7.069   9.968  68.159  1.00  0.00     0.000 HD 
BRANCH  15  17
HETATM   17  C   UNL     1      -6.626   7.910  66.723  1.00  0.00    -0.059 C  
BRANCH  17  18
HETATM   18  C   UNL     1      -6.485   7.811  68.241  1.00  0.00    -0.057 C  
BRANCH  18  19
HETATM   19  C   UNL     1      -5.484   8.791  68.862  1.00  0.00    -0.037 C  
BRANCH  19  20
HETATM   20  C   UNL     1      -6.032   9.637  70.015  1.00  0.00    -0.043 C  
BRANCH  20  21
HETATM   21  C   UNL     1      -7.068   8.851  70.811  1.00  0.00    -0.078 C  
HETATM   22  N   UNL     1      -7.470   7.676  70.191  1.00  0.00    -0.082 N  
HETATM   23  O   UNL     1      -7.545   9.278  71.857  1.00  0.00    -0.309 OA 
HETATM   24  H   UNL     1      -7.065   7.426  69.290  1.00  0.00     0.000 HD 
BRANCH  22  25
HETATM   25  C   UNL     1      -8.435   6.810  70.786  1.00  0.00    -0.133 A  
HETATM   26  C   UNL     1      -9.793   7.155  70.880  1.00  0.00    -0.181 A  
HETATM   27  I   UNL     1     -10.556   9.089  70.472  1.00  0.00    -0.356 I  
HETATM   28  C   UNL     1     -10.716   6.263  71.433  1.00  0.00    -0.297 A  
HETATM   29  C   UNL     1     -10.297   5.037  71.968  1.00  0.00    -0.213 A  
HETATM   30  I   UNL     1     -11.846   3.906  72.858  1.00  0.00     1.212 I  
HETATM   31  C   UNL     1      -8.939   4.676  71.947  1.00  0.00    -0.150 A  
HETATM   32  C   UNL     1      -8.461   3.425  72.605  1.00  0.00    -0.085 C  
HETATM   33  C   UNL     1      -8.014   5.572  71.346  1.00  0.00    -0.112 A  
HETATM   34  O   UNL     1      -7.499   3.390  73.351  1.00  0.00    -0.054 OA 
HETATM   35  I   UNL     1      -5.926   5.061  71.122  1.00  0.00    -0.019 I  
HETATM   36  O   UNL     1      -9.151   2.310  72.280  1.00  0.00    -0.072 OA 
ENDBRANCH  22  25
ENDBRANCH  20  21
ENDBRANCH  19  20
ENDBRANCH  18  19
ENDBRANCH  17  18
ENDBRANCH  15  17
ENDBRANCH   7  13
TORSDOF 7
ENDMDL
MODEL      270
REMARK 921   NORMALIZED FREE ENERGY PREDICTED BY IDOCK:    8.59 KCAL/MOL
REMARK 922        TOTAL FREE ENERGY PREDICTED BY IDOCK:   11.19 KCAL/MOL
REMARK 923 INTER-LIGAND FREE ENERGY PREDICTED BY IDOCK:   -2.42 KCAL/MOL
REMARK 924 INTRA-LIGAND FREE ENERGY PREDICTED BY IDOCK:   13.61 KCAL/MOL
REMARK 927      BINDING AFFINITY PREDICTED BY RF-SCORE:    0.00 PKD
ROOT
HETATM    1  O   UNL     1     -10.575   4.070  63.277  1.00  0.00    -0.191 OA 
HETATM    2  C   UNL     1     -10.724   4.277  64.604  1.00  0.00    -0.091 C  
HETATM    3  C   UNL     1      -9.447   4.380  65.361  1.00  0.00    -0.175 A  
HETATM    4  O   UNL     1     -11.820   4.420  65.116  1.00  0.00     0.464 OA 
HETATM    5  C   UNL     1      -9.230   5.446  66.276  1.00  0.00    -0.152 A  
HETATM    6  I   UNL     1     -10.650   7.062  66.473  1.00  0.00     0.813 I  
HETATM    7  C   UNL     1      -8.030   5.544  67.036  1.00  0.00    -0.102 A  
HETATM    8  I   UNL     1      -8.628   1.645  64.069  1.00  0.00    -0.085 I  
HETATM    9  C   UNL     1      -7.053   4.544  66.879  1.00  0.00    -0.068 A  
HETATM   10  C   UNL     1      -8.449   3.397  65.240  1.00  0.00    -0.100 A  
HETATM   11  C   UNL     1      -7.261   3.492  65.976  1.00  0.00    -0.068 A  
HETATM   12  I   UNL     1      -5.344   4.342  68.102  1.00  0.00    -0.013 I  
ENDROOT
BRANCH   7  13
HETATM   13  N   UNL     1      -7.905   6.604  67.984  1.00  0.00    -0.111 N  
HETATM   14  O   UNL     1     -10.136   6.682  68.616  1.00  0.00    -0.150 OA 
HETATM   15  C   UNL     1      -8.979   7.081  68.719  1.00  0.00    -0.131 C  
HETATM   16  H   UNL     1      -6.988   7.027  68.126  1.00  0.00     0.000 HD 
BRANCH  15  17
HETATM   17  C   UNL     1      -8.588   8.063  69.816  1.00  0.00    -0.131 C  
BRANCH  17  18
HETATM   18  C   UNL     1      -9.762   8.276  70.770  1.00  0.00    -0.197 C  
BRANCH  18  19
HETATM   19  C   UNL     1     -10.810   7.159  70.764  1.00  0.00    -0.267 C  
BRANCH  19  20
HETATM   20  C   UNL     1     -12.232   7.603  70.406  1.00  0.00     0.212 C  
BRANCH  20  21
HETATM   21  C   UNL     1     -12.269   9.100  70.118  1.00  0.00     0.473 C  
HETATM   22  N   UNL     1     -11.022   9.644  69.844  1.00  0.00    -0.243 N  
HETATM   23  O   UNL     1     -13.303   9.754  70.206  1.00  0.00     0.135 OA 
HETATM   24  H   UNL     1     -10.202   9.037  69.851  1.00  0.00     0.000 HD 
BRANCH  22  25
HETATM   25  C   UNL     1     -10.859  11.031  69.554  1.00  0.00    -0.216 A  
HETATM   26  C   UNL     1      -9.923  11.495  68.616  1.00  0.00    -0.199 A  
HETATM   27  I   UNL     1      -8.415  10.286  67.749  1.00  0.00    -0.113 I  
HETATM   28  C   UNL     1      -9.821  12.859  68.328  1.00  0.00    -0.228 A  
HETATM   29  C   UNL     1     -10.600  13.798  69.019  1.00  0.00    -0.139 A  
HETATM   30  I   UNL     1     -10.192  15.807  68.505  1.00  0.00    -0.245 I  
HETATM   31  C   UNL     1     -11.510  13.382  70.007  1.00  0.00    -0.126 A  
HETATM   32  C   UNL     1     -12.270  14.373  70.824  1.00  0.00    -0.343 C  
HETATM   33  C   UNL     1     -11.635  11.990  70.263  1.00  0.00    -0.046 A  
HETATM   34  O   UNL     1     -12.356  14.309  72.037  1.00  0.00    -0.298 OA 
HETATM   35  I   UNL     1     -13.103  11.222  71.650  1.00  0.00     0.002 I  
HETATM   36  O   UNL     1     -12.899  15.334  70.114  1.00  0.00    -0.287 OA 
ENDBRANCH  22  25
ENDBRANCH  20  21
ENDBRANCH  19  20
ENDBRANCH  18  19
ENDBRANCH  17  18
ENDBRANCH  15  17
ENDBRANCH   7  13
TORSDOF 7
ENDMDL
MODEL      271
REMARK 921   NORMALIZED FREE ENERGY PREDICTED BY IDOCK:    8.73 KCAL/MOL
REMARK 922        TOTAL FREE ENERGY PREDICTED BY IDOCK:   11.39 KCAL/MOL
REMARK 923 INTER-LIGAND FREE ENERGY PREDICTED BY IDOCK:    5.06 KCAL/MOL
REMARK 924 INTRA-LIGAND FREE ENERGY PREDICTED BY IDOCK:    6.32 KCAL/MOL
REMARK 927      BINDING AFFINITY PREDICTED BY RF-SCORE:    0.00 PKD
ROOT
HETATM    1  O   UNL     1     -10.073  18.484  68.689  1.00  0.00    -0.366 OA 
HETATM    2  C   UNL     1      -9.962  17.342  69.404  1.00  0.00    -0.019 C  
HETATM    3  C   UNL     1      -9.468  16.172  68.629  1.00  0.00    -0.227 A  
HETATM    4  O   UNL     1     -10.199  17.304  70.598  1.00  0.00     1.189 OA 
HETATM    5  C   UNL     1      -8.415  15.361  69.132  1.00  0.00    -0.241 A  
HETATM    6  I   UNL     1      -7.358  15.889  70.941  1.00  0.00     3.819 I  
HETATM    7  C   UNL     1      -7.951  14.216  68.423  1.00  0.00    -0.142 A  
HETATM    8  I   UNL     1     -11.749  16.761  66.562  1.00  0.00     2.594 I  
HETATM    9  C   UNL     1      -8.573  13.884  67.206  1.00  0.00    -0.211 A  
HETATM   10  C   UNL     1     -10.068  15.800  67.413  1.00  0.00    -0.246 A  
HETATM   11  C   UNL     1      -9.610  14.683  66.703  1.00  0.00    -0.294 A  
HETATM   12  I   UNL     1      -8.238  12.089  66.145  1.00  0.00     0.810 I  
ENDROOT
BRANCH   7  13
HETATM   13  N   UNL     1      -6.935  13.409  69.017  1.00  0.00    -0.169 N  
HETATM   14  O   UNL     1      -7.722  11.361  68.261  1.00  0.00    -0.109 OA 
HETATM   15  C   UNL     1      -6.892  12.031  68.871  1.00  0.00    -0.103 C  
HETATM   16  H   UNL     1      -6.209  13.865  69.571  1.00  0.00     0.000 HD 
BRANCH  15  17
HETATM   17  C   UNL     1      -5.616  11.393  69.405  1.00  0.00    -0.051 C  
BRANCH  17  18
HETATM   18  C   UNL     1      -5.126  10.317  68.439  1.00  0.00    -0.035 C  
BRANCH  18  19
HETATM   19  C   UNL     1      -6.216   9.686  67.567  1.00  0.00    -0.056 C  
BRANCH  19  20
HETATM   20  C   UNL     1      -7.426   9.139  68.332  1.00  0.00    -0.082 C  
BRANCH  20  21
HETATM   21  C   UNL     1      -7.662   7.673  67.985  1.00  0.00    -0.119 C  
HETATM   22  N   UNL     1      -7.992   7.465  66.653  1.00  0.00    -0.118 N  
HETATM   23  O   UNL     1      -7.635   6.791  68.836  1.00  0.00    -0.100 OA 
HETATM   24  H   UNL     1      -8.051   8.265  66.024  1.00  0.00     0.000 HD 
BRANCH  22  25
HETATM   25  C   UNL     1      -8.251   6.158  66.144  1.00  0.00    -0.119 A  
HETATM   26  C   UNL     1      -9.521   5.563  66.218  1.00  0.00    -0.157 A  
HETATM   27  I   UNL     1     -11.129   6.341  67.357  1.00  0.00     0.239 I  
HETATM   28  C   UNL     1      -9.746   4.296  65.672  1.00  0.00    -0.207 A  
HETATM   29  C   UNL     1      -8.695   3.564  65.102  1.00  0.00    -0.118 A  
HETATM   30  I   UNL     1      -9.242   1.629  64.450  1.00  0.00    -0.091 I  
HETATM   31  C   UNL     1      -7.395   4.097  65.057  1.00  0.00    -0.072 A  
HETATM   32  C   UNL     1      -6.245   3.292  64.550  1.00  0.00    -0.023 C  
HETATM   33  C   UNL     1      -7.186   5.402  65.579  1.00  0.00    -0.068 A  
HETATM   34  O   UNL     1      -5.184   3.200  65.141  1.00  0.00    -0.008 OA 
HETATM   35  I   UNL     1      -5.267   6.385  65.433  1.00  0.00    -0.014 I  
HETATM   36  O   UNL     1      -6.449   2.698  63.355  1.00  0.00    -0.021 OA 
ENDBRANCH  22  25
ENDBRANCH  20  21
ENDBRANCH  19  20
ENDBRANCH  18  19
ENDBRANCH  17  18
ENDBRANCH  15  17
ENDBRANCH   7  13
TORSDOF 7
ENDMDL
MODEL      272
REMARK 921   NORMALIZED FREE ENERGY PREDICTED BY IDOCK:    8.77 KCAL/MOL
REMARK 922        TOTAL FREE ENERGY PREDICTED BY IDOCK:   11.44 KCAL/MOL
REMARK 923 INTER-LIGAND FREE ENERGY PREDICTED BY IDOCK:   -1.17 KCAL/MOL
REMARK 924 INTRA-LIGAND FREE ENERGY PREDICTED BY IDOCK:   12.61 KCAL/MOL
REMARK 927      BINDING AFFINITY PREDICTED BY RF-SCORE:    0.00 PKD
ROOT
HETATM    1  O   UNL     1      -7.095  16.234  67.320  1.00  0.00    -0.153 OA 
HETATM    2  C   UNL     1      -7.086  15.075  68.014  1.00  0.00    -0.132 C  
HETATM    3  C   UNL     1      -7.998  14.028  67.481  1.00  0.00    -0.199 A  
HETATM    4  O   UNL     1      -6.346  14.899  68.965  1.00  0.00    -0.094 OA 
HETATM    5  C   UNL     1      -7.536  12.699  67.277  1.00  0.00    -0.120 A  
HETATM    6  I   UNL     1      -5.456  12.180  67.549  1.00  0.00    -0.101 I  
HETATM    7  C   UNL     1      -8.401  11.673  66.802  1.00  0.00    -0.171 A  
HETATM    8  I   UNL     1     -10.290  16.160  67.610  1.00  0.00    -0.299 I  
HETATM    9  C   UNL     1      -9.746  11.994  66.548  1.00  0.00    -0.216 A  
HETATM   10  C   UNL     1      -9.352  14.305  67.224  1.00  0.00    -0.213 A  
HETATM   11  C   UNL     1     -10.207  13.304  66.744  1.00  0.00    -0.254 A  
HETATM   12  I   UNL     1     -11.251  10.578  66.114  1.00  0.00     1.298 I  
ENDROOT
BRANCH   7  13
HETATM   13  N   UNL     1      -7.887  10.346  66.681  1.00  0.00    -0.116 N  
HETATM   14  O   UNL     1      -9.761   9.408  65.683  1.00  0.00    -0.278 OA 
HETATM   15  C   UNL     1      -8.612   9.313  66.108  1.00  0.00    -0.134 C  
HETATM   16  H   UNL     1      -6.949  10.151  67.030  1.00  0.00     0.000 HD 
BRANCH  15  17
HETATM   17  C   UNL     1      -7.804   8.040  65.890  1.00  0.00    -0.099 C  
BRANCH  17  18
HETATM   18  C   UNL     1      -6.361   8.390  65.536  1.00  0.00    -0.048 C  
BRANCH  18  19
HETATM   19  C   UNL     1      -5.302   7.765  66.451  1.00  0.00    -0.025 C  
BRANCH  19  20
HETATM   20  C   UNL     1      -5.714   6.449  67.118  1.00  0.00    -0.013 C  
BRANCH  20  21
HETATM   21  C   UNL     1      -6.606   6.716  68.326  1.00  0.00    -0.059 C  
HETATM   22  N   UNL     1      -7.958   6.546  68.065  1.00  0.00    -0.108 N  
HETATM   23  O   UNL     1      -6.153   7.118  69.392  1.00  0.00    -0.028 OA 
HETATM   24  H   UNL     1      -8.253   6.267  67.130  1.00  0.00     0.000 HD 
BRANCH  22  25
HETATM   25  C   UNL     1      -8.945   6.754  69.074  1.00  0.00    -0.131 A  
HETATM   26  C   UNL     1     -10.279   6.350  68.911  1.00  0.00    -0.184 A  
HETATM   27  I   UNL     1     -11.102   5.688  67.074  1.00  0.00     0.981 I  
HETATM   28  C   UNL     1     -11.209   6.534  69.939  1.00  0.00    -0.456 A  
HETATM   29  C   UNL     1     -10.847   7.189  71.124  1.00  0.00    -0.239 A  
HETATM   30  I   UNL     1     -12.442   7.462  72.485  1.00  0.00     0.498 I  
HETATM   31  C   UNL     1      -9.535   7.661  71.307  1.00  0.00    -0.166 A  
HETATM   32  C   UNL     1      -9.159   8.451  72.516  1.00  0.00    -0.256 C  
HETATM   33  C   UNL     1      -8.588   7.433  70.273  1.00  0.00    -0.145 A  
HETATM   34  O   UNL     1      -8.534   9.495  72.462  1.00  0.00     0.816 OA 
HETATM   35  I   UNL     1      -6.510   7.980  70.500  1.00  0.00    -0.037 I  
HETATM   36  O   UNL     1      -9.528   7.902  73.693  1.00  0.00    -0.286 OA 
ENDBRANCH  22  25
ENDBRANCH  20  21
ENDBRANCH  19  20
ENDBRANCH  18  19
ENDBRANCH  17  18
ENDBRANCH  15  17
ENDBRANCH   7  13
TORSDOF 7
ENDMDL
MODEL      273
REMARK 921   NORMALIZED FREE ENERGY PREDICTED BY IDOCK:    9.50 KCAL/MOL
REMARK 922        TOTAL FREE ENERGY PREDICTED BY IDOCK:   12.46 KCAL/MOL
REMARK 923 INTER-LIGAND FREE ENERGY PREDICTED BY IDOCK:    9.10 KCAL/MOL
REMARK 924 INTRA-LIGAND FREE ENERGY PREDICTED BY IDOCK:    3.37 KCAL/MOL
REMARK 927      BINDING AFFINITY PREDICTED BY RF-SCORE:    0.00 PKD
ROOT
HETATM    1  O   UNL     1     -10.067  18.475  68.681  1.00  0.00    -0.366 OA 
HETATM    2  C   UNL     1      -9.897  17.335  69.386  1.00  0.00     0.024 C  
HETATM    3  C   UNL     1      -9.399  16.182  68.589  1.00  0.00    -0.222 A  
HETATM    4  O   UNL     1     -10.090  17.286  70.588  1.00  0.00     1.437 OA 
HETATM    5  C   UNL     1      -8.306  15.400  69.049  1.00  0.00    -0.223 A  
HETATM    6  I   UNL     1      -7.199  15.952  70.821  1.00  0.00     3.123 I  
HETATM    7  C   UNL     1      -7.835  14.271  68.320  1.00  0.00    -0.141 A  
HETATM    8  I   UNL     1     -11.769  16.712  66.608  1.00  0.00     2.334 I  
HETATM    9  C   UNL     1      -8.490  13.926  67.124  1.00  0.00    -0.180 A  
HETATM   10  C   UNL     1     -10.031  15.798  67.393  1.00  0.00    -0.237 A  
HETATM   11  C   UNL     1      -9.567  14.696  66.663  1.00  0.00    -0.294 A  
HETATM   12  I   UNL     1      -8.143  12.145  66.044  1.00  0.00     1.350 I  
ENDROOT
BRANCH   7  13
HETATM   13  N   UNL     1      -6.775  13.492  68.873  1.00  0.00    -0.105 N  
HETATM   14  O   UNL     1      -8.053  11.641  69.444  1.00  0.00     0.212 OA 
HETATM   15  C   UNL     1      -6.969  12.217  69.380  1.00  0.00     0.043 C  
HETATM   16  H   UNL     1      -5.836  13.890  68.895  1.00  0.00     0.000 HD 
BRANCH  15  17
HETATM   17  C   UNL     1      -5.678  11.487  69.725  1.00  0.00    -0.092 C  
BRANCH  17  18
HETATM   18  C   UNL     1      -5.775  10.023  69.302  1.00  0.00    -0.037 C  
BRANCH  18  19
HETATM   19  C   UNL     1      -7.198   9.454  69.264  1.00  0.00    -0.066 C  
BRANCH  19  20
HETATM   20  C   UNL     1      -8.075   9.818  70.467  1.00  0.00    -0.046 C  
BRANCH  20  21
HETATM   21  C   UNL     1      -8.602   8.558  71.146  1.00  0.00    -0.169 C  
HETATM   22  N   UNL     1      -9.437   7.800  70.338  1.00  0.00    -0.164 N  
HETATM   23  O   UNL     1      -8.361   8.304  72.321  1.00  0.00    -0.143 OA 
HETATM   24  H   UNL     1      -9.633   8.117  69.389  1.00  0.00     0.000 HD 
BRANCH  22  25
HETATM   25  C   UNL     1     -10.027   6.587  70.803  1.00  0.00    -0.184 A  
HETATM   26  C   UNL     1     -11.238   6.569  71.514  1.00  0.00    -0.276 A  
HETATM   27  I   UNL     1     -12.191   8.299  72.279  1.00  0.00    -0.298 I  
HETATM   28  C   UNL     1     -11.806   5.357  71.919  1.00  0.00     0.405 A  
HETATM   29  C   UNL     1     -11.146   4.143  71.687  1.00  0.00     1.106 A  
HETATM   30  I   UNL     1     -12.131   2.454  72.491  1.00  0.00     2.980 I  
HETATM   31  C   UNL     1      -9.903   4.119  71.029  1.00  0.00    -0.247 A  
HETATM   32  C   UNL     1      -9.137   2.849  70.867  1.00  0.00    -0.114 C  
HETATM   33  C   UNL     1      -9.354   5.353  70.586  1.00  0.00    -0.162 A  
HETATM   34  O   UNL     1      -7.952   2.747  71.128  1.00  0.00    -0.052 OA 
HETATM   35  I   UNL     1      -7.526   5.429  69.436  1.00  0.00    -0.071 I  
HETATM   36  O   UNL     1      -9.848   1.816  70.365  1.00  0.00    -0.030 OA 
ENDBRANCH  22  25
ENDBRANCH  20  21
ENDBRANCH  19  20
ENDBRANCH  18  19
ENDBRANCH  17  18
ENDBRANCH  15  17
ENDBRANCH   7  13
TORSDOF 7
ENDMDL
MODEL      274
REMARK 921   NORMALIZED FREE ENERGY PREDICTED BY IDOCK:   10.35 KCAL/MOL
REMARK 922        TOTAL FREE ENERGY PREDICTED BY IDOCK:   13.67 KCAL/MOL
REMARK 923 INTER-LIGAND FREE ENERGY PREDICTED BY IDOCK:    9.19 KCAL/MOL
REMARK 924 INTRA-LIGAND FREE ENERGY PREDICTED BY IDOCK:    4.49 KCAL/MOL
REMARK 927      BINDING AFFINITY PREDICTED BY RF-SCORE:    0.00 PKD
ROOT
HETATM    1  O   UNL     1     -14.323   8.901  71.131  1.00  0.00    -0.226 OA 
HETATM    2  C   UNL     1     -13.355   9.521  71.842  1.00  0.00    -0.437 C  
HETATM    3  C   UNL     1     -12.107   8.730  72.009  1.00  0.00    -0.447 A  
HETATM    4  O   UNL     1     -13.490  10.657  72.259  1.00  0.00    -0.333 OA 
HETATM    5  C   UNL     1     -10.838   9.313  71.747  1.00  0.00    -0.288 A  
HETATM    6  I   UNL     1     -10.666  11.301  70.917  1.00  0.00     4.065 I  
HETATM    7  C   UNL     1      -9.628   8.585  71.934  1.00  0.00    -0.283 A  
HETATM    8  I   UNL     1     -13.899   6.401  73.099  1.00  0.00     4.560 I  
HETATM    9  C   UNL     1      -9.709   7.263  72.407  1.00  0.00    -0.154 A  
HETATM   10  C   UNL     1     -12.142   7.409  72.489  1.00  0.00    -0.073 A  
HETATM   11  C   UNL     1     -10.958   6.682  72.665  1.00  0.00    -0.288 A  
HETATM   12  I   UNL     1      -8.048   6.112  73.020  1.00  0.00    -0.109 I  
ENDROOT
BRANCH   7  13
HETATM   13  N   UNL     1      -8.386   9.253  71.713  1.00  0.00     0.333 N  
HETATM   14  O   UNL     1      -7.206   8.229  73.429  1.00  0.00    -0.129 OA 
HETATM   15  C   UNL     1      -7.256   9.004  72.477  1.00  0.00     0.385 C  
HETATM   16  H   UNL     1      -8.327   9.941  70.962  1.00  0.00     0.000 HD 
BRANCH  15  17
HETATM   17  C   UNL     1      -5.992   9.664  71.943  1.00  0.00     0.139 C  
BRANCH  17  18
HETATM   18  C   UNL     1      -6.357  10.845  71.047  1.00  0.00     0.516 C  
BRANCH  18  19
HETATM   19  C   UNL     1      -5.167  11.539  70.376  1.00  0.00    -0.105 C  
BRANCH  19  20
HETATM   20  C   UNL     1      -5.375  11.908  68.903  1.00  0.00    -0.050 C  
BRANCH  20  21
HETATM   21  C   UNL     1      -6.061  10.768  68.157  1.00  0.00    -0.050 C  
HETATM   22  N   UNL     1      -6.777   9.915  68.985  1.00  0.00    -0.052 N  
HETATM   23  O   UNL     1      -5.913  10.598  66.952  1.00  0.00    -0.055 OA 
HETATM   24  H   UNL     1      -6.797  10.096  69.988  1.00  0.00     0.000 HD 
BRANCH  22  25
HETATM   25  C   UNL     1      -7.483   8.790  68.466  1.00  0.00    -0.089 A  
HETATM   26  C   UNL     1      -7.064   7.470  68.698  1.00  0.00    -0.081 A  
HETATM   27  I   UNL     1      -5.193   6.952  69.545  1.00  0.00    -0.015 I  
HETATM   28  C   UNL     1      -7.805   6.391  68.206  1.00  0.00    -0.105 A  
HETATM   29  C   UNL     1      -8.942   6.605  67.413  1.00  0.00    -0.114 A  
HETATM   30  I   UNL     1      -9.832   4.832  66.682  1.00  0.00    -0.282 I  
HETATM   31  C   UNL     1      -9.365   7.910  67.109  1.00  0.00    -0.190 A  
HETATM   32  C   UNL     1     -10.509   8.156  66.182  1.00  0.00     0.808 C  
HETATM   33  C   UNL     1      -8.628   8.999  67.647  1.00  0.00    -0.120 A  
HETATM   34  O   UNL     1     -10.462   8.955  65.263  1.00  0.00     1.289 OA 
HETATM   35  I   UNL     1      -9.267  11.045  67.371  1.00  0.00    -0.171 I  
HETATM   36  O   UNL     1     -11.628   7.453  66.459  1.00  0.00     1.335 OA 
ENDBRANCH  22  25
ENDBRANCH  20  21
ENDBRANCH  19  20
ENDBRANCH  18  19
ENDBRANCH  17  18
ENDBRANCH  15  17
ENDBRANCH   7  13
TORSDOF 7
ENDMDL
MODEL      275
REMARK 921   NORMALIZED FREE ENERGY PREDICTED BY IDOCK:   11.84 KCAL/MOL
REMARK 922        TOTAL FREE ENERGY PREDICTED BY IDOCK:   15.77 KCAL/MOL
REMARK 923 INTER-LIGAND FREE ENERGY PREDICTED BY IDOCK:    2.53 KCAL/MOL
REMARK 924 INTRA-LIGAND FREE ENERGY PREDICTED BY IDOCK:   13.24 KCAL/MOL
REMARK 927      BINDING AFFINITY PREDICTED BY RF-SCORE:    0.00 PKD
ROOT
HETATM    1  O   UNL     1      -7.904  13.184  66.056  1.00  0.00     1.480 OA 
HETATM    2  C   UNL     1      -8.540  12.908  67.216  1.00  0.00    -0.205 C  
HETATM    3  C   UNL     1      -8.995  11.499  67.353  1.00  0.00    -0.156 A  
HETATM    4  O   UNL     1      -8.675  13.744  68.091  1.00  0.00    -0.170 OA 
HETATM    5  C   UNL     1      -8.722  10.760  68.536  1.00  0.00    -0.149 A  
HETATM    6  I   UNL     1      -7.482  11.575  70.107  1.00  0.00     2.643 I  
HETATM    7  C   UNL     1      -9.179   9.422  68.703  1.00  0.00    -0.131 A  
HETATM    8  I   UNL     1     -10.417  11.839  64.581  1.00  0.00    -0.419 I  
HETATM    9  C   UNL     1      -9.930   8.836  67.667  1.00  0.00    -0.193 A  
HETATM   10  C   UNL     1      -9.757  10.879  66.346  1.00  0.00    -0.201 A  
HETATM   11  C   UNL     1     -10.199   9.559  66.497  1.00  0.00    -0.307 A  
HETATM   12  I   UNL     1     -10.935   6.986  67.821  1.00  0.00     0.005 I  
ENDROOT
BRANCH   7  13
HETATM   13  N   UNL     1      -8.925   8.761  69.942  1.00  0.00    -0.147 N  
HETATM   14  O   UNL     1     -11.108   8.090  70.356  1.00  0.00    -0.250 OA 
HETATM   15  C   UNL     1      -9.921   8.125  70.669  1.00  0.00    -0.189 C  
HETATM   16  H   UNL     1      -7.973   8.756  70.308  1.00  0.00     0.000 HD 
BRANCH  15  17
HETATM   17  C   UNL     1      -9.401   7.310  71.845  1.00  0.00    -0.152 C  
BRANCH  17  18
HETATM   18  C   UNL     1      -9.620   8.074  73.149  1.00  0.00    -0.344 C  
BRANCH  18  19
HETATM   19  C   UNL     1     -10.273   7.261  74.272  1.00  0.00     0.123 C  
BRANCH  19  20
HETATM   20  C   UNL     1     -11.014   6.000  73.816  1.00  0.00     0.029 C  
BRANCH  20  21
HETATM   21  C   UNL     1     -10.246   5.303  72.697  1.00  0.00    -0.184 C  
HETATM   22  N   UNL     1      -9.069   4.703  73.122  1.00  0.00    -0.116 N  
HETATM   23  O   UNL     1     -10.613   5.352  71.528  1.00  0.00    -0.233 OA 
HETATM   24  H   UNL     1      -8.808   4.762  74.106  1.00  0.00     0.000 HD 
BRANCH  22  25
HETATM   25  C   UNL     1      -8.217   4.005  72.215  1.00  0.00    -0.097 A  
HETATM   26  C   UNL     1      -6.923   3.593  72.571  1.00  0.00    -0.043 A  
HETATM   27  I   UNL     1      -5.926   4.207  74.336  1.00  0.00    -0.031 I  
HETATM   28  C   UNL     1      -6.132   2.876  71.668  1.00  0.00    -0.014 A  
HETATM   29  C   UNL     1      -6.586   2.614  70.368  1.00  0.00    -0.032 A  
HETATM   30  I   UNL     1      -5.177   1.623  69.142  1.00  0.00    -0.013 I  
HETATM   31  C   UNL     1      -7.853   3.058  69.951  1.00  0.00    -0.048 A  
HETATM   32  C   UNL     1      -8.309   2.881  68.541  1.00  0.00    -0.065 C  
HETATM   33  C   UNL     1      -8.664   3.751  70.889  1.00  0.00    -0.074 A  
HETATM   34  O   UNL     1      -8.808   3.778  67.884  1.00  0.00    -0.099 OA 
HETATM   35  I   UNL     1     -10.685   4.351  70.411  1.00  0.00     2.368 I  
HETATM   36  O   UNL     1      -8.168   1.631  68.049  1.00  0.00    -0.057 OA 
ENDBRANCH  22  25
ENDBRANCH  20  21
ENDBRANCH  19  20
ENDBRANCH  18  19
ENDBRANCH  17  18
ENDBRANCH  15  17
ENDBRANCH   7  13
TORSDOF 7
ENDMDL
MODEL      276
REMARK 921   NORMALIZED FREE ENERGY PREDICTED BY IDOCK:   12.11 KCAL/MOL
REMARK 922        TOTAL FREE ENERGY PREDICTED BY IDOCK:   16.15 KCAL/MOL
REMARK 923 INTER-LIGAND FREE ENERGY PREDICTED BY IDOCK:    6.64 KCAL/MOL
REMARK 924 INTRA-LIGAND FREE ENERGY PREDICTED BY IDOCK:    9.51 KCAL/MOL
REMARK 927      BINDING AFFINITY PREDICTED BY RF-SCORE:    0.00 PKD
ROOT
HETATM    1  O   UNL     1     -10.806  15.119  64.183  1.00  0.00     0.137 OA 
HETATM    2  C   UNL     1     -10.436  14.498  65.325  1.00  0.00    -0.390 C  
HETATM    3  C   UNL     1     -10.029  13.078  65.154  1.00  0.00    -0.170 A  
HETATM    4  O   UNL     1     -10.392  15.084  66.392  1.00  0.00    -0.271 OA 
HETATM    5  C   UNL     1      -8.822  12.594  65.728  1.00  0.00     0.573 A  
HETATM    6  I   UNL     1      -7.433  13.927  66.708  1.00  0.00     2.000 I  
HETATM    7  C   UNL     1      -8.432  11.230  65.606  1.00  0.00     0.022 A  
HETATM    8  I   UNL     1     -12.762  12.622  63.689  1.00  0.00     0.110 I  
HETATM    9  C   UNL     1      -9.281  10.349  64.912  1.00  0.00    -0.221 A  
HETATM   10  C   UNL     1     -10.854  12.162  64.476  1.00  0.00    -0.312 A  
HETATM   11  C   UNL     1     -10.472  10.821  64.342  1.00  0.00    -0.344 A  
HETATM   12  I   UNL     1      -9.039   8.252  64.858  1.00  0.00     1.002 I  
ENDROOT
BRANCH   7  13
HETATM   13  N   UNL     1      -7.240  10.798  66.262  1.00  0.00    -0.136 N  
HETATM   14  O   UNL     1      -6.201  12.871  66.352  1.00  0.00     0.908 OA 
HETATM   15  C   UNL     1      -6.216  11.668  66.602  1.00  0.00    -0.079 C  
HETATM   16  H   UNL     1      -7.138   9.809  66.490  1.00  0.00     0.000 HD 
BRANCH  15  17
HETATM   17  C   UNL     1      -5.138  11.041  67.476  1.00  0.00    -0.038 C  
BRANCH  17  18
HETATM   18  C   UNL     1      -5.229   9.518  67.407  1.00  0.00    -0.036 C  
BRANCH  18  19
HETATM   19  C   UNL     1      -6.564   8.929  67.874  1.00  0.00    -0.061 C  
BRANCH  19  20
HETATM   20  C   UNL     1      -6.760   8.887  69.393  1.00  0.00    -0.048 C  
BRANCH  20  21
HETATM   21  C   UNL     1      -7.843   9.872  69.821  1.00  0.00    -0.163 C  
HETATM   22  N   UNL     1      -8.252  10.723  68.805  1.00  0.00    -0.138 N  
HETATM   23  O   UNL     1      -8.240   9.939  70.980  1.00  0.00    -0.055 OA 
HETATM   24  H   UNL     1      -7.824  10.639  67.883  1.00  0.00     0.000 HD 
BRANCH  22  25
HETATM   25  C   UNL     1      -9.255  11.714  69.019  1.00  0.00     0.187 A  
HETATM   26  C   UNL     1     -10.622  11.444  68.850  1.00  0.00    -0.202 A  
HETATM   27  I   UNL     1     -11.380   9.678  67.956  1.00  0.00     1.211 I  
HETATM   28  C   UNL     1     -11.580  12.429  69.109  1.00  0.00    -0.369 A  
HETATM   29  C   UNL     1     -11.193  13.726  69.474  1.00  0.00    -0.165 A  
HETATM   30  I   UNL     1     -12.802  15.079  69.697  1.00  0.00     0.780 I  
HETATM   31  C   UNL     1      -9.833  14.057  69.600  1.00  0.00     0.681 A  
HETATM   32  C   UNL     1      -9.399  15.456  69.885  1.00  0.00     0.008 C  
HETATM   33  C   UNL     1      -8.869  13.037  69.374  1.00  0.00     1.255 A  
HETATM   34  O   UNL     1      -8.521  16.022  69.259  1.00  0.00    -0.251 OA 
HETATM   35  I   UNL     1      -6.759  13.385  69.682  1.00  0.00     0.346 I  
HETATM   36  O   UNL     1     -10.028  16.046  70.925  1.00  0.00     0.866 OA 
ENDBRANCH  22  25
ENDBRANCH  20  21
ENDBRANCH  19  20
ENDBRANCH  18  19
ENDBRANCH  17  18
ENDBRANCH  15  17
ENDBRANCH   7  13
TORSDOF 7
ENDMDL
MODEL      277
REMARK 921   NORMALIZED FREE ENERGY PREDICTED BY IDOCK:   12.42 KCAL/MOL
REMARK 922        TOTAL FREE ENERGY PREDICTED BY IDOCK:   16.58 KCAL/MOL
REMARK 923 INTER-LIGAND FREE ENERGY PREDICTED BY IDOCK:    2.02 KCAL/MOL
REMARK 924 INTRA-LIGAND FREE ENERGY PREDICTED BY IDOCK:   14.55 KCAL/MOL
REMARK 927      BINDING AFFINITY PREDICTED BY RF-SCORE:    0.00 PKD
ROOT
HETATM    1  O   UNL     1      -7.338  11.551  65.841  1.00  0.00     0.203 OA 
HETATM    2  C   UNL     1      -8.680  11.416  65.916  1.00  0.00    -0.101 C  
HETATM    3  C   UNL     1      -9.180  10.923  67.227  1.00  0.00    -0.160 A  
HETATM    4  O   UNL     1      -9.412  11.729  64.994  1.00  0.00    -0.182 OA 
HETATM    5  C   UNL     1     -10.254  11.580  67.888  1.00  0.00    -0.184 A  
HETATM    6  I   UNL     1     -11.083  13.422  67.122  1.00  0.00    -0.357 I  
HETATM    7  C   UNL     1     -10.772  11.104  69.126  1.00  0.00    -0.221 A  
HETATM    8  I   UNL     1      -7.168   8.539  66.936  1.00  0.00    -0.075 I  
HETATM    9  C   UNL     1     -10.206   9.945  69.688  1.00  0.00    -0.237 A  
HETATM   10  C   UNL     1      -8.650   9.763  67.818  1.00  0.00    -0.125 A  
HETATM   11  C   UNL     1      -9.145   9.295  69.042  1.00  0.00    -0.147 A  
HETATM   12  I   UNL     1     -10.999   8.916  71.352  1.00  0.00    -0.462 I  
ENDROOT
BRANCH   7  13
HETATM   13  N   UNL     1     -11.893  11.773  69.702  1.00  0.00    -0.324 N  
HETATM   14  O   UNL     1     -11.712  10.852  71.824  1.00  0.00     0.430 OA 
HETATM   15  C   UNL     1     -12.266  11.604  71.027  1.00  0.00    -0.231 C  
HETATM   16  H   UNL     1     -12.441  12.402  69.116  1.00  0.00     0.000 HD 
BRANCH  15  17
HETATM   17  C   UNL     1     -13.353  12.565  71.489  1.00  0.00    -0.180 C  
BRANCH  17  18
HETATM   18  C   UNL     1     -13.245  13.884  70.727  1.00  0.00    -0.130 C  
BRANCH  18  19
HETATM   19  C   UNL     1     -11.839  14.490  70.682  1.00  0.00    -0.367 C  
BRANCH  19  20
HETATM   20  C   UNL     1     -10.962  14.016  69.518  1.00  0.00    -0.138 C  
BRANCH  20  21
HETATM   21  C   UNL     1      -9.945  15.088  69.142  1.00  0.00    -0.237 C  
HETATM   22  N   UNL     1     -10.503  16.178  68.488  1.00  0.00    -0.256 N  
HETATM   23  O   UNL     1      -8.743  14.941  69.337  1.00  0.00    -0.150 OA 
HETATM   24  H   UNL     1     -11.507  16.191  68.312  1.00  0.00     0.000 HD 
BRANCH  22  25
HETATM   25  C   UNL     1      -9.705  17.279  68.057  1.00  0.00    -0.277 A  
HETATM   26  C   UNL     1      -9.948  17.952  66.849  1.00  0.00    -0.335 A  
HETATM   27  I   UNL     1     -11.282  17.261  65.355  1.00  0.00     1.661 I  
HETATM   28  C   UNL     1      -9.169  19.052  66.479  1.00  0.00    -0.357 A  
HETATM   29  C   UNL     1      -8.088  19.464  67.270  1.00  0.00    -0.269 A  
HETATM   30  I   UNL     1      -6.981  21.071  66.456  1.00  0.00     0.195 I  
HETATM   31  C   UNL     1      -7.773  18.783  68.460  1.00  0.00    -0.357 A  
HETATM   32  C   UNL     1      -6.565  19.140  69.259  1.00  0.00    -0.306 C  
HETATM   33  C   UNL     1      -8.596  17.691  68.846  1.00  0.00    -0.118 A  
HETATM   34  O   UNL     1      -5.771  18.314  69.672  1.00  0.00    -0.214 OA 
HETATM   35  I   UNL     1      -8.302  16.663  70.725  1.00  0.00     6.309 I  
HETATM   36  O   UNL     1      -6.431  20.456  69.532  1.00  0.00    -0.279 OA 
ENDBRANCH  22  25
ENDBRANCH  20  21
ENDBRANCH  19  20
ENDBRANCH  18  19
ENDBRANCH  17  18
ENDBRANCH  15  17
ENDBRANCH   7  13
TORSDOF 7
ENDMDL
MODEL      278
REMARK 921   NORMALIZED FREE ENERGY PREDICTED BY IDOCK:   12.56 KCAL/MOL
REMARK 922        TOTAL FREE ENERGY PREDICTED BY IDOCK:   16.77 KCAL/MOL
REMARK 923 INTER-LIGAND FREE ENERGY PREDICTED BY IDOCK:   15.90 KCAL/MOL
REMARK 924 INTRA-LIGAND FREE ENERGY PREDICTED BY IDOCK:    0.87 KCAL/MOL
REMARK 927      BINDING AFFINITY PREDICTED BY RF-SCORE:    0.00 PKD
ROOT
HETATM    1  O   UNL     1     -11.697  18.439  72.462  1.00  0.00     2.972 OA 
HETATM    2  C   UNL     1     -10.731  17.499  72.373  1.00  0.00     3.495 C  
HETATM    3  C   UNL     1     -11.135  16.261  71.653  1.00  0.00     0.248 A  
HETATM    4  O   UNL     1      -9.607  17.686  72.804  1.00  0.00     9.286 OA 
HETATM    5  C   UNL     1     -10.312  15.713  70.632  1.00  0.00     0.149 A  
HETATM    6  I   UNL     1      -8.539  16.742  69.948  1.00  0.00     2.359 I  
HETATM    7  C   UNL     1     -10.663  14.510  69.956  1.00  0.00     0.075 A  
HETATM    8  I   UNL     1     -13.591  16.108  73.594  1.00  0.00     1.458 I  
HETATM    9  C   UNL     1     -11.848  13.853  70.330  1.00  0.00    -0.290 A  
HETATM   10  C   UNL     1     -12.307  15.568  72.002  1.00  0.00    -0.399 A  
HETATM   11  C   UNL     1     -12.666  14.390  71.334  1.00  0.00    -0.413 A  
HETATM   12  I   UNL     1     -12.407  11.929  69.663  1.00  0.00     0.255 I  
ENDROOT
BRANCH   7  13
HETATM   13  N   UNL     1      -9.758  13.982  68.987  1.00  0.00    -0.416 N  
HETATM   14  O   UNL     1     -11.310  13.676  67.289  1.00  0.00    -0.298 OA 
HETATM   15  C   UNL     1     -10.158  13.619  67.709  1.00  0.00    -0.242 C  
HETATM   16  H   UNL     1      -8.778  13.866  69.244  1.00  0.00     0.000 HD 
BRANCH  15  17
HETATM   17  C   UNL     1      -9.004  13.279  66.775  1.00  0.00    -0.183 C  
BRANCH  17  18
HETATM   18  C   UNL     1      -7.750  12.960  67.587  1.00  0.00    -0.162 C  
BRANCH  18  19
HETATM   19  C   UNL     1      -6.898  11.812  67.034  1.00  0.00    -0.137 C  
BRANCH  19  20
HETATM   20  C   UNL     1      -7.680  10.557  66.632  1.00  0.00    -0.123 C  
BRANCH  20  21
HETATM   21  C   UNL     1      -8.001   9.710  67.859  1.00  0.00    -0.098 C  
HETATM   22  N   UNL     1      -7.691   8.367  67.702  1.00  0.00    -0.098 N  
HETATM   23  O   UNL     1      -8.555  10.180  68.846  1.00  0.00    -0.123 OA 
HETATM   24  H   UNL     1      -7.287   8.049  66.821  1.00  0.00     0.000 HD 
BRANCH  22  25
HETATM   25  C   UNL     1      -7.924   7.420  68.743  1.00  0.00    -0.123 A  
HETATM   26  C   UNL     1      -8.896   6.413  68.636  1.00  0.00    -0.120 A  
HETATM   27  I   UNL     1     -10.358   6.335  67.105  1.00  0.00    -0.412 I  
HETATM   28  C   UNL     1      -9.068   5.478  69.661  1.00  0.00    -0.152 A  
HETATM   29  C   UNL     1      -8.324   5.568  70.846  1.00  0.00    -0.120 A  
HETATM   30  I   UNL     1      -8.836   4.124  72.302  1.00  0.00    -0.149 I  
HETATM   31  C   UNL     1      -7.379   6.595  71.020  1.00  0.00    -0.079 A  
HETATM   32  C   UNL     1      -6.655   6.770  72.312  1.00  0.00    -0.058 C  
HETATM   33  C   UNL     1      -7.184   7.516  69.955  1.00  0.00    -0.069 A  
HETATM   34  O   UNL     1      -6.547   7.844  72.876  1.00  0.00    -0.064 OA 
HETATM   35  I   UNL     1      -5.659   9.045  70.046  1.00  0.00    -0.028 I  
HETATM   36  O   UNL     1      -6.084   5.647  72.801  1.00  0.00    -0.041 OA 
ENDBRANCH  22  25
ENDBRANCH  20  21
ENDBRANCH  19  20
ENDBRANCH  18  19
ENDBRANCH  17  18
ENDBRANCH  15  17
ENDBRANCH   7  13
TORSDOF 7
ENDMDL
MODEL      279
REMARK 921   NORMALIZED FREE ENERGY PREDICTED BY IDOCK:   12.88 KCAL/MOL
REMARK 922        TOTAL FREE ENERGY PREDICTED BY IDOCK:   17.23 KCAL/MOL
REMARK 923 INTER-LIGAND FREE ENERGY PREDICTED BY IDOCK:   17.81 KCAL/MOL
REMARK 924 INTRA-LIGAND FREE ENERGY PREDICTED BY IDOCK:   -0.58 KCAL/MOL
REMARK 927      BINDING AFFINITY PREDICTED BY RF-SCORE:    0.00 PKD
ROOT
HETATM    1  O   UNL     1      -7.999  16.289  70.031  1.00  0.00     0.537 OA 
HETATM    2  C   UNL     1      -8.157  15.212  70.831  1.00  0.00     2.256 C  
HETATM    3  C   UNL     1      -9.231  14.276  70.402  1.00  0.00     2.275 A  
HETATM    4  O   UNL     1      -7.435  15.009  71.790  1.00  0.00     2.350 OA 
HETATM    5  C   UNL     1      -8.986  12.878  70.321  1.00  0.00     4.915 A  
HETATM    6  I   UNL     1      -7.008  12.066  70.628  1.00  0.00     3.795 I  
HETATM    7  C   UNL     1     -10.010  11.961  69.947  1.00  0.00     1.708 A  
HETATM    8  I   UNL     1     -11.161  16.744  70.344  1.00  0.00     1.116 I  
HETATM    9  C   UNL     1     -11.294  12.466  69.672  1.00  0.00    -0.123 A  
HETATM   10  C   UNL     1     -10.531  14.737  70.128  1.00  0.00     0.111 A  
HETATM   11  C   UNL     1     -11.540  13.844  69.748  1.00  0.00    -0.335 A  
HETATM   12  I   UNL     1     -13.009  11.269  69.380  1.00  0.00     2.523 I  
ENDROOT
BRANCH   7  13
HETATM   13  N   UNL     1      -9.712  10.565  69.948  1.00  0.00    -0.409 N  
HETATM   14  O   UNL     1     -10.969  10.009  71.818  1.00  0.00     0.172 OA 
HETATM   15  C   UNL     1     -10.237   9.689  70.885  1.00  0.00    -0.232 C  
HETATM   16  H   UNL     1      -9.087  10.198  69.230  1.00  0.00     0.000 HD 
BRANCH  15  17
HETATM   17  C   UNL     1      -9.961   8.222  70.580  1.00  0.00    -0.204 C  
BRANCH  17  18
HETATM   18  C   UNL     1     -11.254   7.415  70.682  1.00  0.00    -0.292 C  
BRANCH  18  19
HETATM   19  C   UNL     1     -11.614   6.613  69.427  1.00  0.00    -0.210 C  
BRANCH  19  20
HETATM   20  C   UNL     1     -10.650   5.471  69.085  1.00  0.00    -0.300 C  
BRANCH  20  21
HETATM   21  C   UNL     1     -10.044   5.678  67.701  1.00  0.00    -0.172 C  
HETATM   22  N   UNL     1      -8.729   6.119  67.732  1.00  0.00    -0.113 N  
HETATM   23  O   UNL     1     -10.702   5.539  66.676  1.00  0.00    -0.295 OA 
HETATM   24  H   UNL     1      -8.275   6.267  68.632  1.00  0.00     0.000 HD 
BRANCH  22  25
HETATM   25  C   UNL     1      -7.997   6.369  66.533  1.00  0.00    -0.109 A  
HETATM   26  C   UNL     1      -7.101   5.433  65.993  1.00  0.00    -0.068 A  
HETATM   27  I   UNL     1      -6.453   3.690  67.009  1.00  0.00    -0.038 I  
HETATM   28  C   UNL     1      -6.432   5.698  64.794  1.00  0.00    -0.041 A  
HETATM   29  C   UNL     1      -6.589   6.929  64.143  1.00  0.00    -0.042 A  
HETATM   30  I   UNL     1      -5.391   7.154  62.415  1.00  0.00    -0.038 I  
HETATM   31  C   UNL     1      -7.433   7.918  64.678  1.00  0.00    -0.101 A  
HETATM   32  C   UNL     1      -7.530   9.272  64.057  1.00  0.00    -0.110 C  
HETATM   33  C   UNL     1      -8.138   7.623  65.876  1.00  0.00    -0.122 A  
HETATM   34  O   UNL     1      -7.458  10.305  64.696  1.00  0.00    -0.142 OA 
HETATM   35  I   UNL     1      -9.575   9.005  66.712  1.00  0.00    -0.334 I  
HETATM   36  O   UNL     1      -7.749   9.272  62.724  1.00  0.00    -0.115 OA 
ENDBRANCH  22  25
ENDBRANCH  20  21
ENDBRANCH  19  20
ENDBRANCH  18  19
ENDBRANCH  17  18
ENDBRANCH  15  17
ENDBRANCH   7  13
TORSDOF 7
ENDMDL
MODEL      280
REMARK 921   NORMALIZED FREE ENERGY PREDICTED BY IDOCK:   13.84 KCAL/MOL
REMARK 922        TOTAL FREE ENERGY PREDICTED BY IDOCK:   18.58 KCAL/MOL
REMARK 923 INTER-LIGAND FREE ENERGY PREDICTED BY IDOCK:    4.43 KCAL/MOL
REMARK 924 INTRA-LIGAND FREE ENERGY PREDICTED BY IDOCK:   14.15 KCAL/MOL
REMARK 927      BINDING AFFINITY PREDICTED BY RF-SCORE:    0.00 PKD
ROOT
HETATM    1  O   UNL     1     -14.172   9.136  70.539  1.00  0.00     0.330 OA 
HETATM    2  C   UNL     1     -13.119   9.821  71.036  1.00  0.00    -0.291 C  
HETATM    3  C   UNL     1     -11.840   9.061  71.057  1.00  0.00    -0.339 A  
HETATM    4  O   UNL     1     -13.213  10.984  71.384  1.00  0.00    -0.356 OA 
HETATM    5  C   UNL     1     -10.644   9.637  70.550  1.00  0.00    -0.306 A  
HETATM    6  I   UNL     1     -10.658  11.557  69.558  1.00  0.00     0.481 I  
HETATM    7  C   UNL     1      -9.403   8.941  70.593  1.00  0.00    -0.212 A  
HETATM    8  I   UNL     1     -13.376   6.801  72.592  1.00  0.00     1.620 I  
HETATM    9  C   UNL     1      -9.374   7.659  71.170  1.00  0.00    -0.154 A  
HETATM   10  C   UNL     1     -11.765   7.781  71.633  1.00  0.00    -0.280 A  
HETATM   11  C   UNL     1     -10.551   7.084  71.669  1.00  0.00    -0.226 A  
HETATM   12  I   UNL     1      -7.609   6.579  71.589  1.00  0.00    -0.095 I  
ENDROOT
BRANCH   7  13
HETATM   13  N   UNL     1      -8.230   9.605  70.124  1.00  0.00    -0.177 N  
HETATM   14  O   UNL     1      -6.758   8.706  71.677  1.00  0.00    -0.072 OA 
HETATM   15  C   UNL     1      -6.983   9.417  70.701  1.00  0.00    -0.115 C  
HETATM   16  H   UNL     1      -8.311  10.243  69.333  1.00  0.00     0.000 HD 
BRANCH  15  17
HETATM   17  C   UNL     1      -5.840  10.053  69.921  1.00  0.00    -0.046 C  
BRANCH  17  18
HETATM   18  C   UNL     1      -6.374  11.170  69.028  1.00  0.00    -0.054 C  
BRANCH  18  19
HETATM   19  C   UNL     1      -5.356  11.748  68.039  1.00  0.00    -0.047 C  
BRANCH  19  20
HETATM   20  C   UNL     1      -5.899  12.025  66.634  1.00  0.00     0.150 C  
BRANCH  20  21
HETATM   21  C   UNL     1      -6.894  10.945  66.222  1.00  0.00    -0.123 C  
HETATM   22  N   UNL     1      -7.547  10.354  67.294  1.00  0.00    -0.094 N  
HETATM   23  O   UNL     1      -7.027  10.595  65.054  1.00  0.00    -0.047 OA 
HETATM   24  H   UNL     1      -7.332  10.666  68.240  1.00  0.00     0.000 HD 
BRANCH  22  25
HETATM   25  C   UNL     1      -8.513   9.322  67.103  1.00  0.00    -0.124 A  
HETATM   26  C   UNL     1      -9.697   9.529  66.379  1.00  0.00    -0.232 A  
HETATM   27  I   UNL     1     -10.387  11.432  65.754  1.00  0.00    -0.315 I  
HETATM   28  C   UNL     1     -10.601   8.481  66.179  1.00  0.00     0.825 A  
HETATM   29  C   UNL     1     -10.378   7.223  66.754  1.00  0.00    -0.241 A  
HETATM   30  I   UNL     1     -11.933   5.830  66.418  1.00  0.00     5.615 I  
HETATM   31  C   UNL     1      -9.233   6.986  67.534  1.00  0.00    -0.128 A  
HETATM   32  C   UNL     1      -9.032   5.687  68.240  1.00  0.00    -0.114 C  
HETATM   33  C   UNL     1      -8.301   8.047  67.698  1.00  0.00    -0.128 A  
HETATM   34  O   UNL     1      -8.708   5.608  69.411  1.00  0.00    -0.108 OA 
HETATM   35  I   UNL     1      -6.435   7.761  68.750  1.00  0.00    -0.047 I  
HETATM   36  O   UNL     1      -9.195   4.590  67.470  1.00  0.00    -0.122 OA 
ENDBRANCH  22  25
ENDBRANCH  20  21
ENDBRANCH  19  20
ENDBRANCH  18  19
ENDBRANCH  17  18
ENDBRANCH  15  17
ENDBRANCH   7  13
TORSDOF 7
ENDMDL
MODEL      281
REMARK 921   NORMALIZED FREE ENERGY PREDICTED BY IDOCK:   13.84 KCAL/MOL
REMARK 922        TOTAL FREE ENERGY PREDICTED BY IDOCK:   18.59 KCAL/MOL
REMARK 923 INTER-LIGAND FREE ENERGY PREDICTED BY IDOCK:   14.82 KCAL/MOL
REMARK 924 INTRA-LIGAND FREE ENERGY PREDICTED BY IDOCK:    3.77 KCAL/MOL
REMARK 927      BINDING AFFINITY PREDICTED BY RF-SCORE:    0.00 PKD
ROOT
HETATM    1  O   UNL     1      -8.569  16.689  70.894  1.00  0.00     3.935 OA 
HETATM    2  C   UNL     1      -8.955  15.442  70.547  1.00  0.00     1.348 C  
HETATM    3  C   UNL     1      -9.540  15.331  69.183  1.00  0.00    -0.243 A  
HETATM    4  O   UNL     1      -8.781  14.486  71.281  1.00  0.00     3.181 OA 
HETATM    5  C   UNL     1      -9.101  14.322  68.285  1.00  0.00    -0.188 A  
HETATM    6  I   UNL     1      -7.443  13.025  68.777  1.00  0.00     0.162 I  
HETATM    7  C   UNL     1      -9.672  14.176  66.989  1.00  0.00    -0.258 A  
HETATM    8  I   UNL     1     -11.501  17.637  69.994  1.00  0.00     4.680 I  
HETATM    9  C   UNL     1     -10.706  15.050  66.610  1.00  0.00    -0.312 A  
HETATM   10  C   UNL     1     -10.582  16.179  68.769  1.00  0.00    -0.279 A  
HETATM   11  C   UNL     1     -11.142  16.050  67.491  1.00  0.00    -0.207 A  
HETATM   12  I   UNL     1     -11.874  14.832  64.865  1.00  0.00    -0.229 I  
ENDROOT
BRANCH   7  13
HETATM   13  N   UNL     1      -9.228  13.100  66.162  1.00  0.00    -0.466 N  
HETATM   14  O   UNL     1      -6.952  13.419  66.481  1.00  0.00     0.881 OA 
HETATM   15  C   UNL     1      -7.887  12.794  65.988  1.00  0.00     1.746 C  
HETATM   16  H   UNL     1      -9.926  12.533  65.681  1.00  0.00     0.000 HD 
BRANCH  15  17
HETATM   17  C   UNL     1      -7.644  11.489  65.241  1.00  0.00     1.064 C  
BRANCH  17  18
HETATM   18  C   UNL     1      -8.485  10.371  65.853  1.00  0.00    -0.160 C  
BRANCH  18  19
HETATM   19  C   UNL     1      -8.389   9.022  65.133  1.00  0.00    -0.165 C  
BRANCH  19  20
HETATM   20  C   UNL     1      -8.569   7.793  66.029  1.00  0.00    -0.166 C  
BRANCH  20  21
HETATM   21  C   UNL     1      -8.028   8.066  67.429  1.00  0.00    -0.122 C  
HETATM   22  N   UNL     1      -8.929   7.766  68.440  1.00  0.00    -0.133 N  
HETATM   23  O   UNL     1      -6.929   8.577  67.612  1.00  0.00    -0.075 OA 
HETATM   24  H   UNL     1      -9.848   7.400  68.195  1.00  0.00     0.000 HD 
BRANCH  22  25
HETATM   25  C   UNL     1      -8.600   7.959  69.815  1.00  0.00    -0.133 A  
HETATM   26  C   UNL     1      -8.972   9.116  70.518  1.00  0.00    -0.232 A  
HETATM   27  I   UNL     1      -9.763  10.857  69.604  1.00  0.00     0.815 I  
HETATM   28  C   UNL     1      -8.666   9.252  71.875  1.00  0.00     0.510 A  
HETATM   29  C   UNL     1      -7.924   8.270  72.545  1.00  0.00    -0.137 A  
HETATM   30  I   UNL     1      -7.478   8.742  74.557  1.00  0.00     0.411 I  
HETATM   31  C   UNL     1      -7.482   7.121  71.865  1.00  0.00    -0.085 A  
HETATM   32  C   UNL     1      -6.603   6.117  72.533  1.00  0.00    -0.068 C  
HETATM   33  C   UNL     1      -7.832   6.975  70.496  1.00  0.00    -0.101 A  
HETATM   34  O   UNL     1      -5.590   5.674  72.022  1.00  0.00    -0.020 OA 
HETATM   35  I   UNL     1      -7.339   5.186  69.387  1.00  0.00    -0.058 I  
HETATM   36  O   UNL     1      -7.035   5.696  73.741  1.00  0.00    -0.079 OA 
ENDBRANCH  22  25
ENDBRANCH  20  21
ENDBRANCH  19  20
ENDBRANCH  18  19
ENDBRANCH  17  18
ENDBRANCH  15  17
ENDBRANCH   7  13
TORSDOF 7
ENDMDL
MODEL      282
REMARK 921   NORMALIZED FREE ENERGY PREDICTED BY IDOCK:   14.13 KCAL/MOL
REMARK 922        TOTAL FREE ENERGY PREDICTED BY IDOCK:   18.99 KCAL/MOL
REMARK 923 INTER-LIGAND FREE ENERGY PREDICTED BY IDOCK:    5.30 KCAL/MOL
REMARK 924 INTRA-LIGAND FREE ENERGY PREDICTED BY IDOCK:   13.69 KCAL/MOL
REMARK 927      BINDING AFFINITY PREDICTED BY RF-SCORE:    0.00 PKD
ROOT
HETATM    1  O   UNL     1      -7.319  12.281  66.295  1.00  0.00     0.478 OA 
HETATM    2  C   UNL     1      -8.645  12.029  66.246  1.00  0.00     0.031 C  
HETATM    3  C   UNL     1      -9.279  11.784  67.569  1.00  0.00    -0.175 A  
HETATM    4  O   UNL     1      -9.268  12.059  65.199  1.00  0.00     0.016 OA 
HETATM    5  C   UNL     1     -10.476  12.455  67.936  1.00  0.00    -0.215 A  
HETATM    6  I   UNL     1     -11.330  13.994  66.681  1.00  0.00    -0.405 I  
HETATM    7  C   UNL     1     -11.119  12.208  69.183  1.00  0.00    -0.205 A  
HETATM    8  I   UNL     1      -7.075   9.611  68.059  1.00  0.00    -0.080 I  
HETATM    9  C   UNL     1     -10.549  11.262  70.054  1.00  0.00     0.482 A  
HETATM   10  C   UNL     1      -8.748  10.839  68.465  1.00  0.00    -0.149 A  
HETATM   11  C   UNL     1      -9.366  10.599  69.699  1.00  0.00     0.090 A  
HETATM   12  I   UNL     1     -11.479  10.543  71.808  1.00  0.00     2.738 I  
ENDROOT
BRANCH   7  13
HETATM   13  N   UNL     1     -12.353  12.869  69.459  1.00  0.00    -0.085 N  
HETATM   14  O   UNL     1     -12.904  11.654  71.358  1.00  0.00    -0.409 OA 
HETATM   15  C   UNL     1     -13.147  12.546  70.549  1.00  0.00     0.488 C  
HETATM   16  H   UNL     1     -12.664  13.609  68.830  1.00  0.00     0.000 HD 
BRANCH  15  17
HETATM   17  C   UNL     1     -14.306  13.508  70.775  1.00  0.00     2.183 C  
BRANCH  17  18
HETATM   18  C   UNL     1     -13.963  14.883  70.206  1.00  0.00     1.003 C  
BRANCH  18  19
HETATM   19  C   UNL     1     -12.569  15.403  70.570  1.00  0.00    -0.471 C  
BRANCH  19  20
HETATM   20  C   UNL     1     -11.413  14.456  70.233  1.00  0.00    -0.255 C  
BRANCH  20  21
HETATM   21  C   UNL     1     -10.147  15.246  69.919  1.00  0.00    -0.188 C  
HETATM   22  N   UNL     1     -10.143  15.806  68.649  1.00  0.00    -0.206 N  
HETATM   23  O   UNL     1      -9.203  15.299  70.700  1.00  0.00     0.743 OA 
HETATM   24  H   UNL     1     -10.947  15.661  68.039  1.00  0.00     0.000 HD 
BRANCH  22  25
HETATM   25  C   UNL     1      -9.040  16.578  68.177  1.00  0.00    -0.207 A  
HETATM   26  C   UNL     1      -7.747  16.045  68.062  1.00  0.00    -0.133 A  
HETATM   27  I   UNL     1      -7.163  14.169  68.857  1.00  0.00    -0.041 I  
HETATM   28  C   UNL     1      -6.699  16.821  67.558  1.00  0.00    -0.173 A  
HETATM   29  C   UNL     1      -6.902  18.166  67.221  1.00  0.00    -0.191 A  
HETATM   30  I   UNL     1      -5.152  19.175  66.594  1.00  0.00    -0.167 I  
HETATM   31  C   UNL     1      -8.168  18.758  67.374  1.00  0.00    -0.278 A  
HETATM   32  C   UNL     1      -8.377  20.214  67.122  1.00  0.00    -0.337 C  
HETATM   33  C   UNL     1      -9.234  17.949  67.850  1.00  0.00    -0.263 A  
HETATM   34  O   UNL     1      -8.972  20.945  67.893  1.00  0.00     0.033 OA 
HETATM   35  I   UNL     1     -11.255  18.705  67.986  1.00  0.00     1.605 I  
HETATM   36  O   UNL     1      -7.892  20.663  65.944  1.00  0.00     0.048 OA 
ENDBRANCH  22  25
ENDBRANCH  20  21
ENDBRANCH  19  20
ENDBRANCH  18  19
ENDBRANCH  17  18
ENDBRANCH  15  17
ENDBRANCH   7  13
TORSDOF 7
ENDMDL
MODEL      283
REMARK 921   NORMALIZED FREE ENERGY PREDICTED BY IDOCK:   15.20 KCAL/MOL
REMARK 922        TOTAL FREE ENERGY PREDICTED BY IDOCK:   20.50 KCAL/MOL
REMARK 923 INTER-LIGAND FREE ENERGY PREDICTED BY IDOCK:   16.22 KCAL/MOL
REMARK 924 INTRA-LIGAND FREE ENERGY PREDICTED BY IDOCK:    4.28 KCAL/MOL
REMARK 927      BINDING AFFINITY PREDICTED BY RF-SCORE:    0.00 PKD
ROOT
HETATM    1  O   UNL     1      -8.101  14.396  71.820  1.00  0.00     3.662 OA 
HETATM    2  C   UNL     1      -8.527  14.606  70.555  1.00  0.00     1.857 C  
HETATM    3  C   UNL     1      -7.970  13.662  69.549  1.00  0.00     0.738 A  
HETATM    4  O   UNL     1      -9.342  15.470  70.284  1.00  0.00     0.114 OA 
HETATM    5  C   UNL     1      -8.822  13.008  68.619  1.00  0.00     0.061 A  
HETATM    6  I   UNL     1     -10.971  13.202  68.736  1.00  0.00    -0.240 I  
HETATM    7  C   UNL     1      -8.306  12.128  67.625  1.00  0.00    -0.163 A  
HETATM    8  I   UNL     1      -5.125  14.427  70.617  1.00  0.00    -0.136 I  
HETATM    9  C   UNL     1      -6.916  11.925  67.566  1.00  0.00    -0.123 A  
HETATM   10  C   UNL     1      -6.586  13.438  69.450  1.00  0.00    -0.075 A  
HETATM   11  C   UNL     1      -6.071  12.565  68.484  1.00  0.00    -0.061 A  
HETATM   12  I   UNL     1      -5.924  10.896  66.012  1.00  0.00     0.016 I  
ENDROOT
BRANCH   7  13
HETATM   13  N   UNL     1      -9.211  11.555  66.682  1.00  0.00    -0.181 N  
HETATM   14  O   UNL     1      -9.932   9.797  68.015  1.00  0.00    -0.148 OA 
HETATM   15  C   UNL     1      -9.974  10.431  66.964  1.00  0.00    -0.206 C  
HETATM   16  H   UNL     1      -9.301  11.989  65.764  1.00  0.00     0.000 HD 
BRANCH  15  17
HETATM   17  C   UNL     1     -11.020  10.114  65.903  1.00  0.00     0.404 C  
BRANCH  17  18
HETATM   18  C   UNL     1     -11.282  11.347  65.041  1.00  0.00    -0.159 C  
BRANCH  18  19
HETATM   19  C   UNL     1     -12.731  11.845  65.051  1.00  0.00     0.730 C  
BRANCH  19  20
HETATM   20  C   UNL     1     -13.079  12.814  66.185  1.00  0.00     1.673 C  
BRANCH  20  21
HETATM   21  C   UNL     1     -12.624  14.228  65.839  1.00  0.00    -0.352 C  
HETATM   22  N   UNL     1     -11.728  14.762  66.755  1.00  0.00    -0.341 N  
HETATM   23  O   UNL     1     -13.083  14.843  64.884  1.00  0.00    -0.192 OA 
HETATM   24  H   UNL     1     -11.444  14.201  67.558  1.00  0.00     0.000 HD 
BRANCH  22  25
HETATM   25  C   UNL     1     -11.194  16.075  66.598  1.00  0.00     0.127 A  
HETATM   26  C   UNL     1     -10.685  16.535  65.374  1.00  0.00    -0.259 A  
HETATM   27  I   UNL     1     -10.327  15.292  63.696  1.00  0.00     7.683 I  
HETATM   28  C   UNL     1     -10.207  17.843  65.249  1.00  0.00     0.651 A  
HETATM   29  C   UNL     1     -10.162  18.699  66.358  1.00  0.00    -0.425 A  
HETATM   30  I   UNL     1      -9.291  20.585  65.962  1.00  0.00     0.762 I  
HETATM   31  C   UNL     1     -10.609  18.261  67.617  1.00  0.00    -0.427 A  
HETATM   32  C   UNL     1     -10.471  19.120  68.829  1.00  0.00     0.020 C  
HETATM   33  C   UNL     1     -11.129  16.943  67.724  1.00  0.00    -0.116 A  
HETATM   34  O   UNL     1     -10.017  18.716  69.884  1.00  0.00     0.370 OA 
HETATM   35  I   UNL     1     -11.981  16.210  69.569  1.00  0.00     0.632 I  
HETATM   36  O   UNL     1     -10.927  20.384  68.687  1.00  0.00     0.327 OA 
ENDBRANCH  22  25
ENDBRANCH  20  21
ENDBRANCH  19  20
ENDBRANCH  18  19
ENDBRANCH  17  18
ENDBRANCH  15  17
ENDBRANCH   7  13
TORSDOF 7
ENDMDL
MODEL      284
REMARK 921   NORMALIZED FREE ENERGY PREDICTED BY IDOCK:   15.41 KCAL/MOL
REMARK 922        TOTAL FREE ENERGY PREDICTED BY IDOCK:   20.80 KCAL/MOL
REMARK 923 INTER-LIGAND FREE ENERGY PREDICTED BY IDOCK:   13.38 KCAL/MOL
REMARK 924 INTRA-LIGAND FREE ENERGY PREDICTED BY IDOCK:    7.42 KCAL/MOL
REMARK 927      BINDING AFFINITY PREDICTED BY RF-SCORE:    0.00 PKD
ROOT
HETATM    1  O   UNL     1     -11.935  14.037  62.615  1.00  0.00     0.543 OA 
HETATM    2  C   UNL     1     -11.830  14.351  63.925  1.00  0.00    -0.054 C  
HETATM    3  C   UNL     1     -11.137  13.328  64.754  1.00  0.00    -0.359 A  
HETATM    4  O   UNL     1     -12.229  15.414  64.367  1.00  0.00    -0.399 OA 
HETATM    5  C   UNL     1     -10.101  13.702  65.651  1.00  0.00    -0.284 A  
HETATM    6  I   UNL     1      -9.355  15.729  65.722  1.00  0.00     0.224 I  
HETATM    7  C   UNL     1      -9.448  12.745  66.479  1.00  0.00    -0.253 A  
HETATM    8  I   UNL     1     -13.147  11.227  63.585  1.00  0.00     3.629 I  
HETATM    9  C   UNL     1      -9.862  11.403  66.406  1.00  0.00    -0.211 A  
HETATM   10  C   UNL     1     -11.527  11.978  64.718  1.00  0.00    -0.298 A  
HETATM   11  C   UNL     1     -10.882  11.027  65.520  1.00  0.00    -0.159 A  
HETATM   12  I   UNL     1      -9.234   9.886  67.733  1.00  0.00    -0.150 I  
ENDROOT
BRANCH   7  13
HETATM   13  N   UNL     1      -8.461  13.200  67.404  1.00  0.00    -0.191 N  
HETATM   14  O   UNL     1      -6.603  12.522  66.189  1.00  0.00     0.986 OA 
HETATM   15  C   UNL     1      -7.100  13.066  67.172  1.00  0.00     0.081 C  
HETATM   16  H   UNL     1      -8.768  13.642  68.270  1.00  0.00     0.000 HD 
BRANCH  15  17
HETATM   17  C   UNL     1      -6.227  13.801  68.180  1.00  0.00    -0.126 C  
BRANCH  17  18
HETATM   18  C   UNL     1      -6.783  15.201  68.431  1.00  0.00    -0.110 C  
BRANCH  18  19
HETATM   19  C   UNL     1      -6.161  16.306  67.570  1.00  0.00    -0.186 C  
BRANCH  19  20
HETATM   20  C   UNL     1      -6.745  17.706  67.787  1.00  0.00    -0.190 C  
BRANCH  20  21
HETATM   21  C   UNL     1      -8.208  17.617  68.210  1.00  0.00    -0.276 C  
HETATM   22  N   UNL     1      -8.471  16.568  69.080  1.00  0.00    -0.202 N  
HETATM   23  O   UNL     1      -9.065  18.362  67.748  1.00  0.00    -0.271 OA 
HETATM   24  H   UNL     1      -7.707  15.957  69.368  1.00  0.00     0.000 HD 
BRANCH  22  25
HETATM   25  C   UNL     1      -9.784  16.326  69.582  1.00  0.00    -0.039 A  
HETATM   26  C   UNL     1     -10.931  16.834  68.952  1.00  0.00    -0.259 A  
HETATM   27  I   UNL     1     -10.892  18.274  67.399  1.00  0.00     0.257 I  
HETATM   28  C   UNL     1     -12.205  16.542  69.450  1.00  0.00     0.928 A  
HETATM   29  C   UNL     1     -12.360  15.794  70.626  1.00  0.00    -0.371 A  
HETATM   30  I   UNL     1     -14.367  15.578  71.256  1.00  0.00     0.699 I  
HETATM   31  C   UNL     1     -11.237  15.313  71.320  1.00  0.00    -0.375 A  
HETATM   32  C   UNL     1     -11.378  14.607  72.628  1.00  0.00     0.710 C  
HETATM   33  C   UNL     1      -9.949  15.582  70.784  1.00  0.00     0.795 A  
HETATM   34  O   UNL     1     -10.708  14.879  73.608  1.00  0.00     1.758 OA 
HETATM   35  I   UNL     1      -8.157  14.771  71.679  1.00  0.00     7.215 I  
HETATM   36  O   UNL     1     -12.284  13.605  72.638  1.00  0.00     0.317 OA 
ENDBRANCH  22  25
ENDBRANCH  20  21
ENDBRANCH  19  20
ENDBRANCH  18  19
ENDBRANCH  17  18
ENDBRANCH  15  17
ENDBRANCH   7  13
TORSDOF 7
ENDMDL
MODEL      285
REMARK 921   NORMALIZED FREE ENERGY PREDICTED BY IDOCK:   15.55 KCAL/MOL
REMARK 922        TOTAL FREE ENERGY PREDICTED BY IDOCK:   20.99 KCAL/MOL
REMARK 923 INTER-LIGAND FREE ENERGY PREDICTED BY IDOCK:    3.24 KCAL/MOL
REMARK 924 INTRA-LIGAND FREE ENERGY PREDICTED BY IDOCK:   17.75 KCAL/MOL
REMARK 927      BINDING AFFINITY PREDICTED BY RF-SCORE:    0.00 PKD
ROOT
HETATM    1  O   UNL     1      -6.811  17.668  69.158  1.00  0.00    -0.248 OA 
HETATM    2  C   UNL     1      -7.758  16.817  68.707  1.00  0.00    -0.242 C  
HETATM    3  C   UNL     1      -7.250  15.473  68.320  1.00  0.00    -0.118 A  
HETATM    4  O   UNL     1      -8.937  17.122  68.675  1.00  0.00    -0.263 OA 
HETATM    5  C   UNL     1      -7.892  14.293  68.784  1.00  0.00    -0.128 A  
HETATM    6  I   UNL     1      -9.509  14.385  70.215  1.00  0.00     2.717 I  
HETATM    7  C   UNL     1      -7.444  12.998  68.398  1.00  0.00    -0.128 A  
HETATM    8  I   UNL     1      -5.168  16.944  66.498  1.00  0.00     0.482 I  
HETATM    9  C   UNL     1      -6.348  12.902  67.521  1.00  0.00    -0.158 A  
HETATM   10  C   UNL     1      -6.164  15.333  67.438  1.00  0.00     0.037 A  
HETATM   11  C   UNL     1      -5.709  14.062  67.062  1.00  0.00     1.232 A  
HETATM   12  I   UNL     1      -5.705  11.111  66.606  1.00  0.00    -0.122 I  
ENDROOT
BRANCH   7  13
HETATM   13  N   UNL     1      -8.175  11.858  68.850  1.00  0.00    -0.359 N  
HETATM   14  O   UNL     1     -10.205  12.934  69.176  1.00  0.00     0.044 OA 
HETATM   15  C   UNL     1      -9.518  11.916  69.189  1.00  0.00     0.403 C  
HETATM   16  H   UNL     1      -7.689  10.964  68.926  1.00  0.00     0.000 HD 
BRANCH  15  17
HETATM   17  C   UNL     1     -10.150  10.554  69.442  1.00  0.00    -0.233 C  
BRANCH  17  18
HETATM   18  C   UNL     1     -11.652  10.707  69.665  1.00  0.00    -0.368 C  
BRANCH  18  19
HETATM   19  C   UNL     1     -12.517  10.473  68.422  1.00  0.00     1.610 C  
BRANCH  19  20
HETATM   20  C   UNL     1     -11.747  10.389  67.100  1.00  0.00     1.105 C  
BRANCH  20  21
HETATM   21  C   UNL     1     -10.484   9.550  67.268  1.00  0.00    -0.262 C  
HETATM   22  N   UNL     1     -10.512   8.722  68.382  1.00  0.00    -0.295 N  
HETATM   23  O   UNL     1      -9.518   9.672  66.524  1.00  0.00    -0.161 OA 
HETATM   24  H   UNL     1     -11.335   8.727  68.985  1.00  0.00     0.000 HD 
BRANCH  22  25
HETATM   25  C   UNL     1      -9.418   7.865  68.703  1.00  0.00    -0.149 A  
HETATM   26  C   UNL     1      -9.291   7.252  69.959  1.00  0.00    -0.154 A  
HETATM   27  I   UNL     1     -10.481   7.741  71.643  1.00  0.00    -0.288 I  
HETATM   28  C   UNL     1      -8.226   6.386  70.224  1.00  0.00    -0.125 A  
HETATM   29  C   UNL     1      -7.226   6.167  69.267  1.00  0.00    -0.082 A  
HETATM   30  I   UNL     1      -5.653   4.917  69.927  1.00  0.00    -0.018 I  
HETATM   31  C   UNL     1      -7.283   6.805  68.015  1.00  0.00    -0.091 A  
HETATM   32  C   UNL     1      -6.175   6.666  67.025  1.00  0.00    -0.040 C  
HETATM   33  C   UNL     1      -8.391   7.651  67.743  1.00  0.00    -0.118 A  
HETATM   34  O   UNL     1      -5.677   7.615  66.444  1.00  0.00    -0.034 OA 
HETATM   35  I   UNL     1      -8.664   8.569  65.805  1.00  0.00    -0.186 I  
HETATM   36  O   UNL     1      -5.784   5.397  66.782  1.00  0.00    -0.016 OA 
ENDBRANCH  22  25
ENDBRANCH  20  21
ENDBRANCH  19  20
ENDBRANCH  18  19
ENDBRANCH  17  18
ENDBRANCH  15  17
ENDBRANCH   7  13
TORSDOF 7
ENDMDL
MODEL      286
REMARK 921   NORMALIZED FREE ENERGY PREDICTED BY IDOCK:   15.97 KCAL/MOL
REMARK 922        TOTAL FREE ENERGY PREDICTED BY IDOCK:   21.58 KCAL/MOL
REMARK 923 INTER-LIGAND FREE ENERGY PREDICTED BY IDOCK:    8.21 KCAL/MOL
REMARK 924 INTRA-LIGAND FREE ENERGY PREDICTED BY IDOCK:   13.37 KCAL/MOL
REMARK 927      BINDING AFFINITY PREDICTED BY RF-SCORE:    0.00 PKD
ROOT
HETATM    1  O   UNL     1      -9.473   9.322  65.213  1.00  0.00    -0.245 OA 
HETATM    2  C   UNL     1      -8.935  10.511  65.563  1.00  0.00    -0.183 C  
HETATM    3  C   UNL     1      -9.808  11.687  65.301  1.00  0.00    -0.279 A  
HETATM    4  O   UNL     1      -7.844  10.592  66.099  1.00  0.00    -0.142 OA 
HETATM    5  C   UNL     1     -10.025  12.668  66.306  1.00  0.00    -0.258 A  
HETATM    6  I   UNL     1      -9.258  12.410  68.310  1.00  0.00    -0.046 I  
HETATM    7  C   UNL     1     -10.827  13.819  66.064  1.00  0.00    -0.282 A  
HETATM    8  I   UNL     1     -10.070  10.653  62.354  1.00  0.00     1.253 I  
HETATM    9  C   UNL     1     -11.399  13.982  64.790  1.00  0.00    -0.366 A  
HETATM   10  C   UNL     1     -10.390  11.892  64.038  1.00  0.00    -0.364 A  
HETATM   11  C   UNL     1     -11.191  13.015  63.795  1.00  0.00    -0.396 A  
HETATM   12  I   UNL     1     -12.379  15.734  64.135  1.00  0.00     1.760 I  
ENDROOT
BRANCH   7  13
HETATM   13  N   UNL     1     -10.950  14.797  67.097  1.00  0.00    -0.312 N  
HETATM   14  O   UNL     1      -8.708  15.385  67.197  1.00  0.00    -0.191 OA 
HETATM   15  C   UNL     1      -9.869  15.523  67.573  1.00  0.00    -0.220 C  
HETATM   16  H   UNL     1     -11.871  14.969  67.501  1.00  0.00     0.000 HD 
BRANCH  15  17
HETATM   17  C   UNL     1     -10.253  16.653  68.518  1.00  0.00    -0.282 C  
BRANCH  17  18
HETATM   18  C   UNL     1     -10.198  16.167  69.965  1.00  0.00    -0.060 C  
BRANCH  18  19
HETATM   19  C   UNL     1     -11.332  15.219  70.371  1.00  0.00    -0.325 C  
BRANCH  19  20
HETATM   20  C   UNL     1     -11.937  14.400  69.226  1.00  0.00    -0.362 C  
BRANCH  20  21
HETATM   21  C   UNL     1     -12.387  13.031  69.726  1.00  0.00    -0.078 C  
HETATM   22  N   UNL     1     -11.353  12.114  69.838  1.00  0.00    -0.506 N  
HETATM   23  O   UNL     1     -13.568  12.769  69.924  1.00  0.00     1.932 OA 
HETATM   24  H   UNL     1     -10.405  12.399  69.593  1.00  0.00     0.000 HD 
BRANCH  22  25
HETATM   25  C   UNL     1     -11.584  10.780  70.288  1.00  0.00    -0.338 A  
HETATM   26  C   UNL     1     -11.197   9.659  69.537  1.00  0.00    -0.109 A  
HETATM   27  I   UNL     1     -10.530   9.750  67.528  1.00  0.00    -0.274 I  
HETATM   28  C   UNL     1     -11.404   8.367  70.029  1.00  0.00    -0.003 A  
HETATM   29  C   UNL     1     -12.064   8.161  71.249  1.00  0.00    -0.288 A  
HETATM   30  I   UNL     1     -12.372   6.127  71.735  1.00  0.00     0.667 I  
HETATM   31  C   UNL     1     -12.519   9.254  72.007  1.00  0.00    -0.451 A  
HETATM   32  C   UNL     1     -13.315   9.053  73.253  1.00  0.00     1.092 C  
HETATM   33  C   UNL     1     -12.268  10.564  71.516  1.00  0.00    -0.286 A  
HETATM   34  O   UNL     1     -14.349   9.652  73.488  1.00  0.00     0.717 OA 
HETATM   35  I   UNL     1     -12.788  12.320  72.663  1.00  0.00     3.265 I  
HETATM   36  O   UNL     1     -12.782   8.180  74.135  1.00  0.00     4.172 OA 
ENDBRANCH  22  25
ENDBRANCH  20  21
ENDBRANCH  19  20
ENDBRANCH  18  19
ENDBRANCH  17  18
ENDBRANCH  15  17
ENDBRANCH   7  13
TORSDOF 7
ENDMDL
MODEL      287
REMARK 921   NORMALIZED FREE ENERGY PREDICTED BY IDOCK:   16.57 KCAL/MOL
REMARK 922        TOTAL FREE ENERGY PREDICTED BY IDOCK:   22.43 KCAL/MOL
REMARK 923 INTER-LIGAND FREE ENERGY PREDICTED BY IDOCK:   19.89 KCAL/MOL
REMARK 924 INTRA-LIGAND FREE ENERGY PREDICTED BY IDOCK:    2.54 KCAL/MOL
REMARK 927      BINDING AFFINITY PREDICTED BY RF-SCORE:    0.00 PKD
ROOT
HETATM    1  O   UNL     1     -12.881   3.589  73.218  1.00  0.00     0.604 OA 
HETATM    2  C   UNL     1     -11.545   3.516  73.409  1.00  0.00     0.062 C  
HETATM    3  C   UNL     1     -10.732   3.733  72.183  1.00  0.00     0.189 A  
HETATM    4  O   UNL     1     -11.061   3.341  74.513  1.00  0.00     0.104 OA 
HETATM    5  C   UNL     1      -9.634   4.635  72.190  1.00  0.00    -0.151 A  
HETATM    6  I   UNL     1      -9.209   5.870  73.912  1.00  0.00    -0.152 I  
HETATM    7  C   UNL     1      -8.820   4.831  71.038  1.00  0.00    -0.117 A  
HETATM    8  I   UNL     1     -12.456   1.500  70.818  1.00  0.00    10.877 I  
HETATM    9  C   UNL     1      -9.114   4.093  69.877  1.00  0.00    -0.113 A  
HETATM   10  C   UNL     1     -10.985   3.008  71.005  1.00  0.00     2.866 A  
HETATM   11  C   UNL     1     -10.197   3.203  69.863  1.00  0.00     1.099 A  
HETATM   12  I   UNL     1      -7.878   4.018  68.167  1.00  0.00    -0.075 I  
ENDROOT
BRANCH   7  13
HETATM   13  N   UNL     1      -7.695   5.704  71.135  1.00  0.00    -0.102 N  
HETATM   14  O   UNL     1      -8.867   7.698  70.943  1.00  0.00    -0.143 OA 
HETATM   15  C   UNL     1      -7.814   7.085  71.097  1.00  0.00    -0.099 C  
HETATM   16  H   UNL     1      -6.766   5.295  71.237  1.00  0.00     0.000 HD 
BRANCH  15  17
HETATM   17  C   UNL     1      -6.523   7.824  71.426  1.00  0.00    -0.038 C  
BRANCH  17  18
HETATM   18  C   UNL     1      -5.435   7.449  70.423  1.00  0.00    -0.024 C  
BRANCH  18  19
HETATM   19  C   UNL     1      -5.556   8.128  69.055  1.00  0.00    -0.034 C  
BRANCH  19  20
HETATM   20  C   UNL     1      -6.651   7.565  68.144  1.00  0.00    -0.050 C  
BRANCH  20  21
HETATM   21  C   UNL     1      -7.871   8.480  68.144  1.00  0.00    -0.103 C  
HETATM   22  N   UNL     1      -7.924   9.333  67.050  1.00  0.00    -0.102 N  
HETATM   23  O   UNL     1      -8.670   8.499  69.073  1.00  0.00    -0.132 OA 
HETATM   24  H   UNL     1      -7.183   9.293  66.351  1.00  0.00     0.000 HD 
BRANCH  22  25
HETATM   25  C   UNL     1      -8.992  10.264  66.880  1.00  0.00    -0.136 A  
HETATM   26  C   UNL     1     -10.115   9.979  66.087  1.00  0.00    -0.247 A  
HETATM   27  I   UNL     1     -10.255   8.313  64.785  1.00  0.00     6.514 I  
HETATM   28  C   UNL     1     -11.160  10.900  65.977  1.00  0.00     0.019 A  
HETATM   29  C   UNL     1     -11.079  12.154  66.599  1.00  0.00    -0.306 A  
HETATM   30  I   UNL     1     -12.719  13.427  66.197  1.00  0.00     0.682 I  
HETATM   31  C   UNL     1      -9.948  12.504  67.356  1.00  0.00    -0.207 A  
HETATM   32  C   UNL     1      -9.797  13.870  67.936  1.00  0.00    -0.228 C  
HETATM   33  C   UNL     1      -8.909  11.544  67.494  1.00  0.00    -0.155 A  
HETATM   34  O   UNL     1      -8.779  14.531  67.831  1.00  0.00    -0.153 OA 
HETATM   35  I   UNL     1      -7.191  11.911  68.753  1.00  0.00    -0.021 I  
HETATM   36  O   UNL     1     -10.867  14.315  68.631  1.00  0.00    -0.238 OA 
ENDBRANCH  22  25
ENDBRANCH  20  21
ENDBRANCH  19  20
ENDBRANCH  18  19
ENDBRANCH  17  18
ENDBRANCH  15  17
ENDBRANCH   7  13
TORSDOF 7
ENDMDL
MODEL      288
REMARK 921   NORMALIZED FREE ENERGY PREDICTED BY IDOCK:   17.02 KCAL/MOL
REMARK 922        TOTAL FREE ENERGY PREDICTED BY IDOCK:   23.07 KCAL/MOL
REMARK 923 INTER-LIGAND FREE ENERGY PREDICTED BY IDOCK:   21.87 KCAL/MOL
REMARK 924 INTRA-LIGAND FREE ENERGY PREDICTED BY IDOCK:    1.20 KCAL/MOL
REMARK 927      BINDING AFFINITY PREDICTED BY RF-SCORE:    0.00 PKD
ROOT
HETATM    1  O   UNL     1     -12.884   3.589  73.217  1.00  0.00     0.604 OA 
HETATM    2  C   UNL     1     -11.545   3.528  73.386  1.00  0.00     0.062 C  
HETATM    3  C   UNL     1     -10.753   3.751  72.146  1.00  0.00     0.189 A  
HETATM    4  O   UNL     1     -11.040   3.357  74.481  1.00  0.00     0.108 OA 
HETATM    5  C   UNL     1      -9.663   4.663  72.135  1.00  0.00    -0.165 A  
HETATM    6  I   UNL     1      -9.220   5.902  73.849  1.00  0.00    -0.152 I  
HETATM    7  C   UNL     1      -8.871   4.865  70.969  1.00  0.00    -0.126 A  
HETATM    8  I   UNL     1     -12.481   1.503  70.811  1.00  0.00    10.877 I  
HETATM    9  C   UNL     1      -9.177   4.124  69.814  1.00  0.00    -0.143 A  
HETATM   10  C   UNL     1     -11.020   3.024  70.973  1.00  0.00     2.866 A  
HETATM   11  C   UNL     1     -10.253   3.225  69.818  1.00  0.00     1.079 A  
HETATM   12  I   UNL     1      -7.970   4.059  68.083  1.00  0.00    -0.083 I  
ENDROOT
BRANCH   7  13
HETATM   13  N   UNL     1      -7.752   5.748  71.047  1.00  0.00    -0.099 N  
HETATM   14  O   UNL     1      -8.945   7.731  70.885  1.00  0.00    -0.144 OA 
HETATM   15  C   UNL     1      -7.884   7.128  71.016  1.00  0.00    -0.095 C  
HETATM   16  H   UNL     1      -6.817   5.347  71.129  1.00  0.00     0.000 HD 
BRANCH  15  17
HETATM   17  C   UNL     1      -6.594   7.877  71.322  1.00  0.00    -0.041 C  
BRANCH  17  18
HETATM   18  C   UNL     1      -5.524   7.521  70.293  1.00  0.00    -0.023 C  
BRANCH  18  19
HETATM   19  C   UNL     1      -5.688   8.199  68.929  1.00  0.00    -0.035 C  
BRANCH  19  20
HETATM   20  C   UNL     1      -6.793   7.617  68.042  1.00  0.00    -0.067 C  
BRANCH  20  21
HETATM   21  C   UNL     1      -8.033   8.505  68.078  1.00  0.00    -0.111 C  
HETATM   22  N   UNL     1      -7.806   9.792  67.612  1.00  0.00    -0.095 N  
HETATM   23  O   UNL     1      -9.095   8.120  68.554  1.00  0.00    -0.137 OA 
HETATM   24  H   UNL     1      -6.873  10.048  67.290  1.00  0.00     0.000 HD 
BRANCH  22  25
HETATM   25  C   UNL     1      -8.848  10.766  67.573  1.00  0.00    -0.128 A  
HETATM   26  C   UNL     1      -9.121  11.615  68.658  1.00  0.00    -0.100 A  
HETATM   27  I   UNL     1      -8.283  11.377  70.589  1.00  0.00     6.723 I  
HETATM   28  C   UNL     1     -10.124  12.584  68.567  1.00  0.00    -0.186 A  
HETATM   29  C   UNL     1     -10.924  12.684  67.420  1.00  0.00    -0.254 A  
HETATM   30  I   UNL     1     -12.452  14.139  67.554  1.00  0.00     1.124 I  
HETATM   31  C   UNL     1     -10.723  11.817  66.332  1.00  0.00    -0.306 A  
HETATM   32  C   UNL     1     -11.631  11.838  65.148  1.00  0.00    -0.145 C  
HETATM   33  C   UNL     1      -9.675  10.861  66.419  1.00  0.00    -0.201 A  
HETATM   34  O   UNL     1     -12.116  10.832  64.662  1.00  0.00     1.405 OA 
HETATM   35  I   UNL     1      -9.175   9.576  64.755  1.00  0.00     0.006 I  
HETATM   36  O   UNL     1     -11.848  13.061  64.619  1.00  0.00    -0.338 OA 
ENDBRANCH  22  25
ENDBRANCH  20  21
ENDBRANCH  19  20
ENDBRANCH  18  19
ENDBRANCH  17  18
ENDBRANCH  15  17
ENDBRANCH   7  13
TORSDOF 7
ENDMDL
MODEL      289
REMARK 921   NORMALIZED FREE ENERGY PREDICTED BY IDOCK:   17.36 KCAL/MOL
REMARK 922        TOTAL FREE ENERGY PREDICTED BY IDOCK:   23.55 KCAL/MOL
REMARK 923 INTER-LIGAND FREE ENERGY PREDICTED BY IDOCK:   18.92 KCAL/MOL
REMARK 924 INTRA-LIGAND FREE ENERGY PREDICTED BY IDOCK:    4.62 KCAL/MOL
REMARK 927      BINDING AFFINITY PREDICTED BY RF-SCORE:    0.00 PKD
ROOT
HETATM    1  O   UNL     1      -6.467  20.152  68.106  1.00  0.00    -0.250 OA 
HETATM    2  C   UNL     1      -6.787  19.666  69.325  1.00  0.00    -0.355 C  
HETATM    3  C   UNL     1      -7.336  18.284  69.317  1.00  0.00    -0.051 A  
HETATM    4  O   UNL     1      -6.585  20.301  70.345  1.00  0.00    -0.362 OA 
HETATM    5  C   UNL     1      -6.831  17.297  70.206  1.00  0.00     1.160 A  
HETATM    6  I   UNL     1      -5.127  17.695  71.473  1.00  0.00     0.988 I  
HETATM    7  C   UNL     1      -7.366  15.978  70.239  1.00  0.00     0.965 A  
HETATM    8  I   UNL     1      -9.420  19.279  67.198  1.00  0.00    -0.490 I  
HETATM    9  C   UNL     1      -8.432  15.665  69.376  1.00  0.00    -0.244 A  
HETATM   10  C   UNL     1      -8.408  17.932  68.477  1.00  0.00    -0.300 A  
HETATM   11  C   UNL     1      -8.932  16.634  68.495  1.00  0.00    -0.235 A  
HETATM   12  I   UNL     1      -9.550  13.876  69.459  1.00  0.00     1.446 I  
ENDROOT
BRANCH   7  13
HETATM   13  N   UNL     1      -6.855  15.056  71.201  1.00  0.00     0.481 N  
HETATM   14  O   UNL     1      -8.411  13.373  70.834  1.00  0.00     4.997 OA 
HETATM   15  C   UNL     1      -7.416  13.805  71.410  1.00  0.00     4.574 C  
HETATM   16  H   UNL     1      -6.044  15.328  71.757  1.00  0.00     0.000 HD 
BRANCH  15  17
HETATM   17  C   UNL     1      -6.594  12.906  72.325  1.00  0.00     4.429 C  
BRANCH  17  18
HETATM   18  C   UNL     1      -6.136  11.664  71.564  1.00  0.00     1.383 C  
BRANCH  18  19
HETATM   19  C   UNL     1      -7.233  10.627  71.301  1.00  0.00     2.410 C  
BRANCH  19  20
HETATM   20  C   UNL     1      -7.261  10.057  69.879  1.00  0.00    -0.145 C  
BRANCH  20  21
HETATM   21  C   UNL     1      -7.948   8.695  69.861  1.00  0.00    -0.105 C  
HETATM   22  N   UNL     1      -7.296   7.735  70.622  1.00  0.00    -0.064 N  
HETATM   23  O   UNL     1      -8.935   8.474  69.168  1.00  0.00    -0.144 OA 
HETATM   24  H   UNL     1      -6.443   7.989  71.120  1.00  0.00     0.000 HD 
BRANCH  22  25
HETATM   25  C   UNL     1      -7.790   6.401  70.723  1.00  0.00    -0.106 A  
HETATM   26  C   UNL     1      -8.783   6.038  71.647  1.00  0.00    -0.135 A  
HETATM   27  I   UNL     1      -9.454   7.290  73.218  1.00  0.00    -0.326 I  
HETATM   28  C   UNL     1      -9.271   4.729  71.689  1.00  0.00    -0.179 A  
HETATM   29  C   UNL     1      -8.732   3.735  70.860  1.00  0.00    -0.074 A  
HETATM   30  I   UNL     1      -9.540   1.808  71.180  1.00  0.00    -0.094 I  
HETATM   31  C   UNL     1      -7.697   4.041  69.959  1.00  0.00    -0.052 A  
HETATM   32  C   UNL     1      -7.040   2.977  69.145  1.00  0.00    -0.045 C  
HETATM   33  C   UNL     1      -7.236   5.384  69.896  1.00  0.00    -0.064 A  
HETATM   34  O   UNL     1      -5.831   2.862  69.049  1.00  0.00    -0.022 OA 
HETATM   35  I   UNL     1      -5.754   6.005  68.450  1.00  0.00    -0.014 I  
HETATM   36  O   UNL     1      -7.888   2.163  68.480  1.00  0.00    -0.053 OA 
ENDBRANCH  22  25
ENDBRANCH  20  21
ENDBRANCH  19  20
ENDBRANCH  18  19
ENDBRANCH  17  18
ENDBRANCH  15  17
ENDBRANCH   7  13
TORSDOF 7
ENDMDL
MODEL      290
REMARK 921   NORMALIZED FREE ENERGY PREDICTED BY IDOCK:   17.46 KCAL/MOL
REMARK 922        TOTAL FREE ENERGY PREDICTED BY IDOCK:   23.69 KCAL/MOL
REMARK 923 INTER-LIGAND FREE ENERGY PREDICTED BY IDOCK:   13.07 KCAL/MOL
REMARK 924 INTRA-LIGAND FREE ENERGY PREDICTED BY IDOCK:   10.62 KCAL/MOL
REMARK 927      BINDING AFFINITY PREDICTED BY RF-SCORE:    0.00 PKD
ROOT
HETATM    1  O   UNL     1      -7.321   9.804  70.171  1.00  0.00    -0.120 OA 
HETATM    2  C   UNL     1      -8.464  10.445  69.841  1.00  0.00     0.128 C  
HETATM    3  C   UNL     1      -8.288  11.878  69.482  1.00  0.00     1.056 A  
HETATM    4  O   UNL     1      -9.536   9.869  69.794  1.00  0.00    -0.210 OA 
HETATM    5  C   UNL     1      -8.877  12.407  68.302  1.00  0.00    -0.174 A  
HETATM    6  I   UNL     1      -9.890  11.131  66.883  1.00  0.00    -0.251 I  
HETATM    7  C   UNL     1      -8.751  13.783  67.957  1.00  0.00    -0.181 A  
HETATM    8  I   UNL     1      -6.777  12.227  72.205  1.00  0.00     8.430 I  
HETATM    9  C   UNL     1      -8.037  14.629  68.826  1.00  0.00    -0.152 A  
HETATM   10  C   UNL     1      -7.590  12.759  70.327  1.00  0.00     2.754 A  
HETATM   11  C   UNL     1      -7.451  14.111  69.989  1.00  0.00     0.555 A  
HETATM   12  I   UNL     1      -7.969  16.732  68.656  1.00  0.00    -0.219 I  
ENDROOT
BRANCH   7  13
HETATM   13  N   UNL     1      -9.422  14.261  66.792  1.00  0.00    -0.264 N  
HETATM   14  O   UNL     1     -11.387  14.908  67.843  1.00  0.00    -0.302 OA 
HETATM   15  C   UNL     1     -10.695  14.808  66.833  1.00  0.00    -0.308 C  
HETATM   16  H   UNL     1      -8.945  14.198  65.893  1.00  0.00     0.000 HD 
BRANCH  15  17
HETATM   17  C   UNL     1     -11.137  15.443  65.521  1.00  0.00    -0.301 C  
BRANCH  17  18
HETATM   18  C   UNL     1     -12.197  14.574  64.849  1.00  0.00    -0.409 C  
BRANCH  18  19
HETATM   19  C   UNL     1     -11.812  13.101  64.679  1.00  0.00    -0.417 C  
BRANCH  19  20
HETATM   20  C   UNL     1     -10.705  12.833  63.653  1.00  0.00    -0.330 C  
BRANCH  20  21
HETATM   21  C   UNL     1     -10.345  11.351  63.630  1.00  0.00    -0.410 C  
HETATM   22  N   UNL     1      -9.874  10.875  64.845  1.00  0.00    -0.260 N  
HETATM   23  O   UNL     1     -10.397  10.686  62.601  1.00  0.00     0.081 OA 
HETATM   24  H   UNL     1      -9.805  11.514  65.637  1.00  0.00     0.000 HD 
BRANCH  22  25
HETATM   25  C   UNL     1      -9.485   9.513  65.014  1.00  0.00    -0.204 A  
HETATM   26  C   UNL     1     -10.167   8.641  65.876  1.00  0.00     0.499 A  
HETATM   27  I   UNL     1     -11.630   9.262  67.277  1.00  0.00     4.301 I  
HETATM   28  C   UNL     1      -9.781   7.301  65.984  1.00  0.00     0.160 A  
HETATM   29  C   UNL     1      -8.664   6.819  65.289  1.00  0.00     0.076 A  
HETATM   30  I   UNL     1      -8.197   4.798  65.696  1.00  0.00    -0.123 I  
HETATM   31  C   UNL     1      -7.917   7.672  64.457  1.00  0.00    -0.130 A  
HETATM   32  C   UNL     1      -6.666   7.204  63.792  1.00  0.00    -0.044 C  
HETATM   33  C   UNL     1      -8.342   9.021  64.324  1.00  0.00    -0.173 A  
HETATM   34  O   UNL     1      -5.626   7.837  63.809  1.00  0.00    -0.047 OA 
HETATM   35  I   UNL     1      -7.365  10.386  62.962  1.00  0.00     0.096 I  
HETATM   36  O   UNL     1      -6.778   6.034  63.127  1.00  0.00    -0.038 OA 
ENDBRANCH  22  25
ENDBRANCH  20  21
ENDBRANCH  19  20
ENDBRANCH  18  19
ENDBRANCH  17  18
ENDBRANCH  15  17
ENDBRANCH   7  13
TORSDOF 7
ENDMDL
MODEL      291
REMARK 921   NORMALIZED FREE ENERGY PREDICTED BY IDOCK:   18.41 KCAL/MOL
REMARK 922        TOTAL FREE ENERGY PREDICTED BY IDOCK:   25.03 KCAL/MOL
REMARK 923 INTER-LIGAND FREE ENERGY PREDICTED BY IDOCK:   18.84 KCAL/MOL
REMARK 924 INTRA-LIGAND FREE ENERGY PREDICTED BY IDOCK:    6.19 KCAL/MOL
REMARK 927      BINDING AFFINITY PREDICTED BY RF-SCORE:    0.00 PKD
ROOT
HETATM    1  O   UNL     1      -9.246   9.783  65.403  1.00  0.00    -0.191 OA 
HETATM    2  C   UNL     1     -10.044   9.662  66.487  1.00  0.00    -0.244 C  
HETATM    3  C   UNL     1      -9.909  10.761  67.481  1.00  0.00    -0.197 A  
HETATM    4  O   UNL     1     -10.843   8.750  66.601  1.00  0.00    -0.079 OA 
HETATM    5  C   UNL     1     -11.058  11.414  68.002  1.00  0.00    -0.257 A  
HETATM    6  I   UNL     1     -13.035  10.981  67.244  1.00  0.00    10.927 I  
HETATM    7  C   UNL     1     -10.953  12.443  68.980  1.00  0.00    -0.197 A  
HETATM    8  I   UNL     1      -6.826  10.196  67.471  1.00  0.00    -0.078 I  
HETATM    9  C   UNL     1      -9.674  12.799  69.444  1.00  0.00     1.019 A  
HETATM   10  C   UNL     1      -8.649  11.140  67.979  1.00  0.00    -0.140 A  
HETATM   11  C   UNL     1      -8.536  12.159  68.932  1.00  0.00     0.204 A  
HETATM   12  I   UNL     1      -9.312  14.084  71.080  1.00  0.00     7.850 I  
ENDROOT
BRANCH   7  13
HETATM   13  N   UNL     1     -12.152  13.012  69.507  1.00  0.00    -0.270 N  
HETATM   14  O   UNL     1     -12.233  11.749  71.451  1.00  0.00    -0.134 OA 
HETATM   15  C   UNL     1     -12.691  12.626  70.724  1.00  0.00    -0.130 C  
HETATM   16  H   UNL     1     -12.630  13.732  68.966  1.00  0.00     0.000 HD 
BRANCH  15  17
HETATM   17  C   UNL     1     -13.847  13.501  71.192  1.00  0.00     0.306 C  
BRANCH  17  18
HETATM   18  C   UNL     1     -13.310  14.744  71.897  1.00  0.00    -0.452 C  
BRANCH  18  19
HETATM   19  C   UNL     1     -13.204  15.992  71.014  1.00  0.00     0.502 C  
BRANCH  19  20
HETATM   20  C   UNL     1     -12.792  15.729  69.562  1.00  0.00     0.570 C  
BRANCH  20  21
HETATM   21  C   UNL     1     -11.455  16.396  69.256  1.00  0.00    -0.165 C  
HETATM   22  N   UNL     1     -11.027  16.205  67.949  1.00  0.00    -0.334 N  
HETATM   23  O   UNL     1     -10.802  16.970  70.120  1.00  0.00    -0.089 OA 
HETATM   24  H   UNL     1     -11.605  15.661  67.311  1.00  0.00     0.000 HD 
BRANCH  22  25
HETATM   25  C   UNL     1      -9.796  16.754  67.480  1.00  0.00    -0.255 A  
HETATM   26  C   UNL     1      -9.153  16.273  66.328  1.00  0.00    -0.331 A  
HETATM   27  I   UNL     1      -9.706  14.495  65.317  1.00  0.00     0.586 I  
HETATM   28  C   UNL     1      -7.969  16.862  65.876  1.00  0.00     0.070 A  
HETATM   29  C   UNL     1      -7.363  17.899  66.599  1.00  0.00    -0.225 A  
HETATM   30  I   UNL     1      -5.521  18.554  65.794  1.00  0.00    -0.256 I  
HETATM   31  C   UNL     1      -7.942  18.374  67.789  1.00  0.00    -0.258 A  
HETATM   32  C   UNL     1      -7.257  19.402  68.627  1.00  0.00    -0.339 C  
HETATM   33  C   UNL     1      -9.166  17.794  68.218  1.00  0.00    -0.280 A  
HETATM   34  O   UNL     1      -7.119  19.295  69.832  1.00  0.00    -0.055 OA 
HETATM   35  I   UNL     1     -10.226  18.540  69.947  1.00  0.00     2.050 I  
HETATM   36  O   UNL     1      -6.832  20.493  67.954  1.00  0.00    -0.288 OA 
ENDBRANCH  22  25
ENDBRANCH  20  21
ENDBRANCH  19  20
ENDBRANCH  18  19
ENDBRANCH  17  18
ENDBRANCH  15  17
ENDBRANCH   7  13
TORSDOF 7
ENDMDL
MODEL      292
REMARK 921   NORMALIZED FREE ENERGY PREDICTED BY IDOCK:   19.06 KCAL/MOL
REMARK 922        TOTAL FREE ENERGY PREDICTED BY IDOCK:   25.93 KCAL/MOL
REMARK 923 INTER-LIGAND FREE ENERGY PREDICTED BY IDOCK:    5.07 KCAL/MOL
REMARK 924 INTRA-LIGAND FREE ENERGY PREDICTED BY IDOCK:   20.86 KCAL/MOL
REMARK 927      BINDING AFFINITY PREDICTED BY RF-SCORE:    0.00 PKD
ROOT
HETATM    1  O   UNL     1      -6.820  17.645  69.149  1.00  0.00    -0.248 OA 
HETATM    2  C   UNL     1      -7.809  16.801  68.781  1.00  0.00    -0.243 C  
HETATM    3  C   UNL     1      -7.346  15.457  68.344  1.00  0.00    -0.114 A  
HETATM    4  O   UNL     1      -8.985  17.113  68.859  1.00  0.00    -0.261 OA 
HETATM    5  C   UNL     1      -7.949  14.278  68.860  1.00  0.00    -0.080 A  
HETATM    6  I   UNL     1      -9.429  14.370  70.432  1.00  0.00     3.147 I  
HETATM    7  C   UNL     1      -7.545  12.983  68.428  1.00  0.00    -0.133 A  
HETATM    8  I   UNL     1      -5.429  16.926  66.347  1.00  0.00     0.761 I  
HETATM    9  C   UNL     1      -6.534  12.885  67.456  1.00  0.00    -0.160 A  
HETATM   10  C   UNL     1      -6.345  15.316  67.367  1.00  0.00    -0.005 A  
HETATM   11  C   UNL     1      -5.933  14.045  66.946  1.00  0.00     1.647 A  
HETATM   12  I   UNL     1      -5.986  11.096  66.478  1.00  0.00    -0.069 I  
ENDROOT
BRANCH   7  13
HETATM   13  N   UNL     1      -8.238  11.844  68.939  1.00  0.00    -0.359 N  
HETATM   14  O   UNL     1     -10.110  12.976  69.713  1.00  0.00     0.973 OA 
HETATM   15  C   UNL     1      -9.488  11.933  69.532  1.00  0.00     1.145 C  
HETATM   16  H   UNL     1      -7.795  10.928  68.865  1.00  0.00     0.000 HD 
BRANCH  15  17
HETATM   17  C   UNL     1     -10.134  10.583  69.815  1.00  0.00    -0.126 C  
BRANCH  17  18
HETATM   18  C   UNL     1     -11.582  10.777  70.258  1.00  0.00    -0.427 C  
BRANCH  18  19
HETATM   19  C   UNL     1     -12.606  10.820  69.119  1.00  0.00     0.444 C  
BRANCH  19  20
HETATM   20  C   UNL     1     -12.012  10.996  67.718  1.00  0.00     0.211 C  
BRANCH  20  21
HETATM   21  C   UNL     1     -11.811  12.475  67.404  1.00  0.00    -0.312 C  
HETATM   22  N   UNL     1     -11.843  13.290  68.527  1.00  0.00    -0.342 N  
HETATM   23  O   UNL     1     -11.715  12.888  66.253  1.00  0.00    -0.358 OA 
HETATM   24  H   UNL     1     -11.989  12.868  69.443  1.00  0.00     0.000 HD 
BRANCH  22  25
HETATM   25  C   UNL     1     -11.675  14.703  68.428  1.00  0.00    -0.320 A  
HETATM   26  C   UNL     1     -11.972  15.568  69.493  1.00  0.00    -0.350 A  
HETATM   27  I   UNL     1     -12.998  14.977  71.250  1.00  0.00    -0.581 I  
HETATM   28  C   UNL     1     -11.757  16.945  69.373  1.00  0.00     0.907 A  
HETATM   29  C   UNL     1     -11.307  17.497  68.166  1.00  0.00     0.441 A  
HETATM   30  I   UNL     1     -11.169  19.607  68.178  1.00  0.00     1.927 I  
HETATM   31  C   UNL     1     -11.052  16.674  67.055  1.00  0.00     0.145 A  
HETATM   32  C   UNL     1     -10.674  17.254  65.733  1.00  0.00    -0.131 C  
HETATM   33  C   UNL     1     -11.236  15.273  67.201  1.00  0.00    -0.291 A  
HETATM   34  O   UNL     1     -11.199  16.922  64.685  1.00  0.00    -0.915 OA 
HETATM   35  I   UNL     1     -10.734  13.895  65.613  1.00  0.00    -0.347 I  
HETATM   36  O   UNL     1      -9.669  18.155  65.772  1.00  0.00    -0.503 OA 
ENDBRANCH  22  25
ENDBRANCH  20  21
ENDBRANCH  19  20
ENDBRANCH  18  19
ENDBRANCH  17  18
ENDBRANCH  15  17
ENDBRANCH   7  13
TORSDOF 7
ENDMDL
MODEL      293
REMARK 921   NORMALIZED FREE ENERGY PREDICTED BY IDOCK:   19.18 KCAL/MOL
REMARK 922        TOTAL FREE ENERGY PREDICTED BY IDOCK:   26.11 KCAL/MOL
REMARK 923 INTER-LIGAND FREE ENERGY PREDICTED BY IDOCK:   23.88 KCAL/MOL
REMARK 924 INTRA-LIGAND FREE ENERGY PREDICTED BY IDOCK:    2.22 KCAL/MOL
REMARK 927      BINDING AFFINITY PREDICTED BY RF-SCORE:    0.00 PKD
ROOT
HETATM    1  O   UNL     1      -7.599  15.623  64.884  1.00  0.00     5.743 OA 
HETATM    2  C   UNL     1      -7.242  14.680  65.782  1.00  0.00     6.154 C  
HETATM    3  C   UNL     1      -8.297  13.673  66.075  1.00  0.00     1.462 A  
HETATM    4  O   UNL     1      -6.125  14.639  66.265  1.00  0.00     2.796 OA 
HETATM    5  C   UNL     1      -7.999  12.283  66.058  1.00  0.00     0.909 A  
HETATM    6  I   UNL     1      -6.064  11.559  65.427  1.00  0.00     2.451 I  
HETATM    7  C   UNL     1      -8.985  11.304  66.370  1.00  0.00    -0.188 A  
HETATM    8  I   UNL     1     -10.217  16.073  66.686  1.00  0.00    -0.321 I  
HETATM    9  C   UNL     1     -10.276  11.740  66.717  1.00  0.00    -0.211 A  
HETATM   10  C   UNL     1      -9.598  14.066  66.436  1.00  0.00    -0.283 A  
HETATM   11  C   UNL     1     -10.577  13.109  66.733  1.00  0.00    -0.267 A  
HETATM   12  I   UNL     1     -11.794  10.487  67.482  1.00  0.00     2.587 I  
ENDROOT
BRANCH   7  13
HETATM   13  N   UNL     1      -8.600   9.930  66.396  1.00  0.00    -0.127 N  
HETATM   14  O   UNL     1      -9.907   9.236  64.608  1.00  0.00     0.250 OA 
HETATM   15  C   UNL     1      -9.086   8.999  65.490  1.00  0.00    -0.214 C  
HETATM   16  H   UNL     1      -7.941   9.620  67.110  1.00  0.00     0.000 HD 
BRANCH  15  17
HETATM   17  C   UNL     1      -8.391   7.646  65.563  1.00  0.00    -0.139 C  
BRANCH  17  18
HETATM   18  C   UNL     1      -7.673   7.498  66.903  1.00  0.00    -0.110 C  
BRANCH  18  19
HETATM   19  C   UNL     1      -6.144   7.569  66.828  1.00  0.00    -0.044 C  
BRANCH  19  20
HETATM   20  C   UNL     1      -5.476   8.393  67.934  1.00  0.00    -0.035 C  
BRANCH  20  21
HETATM   21  C   UNL     1      -6.447   8.628  69.087  1.00  0.00    -0.043 C  
HETATM   22  N   UNL     1      -7.770   8.365  68.761  1.00  0.00    -0.100 N  
HETATM   23  O   UNL     1      -6.078   9.083  70.164  1.00  0.00    -0.035 OA 
HETATM   24  H   UNL     1      -7.996   8.046  67.820  1.00  0.00     0.000 HD 
BRANCH  22  25
HETATM   25  C   UNL     1      -8.820   8.530  69.712  1.00  0.00    -0.137 A  
HETATM   26  C   UNL     1      -9.209   9.793  70.185  1.00  0.00    -0.208 A  
HETATM   27  I   UNL     1      -8.122  11.578  69.835  1.00  0.00     2.714 I  
HETATM   28  C   UNL     1     -10.270   9.919  71.087  1.00  0.00     0.214 A  
HETATM   29  C   UNL     1     -10.921   8.785  71.591  1.00  0.00    -0.321 A  
HETATM   30  I   UNL     1     -12.411   9.209  73.030  1.00  0.00     2.639 I  
HETATM   31  C   UNL     1     -10.526   7.497  71.188  1.00  0.00    -0.216 A  
HETATM   32  C   UNL     1     -11.136   6.276  71.792  1.00  0.00    -0.273 C  
HETATM   33  C   UNL     1      -9.473   7.382  70.241  1.00  0.00    -0.165 A  
HETATM   34  O   UNL     1     -10.479   5.337  72.204  1.00  0.00    -0.209 OA 
HETATM   35  I   UNL     1      -8.880   5.467  69.435  1.00  0.00    -0.141 I  
HETATM   36  O   UNL     1     -12.486   6.265  71.815  1.00  0.00    -0.248 OA 
ENDBRANCH  22  25
ENDBRANCH  20  21
ENDBRANCH  19  20
ENDBRANCH  18  19
ENDBRANCH  17  18
ENDBRANCH  15  17
ENDBRANCH   7  13
TORSDOF 7
ENDMDL
MODEL      294
REMARK 921   NORMALIZED FREE ENERGY PREDICTED BY IDOCK:   19.84 KCAL/MOL
REMARK 922        TOTAL FREE ENERGY PREDICTED BY IDOCK:   27.04 KCAL/MOL
REMARK 923 INTER-LIGAND FREE ENERGY PREDICTED BY IDOCK:    8.93 KCAL/MOL
REMARK 924 INTRA-LIGAND FREE ENERGY PREDICTED BY IDOCK:   18.12 KCAL/MOL
REMARK 927      BINDING AFFINITY PREDICTED BY RF-SCORE:    0.00 PKD
ROOT
HETATM    1  O   UNL     1     -11.375   4.262  62.954  1.00  0.00     0.278 OA 
HETATM    2  C   UNL     1     -11.205   4.757  64.200  1.00  0.00     1.235 C  
HETATM    3  C   UNL     1      -9.786   4.973  64.592  1.00  0.00     0.311 A  
HETATM    4  O   UNL     1     -12.148   5.050  64.912  1.00  0.00     1.283 OA 
HETATM    5  C   UNL     1      -9.372   6.202  65.172  1.00  0.00     0.554 A  
HETATM    6  I   UNL     1     -10.728   7.876  65.340  1.00  0.00     7.203 I  
HETATM    7  C   UNL     1      -8.027   6.417  65.587  1.00  0.00    -0.120 A  
HETATM    8  I   UNL     1      -9.258   1.994  63.776  1.00  0.00    -0.116 I  
HETATM    9  C   UNL     1      -7.101   5.370  65.426  1.00  0.00    -0.066 A  
HETATM   10  C   UNL     1      -8.831   3.950  64.457  1.00  0.00    -0.124 A  
HETATM   11  C   UNL     1      -7.503   4.156  64.852  1.00  0.00    -0.073 A  
HETATM   12  I   UNL     1      -5.146   5.372  66.224  1.00  0.00    -0.005 I  
ENDROOT
BRANCH   7  13
HETATM   13  N   UNL     1      -7.694   7.651  66.221  1.00  0.00    -0.087 N  
HETATM   14  O   UNL     1      -9.502   7.718  67.674  1.00  0.00    -0.140 OA 
HETATM   15  C   UNL     1      -8.460   8.200  67.239  1.00  0.00    -0.125 C  
HETATM   16  H   UNL     1      -6.860   8.151  65.913  1.00  0.00     0.000 HD 
BRANCH  15  17
HETATM   17  C   UNL     1      -7.817   9.404  67.913  1.00  0.00    -0.091 C  
BRANCH  17  18
HETATM   18  C   UNL     1      -7.303   9.016  69.298  1.00  0.00    -0.070 C  
BRANCH  18  19
HETATM   19  C   UNL     1      -7.617   7.578  69.724  1.00  0.00    -0.094 C  
BRANCH  19  20
HETATM   20  C   UNL     1      -9.004   7.370  70.340  1.00  0.00    -0.150 C  
BRANCH  20  21
HETATM   21  C   UNL     1      -9.889   8.588  70.092  1.00  0.00    -0.178 C  
HETATM   22  N   UNL     1      -9.174   9.750  69.839  1.00  0.00    -0.226 N  
HETATM   23  O   UNL     1     -11.109   8.536  70.193  1.00  0.00    -0.248 OA 
HETATM   24  H   UNL     1      -8.155   9.716  69.833  1.00  0.00     0.000 HD 
BRANCH  22  25
HETATM   25  C   UNL     1      -9.832  10.990  69.586  1.00  0.00     0.313 A  
HETATM   26  C   UNL     1     -11.190  11.191  69.881  1.00  0.00    -0.217 A  
HETATM   27  I   UNL     1     -12.528   9.640  70.420  1.00  0.00     0.383 I  
HETATM   28  C   UNL     1     -11.790  12.434  69.656  1.00  0.00    -0.380 A  
HETATM   29  C   UNL     1     -11.069  13.483  69.069  1.00  0.00    -0.250 A  
HETATM   30  I   UNL     1     -12.210  15.227  68.715  1.00  0.00     0.415 I  
HETATM   31  C   UNL     1      -9.722  13.308  68.706  1.00  0.00     0.024 A  
HETATM   32  C   UNL     1      -8.970  14.376  67.985  1.00  0.00    -0.183 C  
HETATM   33  C   UNL     1      -9.111  12.054  68.975  1.00  0.00     0.352 A  
HETATM   34  O   UNL     1      -8.298  14.164  66.991  1.00  0.00    -0.191 OA 
HETATM   35  I   UNL     1      -7.010  11.715  68.598  1.00  0.00    -0.103 I  
HETATM   36  O   UNL     1      -9.053  15.605  68.540  1.00  0.00    -0.184 OA 
ENDBRANCH  22  25
ENDBRANCH  20  21
ENDBRANCH  19  20
ENDBRANCH  18  19
ENDBRANCH  17  18
ENDBRANCH  15  17
ENDBRANCH   7  13
TORSDOF 7
ENDMDL
MODEL      295
REMARK 921   NORMALIZED FREE ENERGY PREDICTED BY IDOCK:   20.05 KCAL/MOL
REMARK 922        TOTAL FREE ENERGY PREDICTED BY IDOCK:   27.33 KCAL/MOL
REMARK 923 INTER-LIGAND FREE ENERGY PREDICTED BY IDOCK:   18.63 KCAL/MOL
REMARK 924 INTRA-LIGAND FREE ENERGY PREDICTED BY IDOCK:    8.71 KCAL/MOL
REMARK 927      BINDING AFFINITY PREDICTED BY RF-SCORE:    0.00 PKD
ROOT
HETATM    1  O   UNL     1     -10.095  11.127  72.098  1.00  0.00     7.843 OA 
HETATM    2  C   UNL     1      -9.842  10.264  71.090  1.00  0.00     1.764 C  
HETATM    3  C   UNL     1      -9.311  10.896  69.852  1.00  0.00     0.745 A  
HETATM    4  O   UNL     1      -9.992   9.062  71.217  1.00  0.00    -0.260 OA 
HETATM    5  C   UNL     1      -8.163  10.366  69.202  1.00  0.00    -0.157 A  
HETATM    6  I   UNL     1      -7.029   8.746  70.073  1.00  0.00    -0.055 I  
HETATM    7  C   UNL     1      -7.659  10.934  67.998  1.00  0.00    -0.092 A  
HETATM    8  I   UNL     1     -11.771  12.835  69.958  1.00  0.00     0.069 I  
HETATM    9  C   UNL     1      -8.335  12.035  67.441  1.00  0.00    -0.171 A  
HETATM   10  C   UNL     1      -9.962  11.991  69.258  1.00  0.00     0.425 A  
HETATM   11  C   UNL     1      -9.465  12.563  68.079  1.00  0.00    -0.209 A  
HETATM   12  I   UNL     1      -7.931  12.843  65.533  1.00  0.00     4.888 I  
ENDROOT
BRANCH   7  13
HETATM   13  N   UNL     1      -6.541  10.312  67.364  1.00  0.00    -0.067 N  
HETATM   14  O   UNL     1      -7.400  10.317  65.208  1.00  0.00    -0.141 OA 
HETATM   15  C   UNL     1      -6.495  10.068  66.000  1.00  0.00    -0.093 C  
HETATM   16  H   UNL     1      -5.744  10.037  67.937  1.00  0.00     0.000 HD 
BRANCH  15  17
HETATM   17  C   UNL     1      -5.136   9.593  65.504  1.00  0.00    -0.038 C  
BRANCH  17  18
HETATM   18  C   UNL     1      -5.166   8.087  65.255  1.00  0.00    -0.028 C  
BRANCH  18  19
HETATM   19  C   UNL     1      -5.820   7.663  63.935  1.00  0.00    -0.049 C  
BRANCH  19  20
HETATM   20  C   UNL     1      -6.984   6.677  64.073  1.00  0.00    -0.051 C  
BRANCH  20  21
HETATM   21  C   UNL     1      -8.092   7.274  64.935  1.00  0.00    -0.108 C  
HETATM   22  N   UNL     1      -8.370   6.531  66.074  1.00  0.00    -0.127 N  
HETATM   23  O   UNL     1      -8.718   8.271  64.592  1.00  0.00    -0.051 OA 
HETATM   24  H   UNL     1      -7.841   5.678  66.253  1.00  0.00     0.000 HD 
BRANCH  22  25
HETATM   25  C   UNL     1      -9.378   6.933  67.000  1.00  0.00    -0.145 A  
HETATM   26  C   UNL     1     -10.280   7.971  66.720  1.00  0.00    -0.297 A  
HETATM   27  I   UNL     1     -10.093   9.294  65.076  1.00  0.00     2.254 I  
HETATM   28  C   UNL     1     -11.281   8.310  67.636  1.00  0.00     0.617 A  
HETATM   29  C   UNL     1     -11.361   7.669  68.880  1.00  0.00     0.537 A  
HETATM   30  I   UNL     1     -12.875   8.425  70.148  1.00  0.00     2.450 I  
HETATM   31  C   UNL     1     -10.443   6.662  69.225  1.00  0.00    -0.247 A  
HETATM   32  C   UNL     1     -10.448   6.043  70.583  1.00  0.00    -0.246 C  
HETATM   33  C   UNL     1      -9.455   6.298  68.271  1.00  0.00    -0.117 A  
HETATM   34  O   UNL     1      -9.440   5.897  71.252  1.00  0.00    -0.158 OA 
HETATM   35  I   UNL     1      -8.084   4.666  68.628  1.00  0.00    -0.087 I  
HETATM   36  O   UNL     1     -11.655   5.612  71.008  1.00  0.00     0.026 OA 
ENDBRANCH  22  25
ENDBRANCH  20  21
ENDBRANCH  19  20
ENDBRANCH  18  19
ENDBRANCH  17  18
ENDBRANCH  15  17
ENDBRANCH   7  13
TORSDOF 7
ENDMDL
MODEL      296
REMARK 921   NORMALIZED FREE ENERGY PREDICTED BY IDOCK:   21.36 KCAL/MOL
REMARK 922        TOTAL FREE ENERGY PREDICTED BY IDOCK:   29.17 KCAL/MOL
REMARK 923 INTER-LIGAND FREE ENERGY PREDICTED BY IDOCK:   29.01 KCAL/MOL
REMARK 924 INTRA-LIGAND FREE ENERGY PREDICTED BY IDOCK:    0.17 KCAL/MOL
REMARK 927      BINDING AFFINITY PREDICTED BY RF-SCORE:    0.00 PKD
ROOT
HETATM    1  O   UNL     1      -7.603  15.610  64.800  1.00  0.00     6.501 OA 
HETATM    2  C   UNL     1      -7.339  14.556  65.602  1.00  0.00     6.767 C  
HETATM    3  C   UNL     1      -8.480  13.619  65.789  1.00  0.00     1.797 A  
HETATM    4  O   UNL     1      -6.235  14.372  66.083  1.00  0.00     3.617 OA 
HETATM    5  C   UNL     1      -8.300  12.218  65.636  1.00  0.00     1.072 A  
HETATM    6  I   UNL     1      -6.425  11.396  64.945  1.00  0.00     2.842 I  
HETATM    7  C   UNL     1      -9.369  11.301  65.845  1.00  0.00    -0.219 A  
HETATM    8  I   UNL     1     -10.197  16.103  66.626  1.00  0.00    -0.304 I  
HETATM    9  C   UNL     1     -10.623  11.810  66.228  1.00  0.00    -0.252 A  
HETATM   10  C   UNL     1      -9.746  14.085  66.182  1.00  0.00    -0.280 A  
HETATM   11  C   UNL     1     -10.807  13.191  66.378  1.00  0.00    -0.299 A  
HETATM   12  I   UNL     1     -12.251  10.622  66.858  1.00  0.00     5.880 I  
ENDROOT
BRANCH   7  13
HETATM   13  N   UNL     1      -9.103   9.903  65.737  1.00  0.00    -0.157 N  
HETATM   14  O   UNL     1     -10.472   9.495  63.908  1.00  0.00     1.953 OA 
HETATM   15  C   UNL     1      -9.670   9.107  64.753  1.00  0.00     0.560 C  
HETATM   16  H   UNL     1      -8.470   9.472  66.410  1.00  0.00     0.000 HD 
BRANCH  15  17
HETATM   17  C   UNL     1      -9.092   7.699  64.690  1.00  0.00     0.929 C  
BRANCH  17  18
HETATM   18  C   UNL     1      -8.510   7.310  66.047  1.00  0.00    -0.148 C  
BRANCH  18  19
HETATM   19  C   UNL     1      -6.984   7.182  66.082  1.00  0.00    -0.065 C  
BRANCH  19  20
HETATM   20  C   UNL     1      -6.273   8.134  67.050  1.00  0.00    -0.055 C  
BRANCH  20  21
HETATM   21  C   UNL     1      -6.505   7.701  68.494  1.00  0.00    -0.048 C  
HETATM   22  N   UNL     1      -7.584   6.843  68.650  1.00  0.00    -0.103 N  
HETATM   23  O   UNL     1      -5.837   8.147  69.421  1.00  0.00    -0.029 OA 
HETATM   24  H   UNL     1      -8.125   6.570  67.830  1.00  0.00     0.000 HD 
BRANCH  22  25
HETATM   25  C   UNL     1      -7.955   6.335  69.930  1.00  0.00    -0.115 A  
HETATM   26  C   UNL     1      -8.522   7.150  70.923  1.00  0.00    -0.133 A  
HETATM   27  I   UNL     1      -8.611   9.264  70.814  1.00  0.00     0.039 I  
HETATM   28  C   UNL     1      -8.910   6.608  72.152  1.00  0.00    -0.134 A  
HETATM   29  C   UNL     1      -8.679   5.257  72.444  1.00  0.00    -0.125 A  
HETATM   30  I   UNL     1      -9.237   4.687  74.402  1.00  0.00    -0.141 I  
HETATM   31  C   UNL     1      -8.062   4.417  71.500  1.00  0.00    -0.091 A  
HETATM   32  C   UNL     1      -7.713   3.005  71.832  1.00  0.00    -0.053 C  
HETATM   33  C   UNL     1      -7.708   4.969  70.240  1.00  0.00    -0.067 A  
HETATM   34  O   UNL     1      -6.622   2.516  71.599  1.00  0.00    -0.018 OA 
HETATM   35  I   UNL     1      -6.891   3.744  68.657  1.00  0.00    -0.047 I  
HETATM   36  O   UNL     1      -8.715   2.283  72.379  1.00  0.00    -0.065 OA 
ENDBRANCH  22  25
ENDBRANCH  20  21
ENDBRANCH  19  20
ENDBRANCH  18  19
ENDBRANCH  17  18
ENDBRANCH  15  17
ENDBRANCH   7  13
TORSDOF 7
ENDMDL
MODEL      297
REMARK 921   NORMALIZED FREE ENERGY PREDICTED BY IDOCK:   21.42 KCAL/MOL
REMARK 922        TOTAL FREE ENERGY PREDICTED BY IDOCK:   29.26 KCAL/MOL
REMARK 923 INTER-LIGAND FREE ENERGY PREDICTED BY IDOCK:   23.86 KCAL/MOL
REMARK 924 INTRA-LIGAND FREE ENERGY PREDICTED BY IDOCK:    5.40 KCAL/MOL
REMARK 927      BINDING AFFINITY PREDICTED BY RF-SCORE:    0.00 PKD
ROOT
HETATM    1  O   UNL     1      -5.855  12.139  65.561  1.00  0.00     1.510 OA 
HETATM    2  C   UNL     1      -6.412  11.188  66.342  1.00  0.00    -0.109 C  
HETATM    3  C   UNL     1      -7.853  10.933  66.076  1.00  0.00    -0.121 A  
HETATM    4  O   UNL     1      -5.760  10.561  67.158  1.00  0.00    -0.041 OA 
HETATM    5  C   UNL     1      -8.337   9.607  65.912  1.00  0.00    -0.120 A  
HETATM    6  I   UNL     1      -6.989   7.920  65.852  1.00  0.00    -0.058 I  
HETATM    7  C   UNL     1      -9.718   9.338  65.692  1.00  0.00    -0.232 A  
HETATM    8  I   UNL     1      -8.314  14.013  66.424  1.00  0.00     1.474 I  
HETATM    9  C   UNL     1     -10.614  10.422  65.656  1.00  0.00    -0.026 A  
HETATM   10  C   UNL     1      -8.783  11.987  66.042  1.00  0.00     0.119 A  
HETATM   11  C   UNL     1     -10.142  11.733  65.814  1.00  0.00    -0.270 A  
HETATM   12  I   UNL     1     -12.717  10.232  65.626  1.00  0.00    13.922 I  
ENDROOT
BRANCH   7  13
HETATM   13  N   UNL     1     -10.145   7.980  65.600  1.00  0.00     0.293 N  
HETATM   14  O   UNL     1     -12.013   8.177  66.962  1.00  0.00     3.194 OA 
HETATM   15  C   UNL     1     -11.283   7.508  66.237  1.00  0.00     2.323 C  
HETATM   16  H   UNL     1      -9.591   7.329  65.043  1.00  0.00     0.000 HD 
BRANCH  15  17
HETATM   17  C   UNL     1     -11.669   6.089  65.838  1.00  0.00     2.560 C  
BRANCH  17  18
HETATM   18  C   UNL     1     -11.293   5.112  66.950  1.00  0.00     1.419 C  
BRANCH  18  19
HETATM   19  C   UNL     1     -10.045   4.267  66.671  1.00  0.00    -0.135 C  
BRANCH  19  20
HETATM   20  C   UNL     1      -8.735   5.054  66.574  1.00  0.00    -0.109 C  
BRANCH  20  21
HETATM   21  C   UNL     1      -8.009   5.055  67.916  1.00  0.00    -0.094 C  
HETATM   22  N   UNL     1      -8.112   6.257  68.601  1.00  0.00    -0.108 N  
HETATM   23  O   UNL     1      -7.339   4.100  68.293  1.00  0.00    -0.059 OA 
HETATM   24  H   UNL     1      -8.640   7.023  68.185  1.00  0.00     0.000 HD 
BRANCH  22  25
HETATM   25  C   UNL     1      -7.495   6.446  69.873  1.00  0.00    -0.088 A  
HETATM   26  C   UNL     1      -6.233   5.913  70.180  1.00  0.00    -0.027 A  
HETATM   27  I   UNL     1      -5.213   4.508  68.967  1.00  0.00    -0.004 I  
HETATM   28  C   UNL     1      -5.643   6.154  71.424  1.00  0.00    -0.026 A  
HETATM   29  C   UNL     1      -6.327   6.871  72.416  1.00  0.00    -0.053 A  
HETATM   30  I   UNL     1      -5.293   7.008  74.255  1.00  0.00    -0.051 I  
HETATM   31  C   UNL     1      -7.617   7.374  72.171  1.00  0.00    -0.086 A  
HETATM   32  C   UNL     1      -8.401   8.048  73.248  1.00  0.00    -0.211 C  
HETATM   33  C   UNL     1      -8.190   7.158  70.890  1.00  0.00    -0.116 A  
HETATM   34  O   UNL     1      -9.563   7.778  73.494  1.00  0.00    -0.277 OA 
HETATM   35  I   UNL     1     -10.102   8.010  70.348  1.00  0.00    -0.220 I  
HETATM   36  O   UNL     1      -7.738   9.019  73.912  1.00  0.00    -0.314 OA 
ENDBRANCH  22  25
ENDBRANCH  20  21
ENDBRANCH  19  20
ENDBRANCH  18  19
ENDBRANCH  17  18
ENDBRANCH  15  17
ENDBRANCH   7  13
TORSDOF 7
ENDMDL
MODEL      298
REMARK 921   NORMALIZED FREE ENERGY PREDICTED BY IDOCK:   23.67 KCAL/MOL
REMARK 922        TOTAL FREE ENERGY PREDICTED BY IDOCK:   32.44 KCAL/MOL
REMARK 923 INTER-LIGAND FREE ENERGY PREDICTED BY IDOCK:   22.74 KCAL/MOL
REMARK 924 INTRA-LIGAND FREE ENERGY PREDICTED BY IDOCK:    9.70 KCAL/MOL
REMARK 927      BINDING AFFINITY PREDICTED BY RF-SCORE:    0.00 PKD
ROOT
HETATM    1  O   UNL     1     -11.510  18.553  72.579  1.00  0.00     2.547 OA 
HETATM    2  C   UNL     1     -10.567  17.586  72.551  1.00  0.00     4.240 C  
HETATM    3  C   UNL     1     -10.893  16.427  71.677  1.00  0.00     0.970 A  
HETATM    4  O   UNL     1      -9.515  17.693  73.156  1.00  0.00    10.144 OA 
HETATM    5  C   UNL     1      -9.943  15.931  70.743  1.00  0.00     1.071 A  
HETATM    6  I   UNL     1      -8.061  16.942  70.415  1.00  0.00     4.604 I  
HETATM    7  C   UNL     1     -10.222  14.802  69.922  1.00  0.00     0.104 A  
HETATM    8  I   UNL     1     -13.612  16.214  73.220  1.00  0.00     0.873 I  
HETATM    9  C   UNL     1     -11.467  14.163  70.062  1.00  0.00    -0.193 A  
HETATM   10  C   UNL     1     -12.122  15.754  71.791  1.00  0.00    -0.464 A  
HETATM   11  C   UNL     1     -12.410  14.650  70.979  1.00  0.00    -0.403 A  
HETATM   12  I   UNL     1     -11.973  12.323  69.159  1.00  0.00    -0.049 I  
ENDROOT
BRANCH   7  13
HETATM   13  N   UNL     1      -9.198  14.318  69.053  1.00  0.00    -0.392 N  
HETATM   14  O   UNL     1     -10.493  14.199  67.131  1.00  0.00    -0.267 OA 
HETATM   15  C   UNL     1      -9.416  14.070  67.707  1.00  0.00    -0.209 C  
HETATM   16  H   UNL     1      -8.269  14.149  69.438  1.00  0.00     0.000 HD 
BRANCH  15  17
HETATM   17  C   UNL     1      -8.146  13.762  66.923  1.00  0.00     0.119 C  
BRANCH  17  18
HETATM   18  C   UNL     1      -7.059  13.254  67.867  1.00  0.00    -0.133 C  
BRANCH  18  19
HETATM   19  C   UNL     1      -6.397  11.939  67.442  1.00  0.00    -0.128 C  
BRANCH  19  20
HETATM   20  C   UNL     1      -7.333  10.927  66.773  1.00  0.00    -0.134 C  
BRANCH  20  21
HETATM   21  C   UNL     1      -8.448  10.515  67.728  1.00  0.00    -0.114 C  
HETATM   22  N   UNL     1      -8.629   9.142  67.810  1.00  0.00    -0.121 N  
HETATM   23  O   UNL     1      -9.155  11.340  68.296  1.00  0.00    -0.159 OA 
HETATM   24  H   UNL     1      -8.034   8.528  67.255  1.00  0.00     0.000 HD 
BRANCH  22  25
HETATM   25  C   UNL     1      -9.629   8.570  68.651  1.00  0.00    -0.149 A  
HETATM   26  C   UNL     1     -10.936   9.077  68.712  1.00  0.00     0.072 A  
HETATM   27  I   UNL     1     -11.536  10.916  67.848  1.00  0.00     0.324 I  
HETATM   28  C   UNL     1     -11.900   8.464  69.519  1.00  0.00     1.025 A  
HETATM   29  C   UNL     1     -11.564   7.376  70.336  1.00  0.00    -0.183 A  
HETATM   30  I   UNL     1     -13.148   6.690  71.557  1.00  0.00     0.514 I  
HETATM   31  C   UNL     1     -10.252   6.872  70.350  1.00  0.00    -0.209 A  
HETATM   32  C   UNL     1      -9.851   5.784  71.290  1.00  0.00    -0.179 C  
HETATM   33  C   UNL     1      -9.291   7.476  69.496  1.00  0.00    -0.153 A  
HETATM   34  O   UNL     1      -8.847   5.833  71.976  1.00  0.00    -0.137 OA 
HETATM   35  I   UNL     1      -7.283   6.695  69.321  1.00  0.00    -0.097 I  
HETATM   36  O   UNL     1     -10.668   4.708  71.297  1.00  0.00     0.007 OA 
ENDBRANCH  22  25
ENDBRANCH  20  21
ENDBRANCH  19  20
ENDBRANCH  18  19
ENDBRANCH  17  18
ENDBRANCH  15  17
ENDBRANCH   7  13
TORSDOF 7
ENDMDL
MODEL      299
REMARK 921   NORMALIZED FREE ENERGY PREDICTED BY IDOCK:   24.00 KCAL/MOL
REMARK 922        TOTAL FREE ENERGY PREDICTED BY IDOCK:   32.90 KCAL/MOL
REMARK 923 INTER-LIGAND FREE ENERGY PREDICTED BY IDOCK:   24.41 KCAL/MOL
REMARK 924 INTRA-LIGAND FREE ENERGY PREDICTED BY IDOCK:    8.48 KCAL/MOL
REMARK 927      BINDING AFFINITY PREDICTED BY RF-SCORE:    0.00 PKD
ROOT
HETATM    1  O   UNL     1      -6.470  20.152  68.108  1.00  0.00    -0.250 OA 
HETATM    2  C   UNL     1      -6.788  19.698  69.341  1.00  0.00    -0.342 C  
HETATM    3  C   UNL     1      -7.364  18.327  69.367  1.00  0.00     0.056 A  
HETATM    4  O   UNL     1      -6.564  20.350  70.345  1.00  0.00    -0.376 OA 
HETATM    5  C   UNL     1      -6.870  17.349  70.272  1.00  0.00     1.171 A  
HETATM    6  I   UNL     1      -5.147  17.740  71.515  1.00  0.00     0.938 I  
HETATM    7  C   UNL     1      -7.431  16.042  70.338  1.00  0.00     1.378 A  
HETATM    8  I   UNL     1      -9.447  19.318  67.245  1.00  0.00    -0.474 I  
HETATM    9  C   UNL     1      -8.510  15.733  69.491  1.00  0.00    -0.138 A  
HETATM   10  C   UNL     1      -8.450  17.980  68.544  1.00  0.00    -0.305 A  
HETATM   11  C   UNL     1      -9.000  16.692  68.593  1.00  0.00    -0.246 A  
HETATM   12  I   UNL     1      -9.663  13.968  69.622  1.00  0.00     1.490 I  
ENDROOT
BRANCH   7  13
HETATM   13  N   UNL     1      -6.929  15.131  71.315  1.00  0.00     0.890 N  
HETATM   14  O   UNL     1      -8.527  13.476  71.004  1.00  0.00     5.435 OA 
HETATM   15  C   UNL     1      -7.516  13.898  71.559  1.00  0.00     4.562 C  
HETATM   16  H   UNL     1      -6.106  15.397  71.855  1.00  0.00     0.000 HD 
BRANCH  15  17
HETATM   17  C   UNL     1      -6.704  13.002  72.485  1.00  0.00     5.101 C  
BRANCH  17  18
HETATM   18  C   UNL     1      -6.227  11.764  71.729  1.00  0.00     2.353 C  
BRANCH  18  19
HETATM   19  C   UNL     1      -7.314  10.722  71.445  1.00  0.00     3.485 C  
BRANCH  19  20
HETATM   20  C   UNL     1      -7.316  10.155  70.022  1.00  0.00    -0.172 C  
BRANCH  20  21
HETATM   21  C   UNL     1      -8.113   8.856  69.963  1.00  0.00    -0.116 C  
HETATM   22  N   UNL     1      -7.584   7.845  70.753  1.00  0.00    -0.076 N  
HETATM   23  O   UNL     1      -9.077   8.718  69.219  1.00  0.00    -0.143 OA 
HETATM   24  H   UNL     1      -6.740   8.027  71.296  1.00  0.00     0.000 HD 
BRANCH  22  25
HETATM   25  C   UNL     1      -8.193   6.557  70.824  1.00  0.00    -0.125 A  
HETATM   26  C   UNL     1      -8.805   5.956  69.712  1.00  0.00    -0.128 A  
HETATM   27  I   UNL     1      -9.209   6.964  67.893  1.00  0.00    -0.129 I  
HETATM   28  C   UNL     1      -9.357   4.675  69.809  1.00  0.00    -0.215 A  
HETATM   29  C   UNL     1      -9.373   3.993  71.034  1.00  0.00    -0.149 A  
HETATM   30  I   UNL     1     -10.363   2.126  70.971  1.00  0.00     1.550 I  
HETATM   31  C   UNL     1      -8.822   4.580  72.186  1.00  0.00    -0.135 A  
HETATM   32  C   UNL     1      -8.923   3.915  73.518  1.00  0.00    -0.098 C  
HETATM   33  C   UNL     1      -8.228   5.866  72.067  1.00  0.00    -0.112 A  
HETATM   34  O   UNL     1      -9.285   4.494  74.526  1.00  0.00    -0.108 OA 
HETATM   35  I   UNL     1      -7.220   6.805  73.732  1.00  0.00    -0.088 I  
HETATM   36  O   UNL     1      -8.542   2.619  73.538  1.00  0.00    -0.070 OA 
ENDBRANCH  22  25
ENDBRANCH  20  21
ENDBRANCH  19  20
ENDBRANCH  18  19
ENDBRANCH  17  18
ENDBRANCH  15  17
ENDBRANCH   7  13
TORSDOF 7
ENDMDL
MODEL      300
REMARK 921   NORMALIZED FREE ENERGY PREDICTED BY IDOCK:   24.75 KCAL/MOL
REMARK 922        TOTAL FREE ENERGY PREDICTED BY IDOCK:   33.96 KCAL/MOL
REMARK 923 INTER-LIGAND FREE ENERGY PREDICTED BY IDOCK:   28.82 KCAL/MOL
REMARK 924 INTRA-LIGAND FREE ENERGY PREDICTED BY IDOCK:    5.14 KCAL/MOL
REMARK 927      BINDING AFFINITY PREDICTED BY RF-SCORE:    0.00 PKD
ROOT
HETATM    1  O   UNL     1      -9.951  11.796  65.070  1.00  0.00    -0.248 OA 
HETATM    2  C   UNL     1      -9.456  12.965  65.532  1.00  0.00     0.144 C  
HETATM    3  C   UNL     1      -9.931  13.345  66.890  1.00  0.00    -0.252 A  
HETATM    4  O   UNL     1      -8.645  13.617  64.899  1.00  0.00     2.805 OA 
HETATM    5  C   UNL     1      -9.010  13.758  67.891  1.00  0.00    -0.193 A  
HETATM    6  I   UNL     1      -6.877  13.677  67.557  1.00  0.00     0.263 I  
HETATM    7  C   UNL     1      -9.446  14.160  69.186  1.00  0.00     0.173 A  
HETATM    8  I   UNL     1     -12.850  12.950  65.823  1.00  0.00     1.409 I  
HETATM    9  C   UNL     1     -10.826  14.157  69.459  1.00  0.00    -0.075 A  
HETATM   10  C   UNL     1     -11.301  13.365  67.201  1.00  0.00    -0.315 A  
HETATM   11  C   UNL     1     -11.738  13.747  68.476  1.00  0.00    -0.391 A  
HETATM   12  I   UNL     1     -11.700  14.976  71.198  1.00  0.00    -0.388 I  
ENDROOT
BRANCH   7  13
HETATM   13  N   UNL     1      -8.474  14.625  70.122  1.00  0.00     0.134 N  
HETATM   14  O   UNL     1      -7.630  12.544  70.709  1.00  0.00     3.220 OA 
HETATM   15  C   UNL     1      -7.622  13.769  70.803  1.00  0.00     2.963 C  
HETATM   16  H   UNL     1      -8.403  15.627  70.296  1.00  0.00     0.000 HD 
BRANCH  15  17
HETATM   17  C   UNL     1      -6.529  14.483  71.588  1.00  0.00     0.743 C  
BRANCH  17  18
HETATM   18  C   UNL     1      -6.346  15.903  71.058  1.00  0.00     1.009 C  
BRANCH  18  19
HETATM   19  C   UNL     1      -5.167  16.086  70.097  1.00  0.00    -0.152 C  
BRANCH  19  20
HETATM   20  C   UNL     1      -5.548  16.236  68.621  1.00  0.00    -0.105 C  
BRANCH  20  21
HETATM   21  C   UNL     1      -6.958  16.800  68.486  1.00  0.00    -0.168 C  
HETATM   22  N   UNL     1      -6.995  18.184  68.386  1.00  0.00    -0.232 N  
HETATM   23  O   UNL     1      -7.953  16.086  68.545  1.00  0.00    -0.145 OA 
HETATM   24  H   UNL     1      -6.120  18.707  68.406  1.00  0.00     0.000 HD 
BRANCH  22  25
HETATM   25  C   UNL     1      -8.227  18.891  68.255  1.00  0.00    -0.329 A  
HETATM   26  C   UNL     1      -8.709  19.747  69.258  1.00  0.00     0.173 A  
HETATM   27  I   UNL     1      -7.886  19.872  71.206  1.00  0.00     3.468 I  
HETATM   28  C   UNL     1      -9.901  20.454  69.077  1.00  0.00     0.125 A  
HETATM   29  C   UNL     1     -10.675  20.271  67.923  1.00  0.00     0.045 A  
HETATM   30  I   UNL     1     -12.493  21.350  67.919  1.00  0.00    12.697 I  
HETATM   31  C   UNL     1     -10.259  19.380  66.918  1.00  0.00    -0.514 A  
HETATM   32  C   UNL     1     -11.120  19.093  65.733  1.00  0.00     0.209 C  
HETATM   33  C   UNL     1      -9.026  18.697  67.094  1.00  0.00    -0.281 A  
HETATM   34  O   UNL     1     -11.356  17.966  65.338  1.00  0.00     0.223 OA 
HETATM   35  I   UNL     1      -8.211  17.418  65.554  1.00  0.00     2.517 I  
HETATM   36  O   UNL     1     -11.592  20.186  65.095  1.00  0.00     0.287 OA 
ENDBRANCH  22  25
ENDBRANCH  20  21
ENDBRANCH  19  20
ENDBRANCH  18  19
ENDBRANCH  17  18
ENDBRANCH  15  17
ENDBRANCH   7  13
TORSDOF 7
ENDMDL
MODEL      301
REMARK 921   NORMALIZED FREE ENERGY PREDICTED BY IDOCK:   24.80 KCAL/MOL
REMARK 922        TOTAL FREE ENERGY PREDICTED BY IDOCK:   34.03 KCAL/MOL
REMARK 923 INTER-LIGAND FREE ENERGY PREDICTED BY IDOCK:   23.67 KCAL/MOL
REMARK 924 INTRA-LIGAND FREE ENERGY PREDICTED BY IDOCK:   10.36 KCAL/MOL
REMARK 927      BINDING AFFINITY PREDICTED BY RF-SCORE:    0.00 PKD
ROOT
HETATM    1  O   UNL     1     -10.095  11.128  72.098  1.00  0.00     7.843 OA 
HETATM    2  C   UNL     1      -9.846  10.275  71.081  1.00  0.00     1.764 C  
HETATM    3  C   UNL     1      -9.321  10.918  69.847  1.00  0.00     0.745 A  
HETATM    4  O   UNL     1      -9.993   9.071  71.199  1.00  0.00    -0.242 OA 
HETATM    5  C   UNL     1      -8.176  10.396  69.187  1.00  0.00    -0.157 A  
HETATM    6  I   UNL     1      -7.034   8.771  70.037  1.00  0.00    -0.055 I  
HETATM    7  C   UNL     1      -7.678  10.975  67.985  1.00  0.00    -0.106 A  
HETATM    8  I   UNL     1     -11.784  12.852  69.981  1.00  0.00     0.048 I  
HETATM    9  C   UNL     1      -8.358  12.080  67.442  1.00  0.00    -0.171 A  
HETATM   10  C   UNL     1      -9.977  12.018  69.265  1.00  0.00     0.425 A  
HETATM   11  C   UNL     1      -9.487  12.601  68.090  1.00  0.00    -0.218 A  
HETATM   12  I   UNL     1      -7.965  12.906  65.539  1.00  0.00     4.888 I  
ENDROOT
BRANCH   7  13
HETATM   13  N   UNL     1      -6.562  10.361  67.340  1.00  0.00    -0.066 N  
HETATM   14  O   UNL     1      -7.430  10.389  65.188  1.00  0.00    -0.140 OA 
HETATM   15  C   UNL     1      -6.521  10.132  65.973  1.00  0.00    -0.100 C  
HETATM   16  H   UNL     1      -5.763  10.081  67.908  1.00  0.00     0.000 HD 
BRANCH  15  17
HETATM   17  C   UNL     1      -5.163   9.663  65.467  1.00  0.00    -0.043 C  
BRANCH  17  18
HETATM   18  C   UNL     1      -5.195   8.160  65.199  1.00  0.00    -0.032 C  
BRANCH  18  19
HETATM   19  C   UNL     1      -5.846   7.754  63.873  1.00  0.00    -0.053 C  
BRANCH  19  20
HETATM   20  C   UNL     1      -7.013   6.769  63.997  1.00  0.00    -0.052 C  
BRANCH  20  21
HETATM   21  C   UNL     1      -8.125   7.361  64.857  1.00  0.00    -0.114 C  
HETATM   22  N   UNL     1      -8.603   8.576  64.387  1.00  0.00    -0.390 N  
HETATM   23  O   UNL     1      -8.487   6.834  65.903  1.00  0.00    -0.135 OA 
HETATM   24  H   UNL     1      -8.201   8.974  63.539  1.00  0.00     0.000 HD 
BRANCH  22  25
HETATM   25  C   UNL     1      -9.642   9.281  65.064  1.00  0.00     0.050 A  
HETATM   26  C   UNL     1     -10.096   8.905  66.337  1.00  0.00    -0.263 A  
HETATM   27  I   UNL     1      -9.568   7.091  67.296  1.00  0.00    -0.227 I  
HETATM   28  C   UNL     1     -11.089   9.645  66.986  1.00  0.00     0.153 A  
HETATM   29  C   UNL     1     -11.701  10.735  66.351  1.00  0.00     1.248 A  
HETATM   30  I   UNL     1     -13.256  11.628  67.471  1.00  0.00    10.399 I  
HETATM   31  C   UNL     1     -11.317  11.112  65.053  1.00  0.00     0.097 A  
HETATM   32  C   UNL     1     -12.028  12.202  64.321  1.00  0.00    -0.380 C  
HETATM   33  C   UNL     1     -10.279  10.378  64.419  1.00  0.00    -0.175 A  
HETATM   34  O   UNL     1     -12.414  12.091  63.172  1.00  0.00    -0.503 OA 
HETATM   35  I   UNL     1      -9.502  10.955  62.486  1.00  0.00     0.005 I  
HETATM   36  O   UNL     1     -12.181  13.349  65.017  1.00  0.00    -0.379 OA 
ENDBRANCH  22  25
ENDBRANCH  20  21
ENDBRANCH  19  20
ENDBRANCH  18  19
ENDBRANCH  17  18
ENDBRANCH  15  17
ENDBRANCH   7  13
TORSDOF 7
ENDMDL
MODEL      302
REMARK 921   NORMALIZED FREE ENERGY PREDICTED BY IDOCK:   25.06 KCAL/MOL
REMARK 922        TOTAL FREE ENERGY PREDICTED BY IDOCK:   34.39 KCAL/MOL
REMARK 923 INTER-LIGAND FREE ENERGY PREDICTED BY IDOCK:    1.12 KCAL/MOL
REMARK 924 INTRA-LIGAND FREE ENERGY PREDICTED BY IDOCK:   33.27 KCAL/MOL
REMARK 927      BINDING AFFINITY PREDICTED BY RF-SCORE:    0.00 PKD
ROOT
HETATM    1  O   UNL     1      -5.538  12.121  67.157  1.00  0.00    -0.128 OA 
HETATM    2  C   UNL     1      -6.419  11.962  68.169  1.00  0.00    -0.052 C  
HETATM    3  C   UNL     1      -7.259  10.738  68.073  1.00  0.00    -0.086 A  
HETATM    4  O   UNL     1      -6.472  12.740  69.105  1.00  0.00    -0.098 OA 
HETATM    5  C   UNL     1      -7.411   9.873  69.191  1.00  0.00    -0.087 A  
HETATM    6  I   UNL     1      -6.291  10.186  71.012  1.00  0.00     0.443 I  
HETATM    7  C   UNL     1      -8.238   8.716  69.132  1.00  0.00    -0.117 A  
HETATM    8  I   UNL     1      -8.024  11.664  65.179  1.00  0.00     2.018 I  
HETATM    9  C   UNL     1      -8.927   8.445  67.936  1.00  0.00    -0.137 A  
HETATM   10  C   UNL     1      -7.972  10.436  66.900  1.00  0.00    -0.114 A  
HETATM   11  C   UNL     1      -8.778   9.293  66.829  1.00  0.00    -0.138 A  
HETATM   12  I   UNL     1     -10.411   6.958  67.723  1.00  0.00    -0.354 I  
ENDROOT
BRANCH   7  13
HETATM   13  N   UNL     1      -8.397   7.927  70.310  1.00  0.00    -0.124 N  
HETATM   14  O   UNL     1     -10.603   7.308  69.941  1.00  0.00    -0.220 OA 
HETATM   15  C   UNL     1      -9.576   7.264  70.614  1.00  0.00    -0.172 C  
HETATM   16  H   UNL     1      -7.611   7.847  70.955  1.00  0.00     0.000 HD 
BRANCH  15  17
HETATM   17  C   UNL     1      -9.463   6.317  71.801  1.00  0.00    -0.158 C  
BRANCH  17  18
HETATM   18  C   UNL     1     -10.275   6.853  72.978  1.00  0.00    -0.243 C  
BRANCH  18  19
HETATM   19  C   UNL     1     -10.854   5.780  73.906  1.00  0.00    -0.093 C  
BRANCH  19  20
HETATM   20  C   UNL     1     -10.588   4.334  73.474  1.00  0.00    -0.291 C  
BRANCH  20  21
HETATM   21  C   UNL     1      -9.847   4.302  72.141  1.00  0.00    -0.167 C  
HETATM   22  N   UNL     1      -8.808   5.218  72.061  1.00  0.00    -0.130 N  
HETATM   23  O   UNL     1     -10.206   3.582  71.215  1.00  0.00    -0.019 OA 
HETATM   24  H   UNL     1      -8.615   5.822  72.859  1.00  0.00     0.000 HD 
BRANCH  22  25
HETATM   25  C   UNL     1      -8.003   5.334  70.889  1.00  0.00    -0.099 A  
HETATM   26  C   UNL     1      -6.761   5.987  70.896  1.00  0.00    -0.061 A  
HETATM   27  I   UNL     1      -6.046   7.160  72.508  1.00  0.00    -0.040 I  
HETATM   28  C   UNL     1      -5.982   6.045  69.736  1.00  0.00    -0.025 A  
HETATM   29  C   UNL     1      -6.454   5.515  68.527  1.00  0.00    -0.043 A  
HETATM   30  I   UNL     1      -5.162   5.823  66.883  1.00  0.00    -0.005 I  
HETATM   31  C   UNL     1      -7.718   4.902  68.462  1.00  0.00    -0.078 A  
HETATM   32  C   UNL     1      -8.281   4.427  67.164  1.00  0.00    -0.101 C  
HETATM   33  C   UNL     1      -8.484   4.813  69.655  1.00  0.00    -0.082 A  
HETATM   34  O   UNL     1      -9.415   4.678  66.798  1.00  0.00    -0.139 OA 
HETATM   35  I   UNL     1     -10.373   3.764  69.711  1.00  0.00     2.336 I  
HETATM   36  O   UNL     1      -7.450   3.655  66.432  1.00  0.00    -0.075 OA 
ENDBRANCH  22  25
ENDBRANCH  20  21
ENDBRANCH  19  20
ENDBRANCH  18  19
ENDBRANCH  17  18
ENDBRANCH  15  17
ENDBRANCH   7  13
TORSDOF 7
ENDMDL
MODEL      303
REMARK 921   NORMALIZED FREE ENERGY PREDICTED BY IDOCK:   26.79 KCAL/MOL
REMARK 922        TOTAL FREE ENERGY PREDICTED BY IDOCK:   36.84 KCAL/MOL
REMARK 923 INTER-LIGAND FREE ENERGY PREDICTED BY IDOCK:   23.93 KCAL/MOL
REMARK 924 INTRA-LIGAND FREE ENERGY PREDICTED BY IDOCK:   12.91 KCAL/MOL
REMARK 927      BINDING AFFINITY PREDICTED BY RF-SCORE:    0.00 PKD
ROOT
HETATM    1  O   UNL     1      -7.989   7.158  63.623  1.00  0.00    -0.128 OA 
HETATM    2  C   UNL     1      -8.679   8.266  63.975  1.00  0.00     0.313 C  
HETATM    3  C   UNL     1      -9.266   8.222  65.341  1.00  0.00     0.088 A  
HETATM    4  O   UNL     1      -8.759   9.235  63.242  1.00  0.00    -0.213 OA 
HETATM    5  C   UNL     1      -9.095   9.309  66.240  1.00  0.00    -0.171 A  
HETATM    6  I   UNL     1      -7.826  10.986  65.743  1.00  0.00     0.302 I  
HETATM    7  C   UNL     1      -9.678   9.303  67.539  1.00  0.00    -0.158 A  
HETATM    8  I   UNL     1     -10.578   5.493  64.534  1.00  0.00     3.790 I  
HETATM    9  C   UNL     1     -10.453   8.193  67.920  1.00  0.00    -0.197 A  
HETATM   10  C   UNL     1     -10.056   7.136  65.759  1.00  0.00     1.101 A  
HETATM   11  C   UNL     1     -10.623   7.116  67.039  1.00  0.00    -0.413 A  
HETATM   12  I   UNL     1     -11.629   8.104  69.672  1.00  0.00     1.063 I  
ENDROOT
BRANCH   7  13
HETATM   13  N   UNL     1      -9.519  10.456  68.366  1.00  0.00    -0.145 N  
HETATM   14  O   UNL     1     -10.550  11.970  66.940  1.00  0.00    -0.219 OA 
HETATM   15  C   UNL     1      -9.990  11.708  68.002  1.00  0.00    -0.188 C  
HETATM   16  H   UNL     1      -9.040  10.354  69.261  1.00  0.00     0.000 HD 
BRANCH  15  17
HETATM   17  C   UNL     1      -9.904  12.747  69.113  1.00  0.00     0.447 C  
BRANCH  17  18
HETATM   18  C   UNL     1      -8.884  12.307  70.162  1.00  0.00     4.070 C  
BRANCH  18  19
HETATM   19  C   UNL     1      -9.106  10.902  70.729  1.00  0.00     3.653 C  
BRANCH  19  20
HETATM   20  C   UNL     1      -8.197  10.523  71.903  1.00  0.00     6.368 C  
BRANCH  20  21
HETATM   21  C   UNL     1      -7.907   9.026  71.895  1.00  0.00     0.220 C  
HETATM   22  N   UNL     1      -8.422   8.367  70.787  1.00  0.00    -0.129 N  
HETATM   23  O   UNL     1      -7.341   8.468  72.828  1.00  0.00    -0.254 OA 
HETATM   24  H   UNL     1      -8.934   8.900  70.085  1.00  0.00     0.000 HD 
BRANCH  22  25
HETATM   25  C   UNL     1      -8.252   6.962  70.608  1.00  0.00    -0.120 A  
HETATM   26  C   UNL     1      -6.988   6.352  70.634  1.00  0.00    -0.064 A  
HETATM   27  I   UNL     1      -5.157   7.416  70.608  1.00  0.00    -0.023 I  
HETATM   28  C   UNL     1      -6.865   4.966  70.495  1.00  0.00    -0.037 A  
HETATM   29  C   UNL     1      -7.991   4.166  70.258  1.00  0.00    -0.051 A  
HETATM   30  I   UNL     1      -7.552   2.119  69.962  1.00  0.00    -0.051 I  
HETATM   31  C   UNL     1      -9.270   4.742  70.168  1.00  0.00    -0.195 A  
HETATM   32  C   UNL     1     -10.465   3.922  69.813  1.00  0.00     1.355 C  
HETATM   33  C   UNL     1      -9.389   6.146  70.351  1.00  0.00    -0.161 A  
HETATM   34  O   UNL     1     -11.274   4.255  68.966  1.00  0.00     2.950 OA 
HETATM   35  I   UNL     1     -11.316   7.124  70.382  1.00  0.00    -0.253 I  
HETATM   36  O   UNL     1     -10.613   2.789  70.533  1.00  0.00     1.373 OA 
ENDBRANCH  22  25
ENDBRANCH  20  21
ENDBRANCH  19  20
ENDBRANCH  18  19
ENDBRANCH  17  18
ENDBRANCH  15  17
ENDBRANCH   7  13
TORSDOF 7
ENDMDL
MODEL      304
REMARK 921   NORMALIZED FREE ENERGY PREDICTED BY IDOCK:   28.00 KCAL/MOL
REMARK 922        TOTAL FREE ENERGY PREDICTED BY IDOCK:   38.54 KCAL/MOL
REMARK 923 INTER-LIGAND FREE ENERGY PREDICTED BY IDOCK:   28.11 KCAL/MOL
REMARK 924 INTRA-LIGAND FREE ENERGY PREDICTED BY IDOCK:   10.43 KCAL/MOL
REMARK 927      BINDING AFFINITY PREDICTED BY RF-SCORE:    0.00 PKD
ROOT
HETATM    1  O   UNL     1      -6.470  20.152  68.108  1.00  0.00    -0.250 OA 
HETATM    2  C   UNL     1      -6.788  19.698  69.341  1.00  0.00    -0.342 C  
HETATM    3  C   UNL     1      -7.364  18.327  69.367  1.00  0.00     0.056 A  
HETATM    4  O   UNL     1      -6.564  20.350  70.345  1.00  0.00    -0.376 OA 
HETATM    5  C   UNL     1      -6.870  17.349  70.272  1.00  0.00     1.171 A  
HETATM    6  I   UNL     1      -5.147  17.740  71.515  1.00  0.00     0.938 I  
HETATM    7  C   UNL     1      -7.431  16.042  70.338  1.00  0.00     1.378 A  
HETATM    8  I   UNL     1      -9.447  19.318  67.245  1.00  0.00    -0.474 I  
HETATM    9  C   UNL     1      -8.510  15.733  69.491  1.00  0.00    -0.138 A  
HETATM   10  C   UNL     1      -8.450  17.980  68.544  1.00  0.00    -0.305 A  
HETATM   11  C   UNL     1      -9.000  16.692  68.593  1.00  0.00    -0.246 A  
HETATM   12  I   UNL     1      -9.663  13.968  69.622  1.00  0.00     1.490 I  
ENDROOT
BRANCH   7  13
HETATM   13  N   UNL     1      -6.929  15.131  71.315  1.00  0.00     0.890 N  
HETATM   14  O   UNL     1      -8.527  13.476  71.004  1.00  0.00     5.435 OA 
HETATM   15  C   UNL     1      -7.516  13.898  71.559  1.00  0.00     4.562 C  
HETATM   16  H   UNL     1      -6.106  15.397  71.855  1.00  0.00     0.000 HD 
BRANCH  15  17
HETATM   17  C   UNL     1      -6.704  13.002  72.485  1.00  0.00     5.101 C  
BRANCH  17  18
HETATM   18  C   UNL     1      -6.227  11.764  71.729  1.00  0.00     2.353 C  
BRANCH  18  19
HETATM   19  C   UNL     1      -7.032  11.426  70.469  1.00  0.00     1.244 C  
BRANCH  19  20
HETATM   20  C   UNL     1      -6.193  11.065  69.239  1.00  0.00    -0.059 C  
BRANCH  20  21
HETATM   21  C   UNL     1      -7.046  10.342  68.202  1.00  0.00    -0.082 C  
HETATM   22  N   UNL     1      -7.562   9.135  68.653  1.00  0.00    -0.083 N  
HETATM   23  O   UNL     1      -7.181  10.767  67.060  1.00  0.00    -0.098 OA 
HETATM   24  H   UNL     1      -7.350   8.827  69.601  1.00  0.00     0.000 HD 
BRANCH  22  25
HETATM   25  C   UNL     1      -8.383   8.317  67.821  1.00  0.00    -0.128 A  
HETATM   26  C   UNL     1      -9.437   7.545  68.336  1.00  0.00    -0.148 A  
HETATM   27  I   UNL     1      -9.764   7.214  70.403  1.00  0.00    -0.182 I  
HETATM   28  C   UNL     1     -10.245   6.787  67.484  1.00  0.00    -0.241 A  
HETATM   29  C   UNL     1      -9.978   6.726  66.109  1.00  0.00     0.221 A  
HETATM   30  I   UNL     1     -11.254   5.425  65.036  1.00  0.00     3.667 I  
HETATM   31  C   UNL     1      -8.898   7.438  65.558  1.00  0.00     0.002 A  
HETATM   32  C   UNL     1      -8.536   7.303  64.117  1.00  0.00     0.286 C  
HETATM   33  C   UNL     1      -8.108   8.237  66.428  1.00  0.00    -0.105 A  
HETATM   34  O   UNL     1      -7.397   7.108  63.732  1.00  0.00    -0.074 OA 
HETATM   35  I   UNL     1      -6.516   9.491  65.676  1.00  0.00    -0.083 I  
HETATM   36  O   UNL     1      -9.564   7.453  63.255  1.00  0.00     2.728 OA 
ENDBRANCH  22  25
ENDBRANCH  20  21
ENDBRANCH  19  20
ENDBRANCH  18  19
ENDBRANCH  17  18
ENDBRANCH  15  17
ENDBRANCH   7  13
TORSDOF 7
ENDMDL
MODEL      305
REMARK 921   NORMALIZED FREE ENERGY PREDICTED BY IDOCK:   28.22 KCAL/MOL
REMARK 922        TOTAL FREE ENERGY PREDICTED BY IDOCK:   38.85 KCAL/MOL
REMARK 923 INTER-LIGAND FREE ENERGY PREDICTED BY IDOCK:   24.03 KCAL/MOL
REMARK 924 INTRA-LIGAND FREE ENERGY PREDICTED BY IDOCK:   14.82 KCAL/MOL
REMARK 927      BINDING AFFINITY PREDICTED BY RF-SCORE:    0.00 PKD
ROOT
HETATM    1  O   UNL     1      -9.755  17.110  70.743  1.00  0.00     2.503 OA 
HETATM    2  C   UNL     1      -9.654  15.763  70.770  1.00  0.00     1.558 C  
HETATM    3  C   UNL     1      -8.809  15.183  69.692  1.00  0.00    -0.054 A  
HETATM    4  O   UNL     1     -10.175  15.095  71.646  1.00  0.00     0.754 OA 
HETATM    5  C   UNL     1      -7.805  14.223  69.994  1.00  0.00     0.797 A  
HETATM    6  I   UNL     1      -7.330  13.701  72.036  1.00  0.00     9.022 I  
HETATM    7  C   UNL     1      -7.010  13.629  68.973  1.00  0.00    -0.098 A  
HETATM    8  I   UNL     1     -10.560  16.793  67.652  1.00  0.00    -0.196 I  
HETATM    9  C   UNL     1      -7.247  14.000  67.637  1.00  0.00    -0.176 A  
HETATM   10  C   UNL     1      -9.020  15.519  68.343  1.00  0.00    -0.189 A  
HETATM   11  C   UNL     1      -8.234  14.949  67.334  1.00  0.00    -0.217 A  
HETATM   12  I   UNL     1      -6.387  13.044  65.962  1.00  0.00     6.639 I  
ENDROOT
BRANCH   7  13
HETATM   13  N   UNL     1      -6.064  12.625  69.340  1.00  0.00    -0.099 N  
HETATM   14  O   UNL     1      -6.890  12.224  71.471  1.00  0.00     2.904 OA 
HETATM   15  C   UNL     1      -6.093  11.983  70.569  1.00  0.00     0.063 C  
HETATM   16  H   UNL     1      -5.338  12.369  68.671  1.00  0.00     0.000 HD 
BRANCH  15  17
HETATM   17  C   UNL     1      -5.131  10.807  70.673  1.00  0.00    -0.079 C  
BRANCH  17  18
HETATM   18  C   UNL     1      -5.891   9.542  71.065  1.00  0.00    -0.069 C  
BRANCH  18  19
HETATM   19  C   UNL     1      -7.273   9.394  70.420  1.00  0.00    -0.111 C  
BRANCH  19  20
HETATM   20  C   UNL     1      -8.027  10.707  70.187  1.00  0.00     0.596 C  
BRANCH  20  21
HETATM   21  C   UNL     1      -8.307  10.907  68.701  1.00  0.00    -0.148 C  
HETATM   22  N   UNL     1      -9.653  10.823  68.375  1.00  0.00    -0.169 N  
HETATM   23  O   UNL     1      -7.406  11.046  67.882  1.00  0.00    -0.088 OA 
HETATM   24  H   UNL     1     -10.334  10.644  69.112  1.00  0.00     0.000 HD 
BRANCH  22  25
HETATM   25  C   UNL     1     -10.107  10.982  67.031  1.00  0.00    -0.196 A  
HETATM   26  C   UNL     1      -9.648  10.166  65.985  1.00  0.00    -0.210 A  
HETATM   27  I   UNL     1      -8.013   8.829  66.154  1.00  0.00    -0.112 I  
HETATM   28  C   UNL     1     -10.146  10.325  64.688  1.00  0.00    -0.317 A  
HETATM   29  C   UNL     1     -11.060  11.345  64.392  1.00  0.00    -0.259 A  
HETATM   30  I   UNL     1     -11.582  11.473  62.347  1.00  0.00     3.813 I  
HETATM   31  C   UNL     1     -11.504  12.222  65.397  1.00  0.00    -0.402 A  
HETATM   32  C   UNL     1     -12.394  13.377  65.080  1.00  0.00    -0.456 C  
HETATM   33  C   UNL     1     -11.022  12.026  66.720  1.00  0.00    -0.285 A  
HETATM   34  O   UNL     1     -12.186  14.508  65.482  1.00  0.00    -0.353 OA 
HETATM   35  I   UNL     1     -11.744  13.214  68.375  1.00  0.00    -0.313 I  
HETATM   36  O   UNL     1     -13.482  13.071  64.341  1.00  0.00    -0.029 OA 
ENDBRANCH  22  25
ENDBRANCH  20  21
ENDBRANCH  19  20
ENDBRANCH  18  19
ENDBRANCH  17  18
ENDBRANCH  15  17
ENDBRANCH   7  13
TORSDOF 7
ENDMDL
MODEL      306
REMARK 921   NORMALIZED FREE ENERGY PREDICTED BY IDOCK:   29.57 KCAL/MOL
REMARK 922        TOTAL FREE ENERGY PREDICTED BY IDOCK:   40.76 KCAL/MOL
REMARK 923 INTER-LIGAND FREE ENERGY PREDICTED BY IDOCK:   38.05 KCAL/MOL
REMARK 924 INTRA-LIGAND FREE ENERGY PREDICTED BY IDOCK:    2.71 KCAL/MOL
REMARK 927      BINDING AFFINITY PREDICTED BY RF-SCORE:    0.00 PKD
ROOT
HETATM    1  O   UNL     1      -7.611  15.599  64.770  1.00  0.00     6.501 OA 
HETATM    2  C   UNL     1      -7.392  14.484  65.500  1.00  0.00     7.752 C  
HETATM    3  C   UNL     1      -8.572  13.587  65.630  1.00  0.00     1.736 A  
HETATM    4  O   UNL     1      -6.297  14.221  65.963  1.00  0.00     4.337 OA 
HETATM    5  C   UNL     1      -8.454  12.192  65.384  1.00  0.00     1.062 A  
HETATM    6  I   UNL     1      -6.618  11.337  64.633  1.00  0.00     2.546 I  
HETATM    7  C   UNL     1      -9.562  11.311  65.537  1.00  0.00    -0.228 A  
HETATM    8  I   UNL     1     -10.178  16.083  66.635  1.00  0.00    -0.321 I  
HETATM    9  C   UNL     1     -10.792  11.848  65.958  1.00  0.00    -0.299 A  
HETATM   10  C   UNL     1      -9.817  14.081  66.057  1.00  0.00    -0.297 A  
HETATM   11  C   UNL     1     -10.915  13.223  66.198  1.00  0.00    -0.292 A  
HETATM   12  I   UNL     1     -12.470  10.693  66.516  1.00  0.00     8.654 I  
ENDROOT
BRANCH   7  13
HETATM   13  N   UNL     1      -9.357   9.913  65.336  1.00  0.00    -0.219 N  
HETATM   14  O   UNL     1     -11.026   9.607  63.752  1.00  0.00     3.584 OA 
HETATM   15  C   UNL     1     -10.104   9.169  64.435  1.00  0.00     2.130 C  
HETATM   16  H   UNL     1      -8.632   9.442  65.877  1.00  0.00     0.000 HD 
BRANCH  15  17
HETATM   17  C   UNL     1      -9.585   7.752  64.226  1.00  0.00     2.849 C  
BRANCH  17  18
HETATM   18  C   UNL     1      -8.790   7.300  65.448  1.00  0.00     0.078 C  
BRANCH  18  19
HETATM   19  C   UNL     1      -7.284   7.140  65.216  1.00  0.00    -0.073 C  
BRANCH  19  20
HETATM   20  C   UNL     1      -6.393   8.040  66.079  1.00  0.00    -0.046 C  
BRANCH  20  21
HETATM   21  C   UNL     1      -6.384   7.556  67.525  1.00  0.00    -0.056 C  
HETATM   22  N   UNL     1      -7.441   6.713  67.835  1.00  0.00    -0.096 N  
HETATM   23  O   UNL     1      -5.556   7.953  68.338  1.00  0.00    -0.030 OA 
HETATM   24  H   UNL     1      -8.121   6.481  67.112  1.00  0.00     0.000 HD 
BRANCH  22  25
HETATM   25  C   UNL     1      -7.599   6.162  69.142  1.00  0.00    -0.095 A  
HETATM   26  C   UNL     1      -7.737   4.782  69.361  1.00  0.00    -0.063 A  
HETATM   27  I   UNL     1      -8.059   3.363  67.821  1.00  0.00    -0.095 I  
HETATM   28  C   UNL     1      -7.849   4.277  70.660  1.00  0.00    -0.056 A  
HETATM   29  C   UNL     1      -7.896   5.139  71.764  1.00  0.00    -0.110 A  
HETATM   30  I   UNL     1      -8.189   4.161  73.615  1.00  0.00    -0.088 I  
HETATM   31  C   UNL     1      -7.818   6.532  71.586  1.00  0.00    -0.100 A  
HETATM   32  C   UNL     1      -7.972   7.469  72.737  1.00  0.00    -0.104 C  
HETATM   33  C   UNL     1      -7.664   7.033  70.265  1.00  0.00    -0.099 A  
HETATM   34  O   UNL     1      -8.704   8.442  72.711  1.00  0.00    -0.224 OA 
HETATM   35  I   UNL     1      -7.385   9.141  69.880  1.00  0.00    -0.101 I  
HETATM   36  O   UNL     1      -7.203   7.183  73.810  1.00  0.00    -0.085 OA 
ENDBRANCH  22  25
ENDBRANCH  20  21
ENDBRANCH  19  20
ENDBRANCH  18  19
ENDBRANCH  17  18
ENDBRANCH  15  17
ENDBRANCH   7  13
TORSDOF 7
ENDMDL
MODEL      307
REMARK 921   NORMALIZED FREE ENERGY PREDICTED BY IDOCK:   30.88 KCAL/MOL
REMARK 922        TOTAL FREE ENERGY PREDICTED BY IDOCK:   42.60 KCAL/MOL
REMARK 923 INTER-LIGAND FREE ENERGY PREDICTED BY IDOCK:   26.43 KCAL/MOL
REMARK 924 INTRA-LIGAND FREE ENERGY PREDICTED BY IDOCK:   16.17 KCAL/MOL
REMARK 927      BINDING AFFINITY PREDICTED BY RF-SCORE:    0.00 PKD
ROOT
HETATM    1  O   UNL     1      -9.760  17.110  70.745  1.00  0.00     2.503 OA 
HETATM    2  C   UNL     1      -9.661  15.763  70.799  1.00  0.00     1.558 C  
HETATM    3  C   UNL     1      -8.802  15.162  69.744  1.00  0.00     0.051 A  
HETATM    4  O   UNL     1     -10.195  15.113  71.680  1.00  0.00     0.754 OA 
HETATM    5  C   UNL     1      -7.803  14.208  70.078  1.00  0.00     0.951 A  
HETATM    6  I   UNL     1      -7.357  13.724  72.136  1.00  0.00     8.805 I  
HETATM    7  C   UNL     1      -6.994  13.594  69.080  1.00  0.00    -0.070 A  
HETATM    8  I   UNL     1     -10.522  16.735  67.649  1.00  0.00    -0.260 I  
HETATM    9  C   UNL     1      -7.212  13.940  67.734  1.00  0.00    -0.164 A  
HETATM   10  C   UNL     1      -8.993  15.473  68.386  1.00  0.00    -0.189 A  
HETATM   11  C   UNL     1      -8.193  14.883  67.399  1.00  0.00    -0.217 A  
HETATM   12  I   UNL     1      -6.329  12.951  66.090  1.00  0.00     5.393 I  
ENDROOT
BRANCH   7  13
HETATM   13  N   UNL     1      -6.054  12.596  69.479  1.00  0.00    -0.111 N  
HETATM   14  O   UNL     1      -6.908  12.239  71.607  1.00  0.00     3.272 OA 
HETATM   15  C   UNL     1      -6.100  11.979  70.720  1.00  0.00     0.319 C  
HETATM   16  H   UNL     1      -5.320  12.326  68.825  1.00  0.00     0.000 HD 
BRANCH  15  17
HETATM   17  C   UNL     1      -5.141  10.804  70.860  1.00  0.00    -0.092 C  
BRANCH  17  18
HETATM   18  C   UNL     1      -5.908   9.548  71.267  1.00  0.00    -0.075 C  
BRANCH  18  19
HETATM   19  C   UNL     1      -7.284   9.391  70.611  1.00  0.00    -0.134 C  
BRANCH  19  20
HETATM   20  C   UNL     1      -8.051  10.698  70.386  1.00  0.00     1.246 C  
BRANCH  20  21
HETATM   21  C   UNL     1      -8.343  10.899  68.902  1.00  0.00    -0.139 C  
HETATM   22  N   UNL     1      -9.666  11.222  68.636  1.00  0.00    -0.205 N  
HETATM   23  O   UNL     1      -7.492  10.708  68.040  1.00  0.00    -0.088 OA 
HETATM   24  H   UNL     1     -10.324  11.302  69.411  1.00  0.00     0.000 HD 
BRANCH  22  25
HETATM   25  C   UNL     1     -10.126  11.446  67.305  1.00  0.00    -0.192 A  
HETATM   26  C   UNL     1     -10.982  12.509  66.977  1.00  0.00    -0.267 A  
HETATM   27  I   UNL     1     -11.968  13.722  68.408  1.00  0.00    -0.079 I  
HETATM   28  C   UNL     1     -11.380  12.720  65.654  1.00  0.00    -0.354 A  
HETATM   29  C   UNL     1     -10.991  11.835  64.638  1.00  0.00    -0.310 A  
HETATM   30  I   UNL     1     -11.808  12.282  62.740  1.00  0.00     2.061 I  
HETATM   31  C   UNL     1     -10.181  10.724  64.931  1.00  0.00    -0.388 A  
HETATM   32  C   UNL     1      -9.845   9.714  63.885  1.00  0.00     0.749 C  
HETATM   33  C   UNL     1      -9.750  10.542  66.273  1.00  0.00    -0.205 A  
HETATM   34  O   UNL     1      -9.946   8.514  64.060  1.00  0.00     2.712 OA 
HETATM   35  I   UNL     1      -8.383   8.958  66.816  1.00  0.00    -0.123 I  
HETATM   36  O   UNL     1      -9.374  10.229  62.728  1.00  0.00    -0.280 OA 
ENDBRANCH  22  25
ENDBRANCH  20  21
ENDBRANCH  19  20
ENDBRANCH  18  19
ENDBRANCH  17  18
ENDBRANCH  15  17
ENDBRANCH   7  13
TORSDOF 7
ENDMDL
MODEL      308
REMARK 921   NORMALIZED FREE ENERGY PREDICTED BY IDOCK:   32.54 KCAL/MOL
REMARK 922        TOTAL FREE ENERGY PREDICTED BY IDOCK:   44.93 KCAL/MOL
REMARK 923 INTER-LIGAND FREE ENERGY PREDICTED BY IDOCK:   16.93 KCAL/MOL
REMARK 924 INTRA-LIGAND FREE ENERGY PREDICTED BY IDOCK:   28.01 KCAL/MOL
REMARK 927      BINDING AFFINITY PREDICTED BY RF-SCORE:    0.00 PKD
ROOT
HETATM    1  O   UNL     1      -9.288   7.344  69.880  1.00  0.00    -0.155 OA 
HETATM    2  C   UNL     1      -8.453   8.289  69.396  1.00  0.00    -0.123 C  
HETATM    3  C   UNL     1      -9.102   9.591  69.089  1.00  0.00    -0.152 A  
HETATM    4  O   UNL     1      -7.257   8.092  69.278  1.00  0.00    -0.072 OA 
HETATM    5  C   UNL     1      -8.537  10.811  69.549  1.00  0.00     0.135 A  
HETATM    6  I   UNL     1      -6.825  10.826  70.868  1.00  0.00     2.181 I  
HETATM    7  C   UNL     1      -9.122  12.070  69.237  1.00  0.00     0.766 A  
HETATM    8  I   UNL     1     -11.167   7.989  67.359  1.00  0.00     1.856 I  
HETATM    9  C   UNL     1     -10.280  12.091  68.437  1.00  0.00    -0.209 A  
HETATM   10  C   UNL     1     -10.254   9.657  68.285  1.00  0.00    -0.186 A  
HETATM   11  C   UNL     1     -10.844  10.891  67.982  1.00  0.00    -0.293 A  
HETATM   12  I   UNL     1     -11.139  13.841  67.626  1.00  0.00    -0.341 I  
ENDROOT
BRANCH   7  13
HETATM   13  N   UNL     1      -8.466  13.259  69.677  1.00  0.00     0.811 N  
HETATM   14  O   UNL     1      -7.053  12.247  71.215  1.00  0.00     3.207 OA 
HETATM   15  C   UNL     1      -7.459  13.248  70.630  1.00  0.00     3.237 C  
HETATM   16  H   UNL     1      -8.749  14.152  69.275  1.00  0.00     0.000 HD 
BRANCH  15  17
HETATM   17  C   UNL     1      -6.756  14.588  70.800  1.00  0.00     0.320 C  
BRANCH  17  18
HETATM   18  C   UNL     1      -5.629  14.721  69.778  1.00  0.00    -0.100 C  
BRANCH  18  19
HETATM   19  C   UNL     1      -5.910  14.072  68.419  1.00  0.00    -0.103 C  
BRANCH  19  20
HETATM   20  C   UNL     1      -7.273  13.382  68.297  1.00  0.00    -0.111 C  
BRANCH  20  21
HETATM   21  C   UNL     1      -8.357  14.395  67.945  1.00  0.00    -0.162 C  
HETATM   22  N   UNL     1      -7.904  15.439  67.151  1.00  0.00    -0.202 N  
HETATM   23  O   UNL     1      -9.493  14.315  68.399  1.00  0.00    -0.204 OA 
HETATM   24  H   UNL     1      -6.925  15.460  66.867  1.00  0.00     0.000 HD 
BRANCH  22  25
HETATM   25  C   UNL     1      -8.776  16.484  66.723  1.00  0.00    -0.226 A  
HETATM   26  C   UNL     1      -9.744  16.290  65.726  1.00  0.00    -0.264 A  
HETATM   27  I   UNL     1      -9.849  14.569  64.494  1.00  0.00     2.915 I  
HETATM   28  C   UNL     1     -10.608  17.327  65.361  1.00  0.00    -0.083 A  
HETATM   29  C   UNL     1     -10.480  18.600  65.933  1.00  0.00    -0.356 A  
HETATM   30  I   UNL     1     -11.812  20.041  65.144  1.00  0.00     6.184 I  
HETATM   31  C   UNL     1      -9.487  18.855  66.895  1.00  0.00    -0.345 A  
HETATM   32  C   UNL     1      -9.269  20.229  67.436  1.00  0.00    -0.380 C  
HETATM   33  C   UNL     1      -8.641  17.783  67.287  1.00  0.00    -0.233 A  
HETATM   34  O   UNL     1      -8.169  20.745  67.519  1.00  0.00    -0.268 OA 
HETATM   35  I   UNL     1      -7.178  18.015  68.861  1.00  0.00    -0.118 I  
HETATM   36  O   UNL     1     -10.384  20.853  67.873  1.00  0.00    -0.000 OA 
ENDBRANCH  22  25
ENDBRANCH  20  21
ENDBRANCH  19  20
ENDBRANCH  18  19
ENDBRANCH  17  18
ENDBRANCH  15  17
ENDBRANCH   7  13
TORSDOF 7
ENDMDL
MODEL      309
REMARK 921   NORMALIZED FREE ENERGY PREDICTED BY IDOCK:   33.06 KCAL/MOL
REMARK 922        TOTAL FREE ENERGY PREDICTED BY IDOCK:   45.67 KCAL/MOL
REMARK 923 INTER-LIGAND FREE ENERGY PREDICTED BY IDOCK:   46.38 KCAL/MOL
REMARK 924 INTRA-LIGAND FREE ENERGY PREDICTED BY IDOCK:   -0.71 KCAL/MOL
REMARK 927      BINDING AFFINITY PREDICTED BY RF-SCORE:    0.00 PKD
ROOT
HETATM    1  O   UNL     1      -7.730  18.203  70.046  1.00  0.00     0.986 OA 
HETATM    2  C   UNL     1      -7.847  17.156  70.891  1.00  0.00     5.382 C  
HETATM    3  C   UNL     1      -8.957  16.220  70.568  1.00  0.00     2.396 A  
HETATM    4  O   UNL     1      -7.065  16.977  71.808  1.00  0.00     5.468 OA 
HETATM    5  C   UNL     1      -8.733  14.817  70.519  1.00  0.00     1.729 A  
HETATM    6  I   UNL     1      -6.747  13.991  70.724  1.00  0.00     1.509 I  
HETATM    7  C   UNL     1      -9.789  13.901  70.246  1.00  0.00     2.277 A  
HETATM    8  I   UNL     1     -10.860  18.710  70.551  1.00  0.00     4.838 I  
HETATM    9  C   UNL     1     -11.082  14.413  70.038  1.00  0.00    -0.076 A  
HETATM   10  C   UNL     1     -10.267  16.689  70.363  1.00  0.00     0.797 A  
HETATM   11  C   UNL     1     -11.309  15.796  70.082  1.00  0.00    -0.361 A  
HETATM   12  I   UNL     1     -12.826  13.230  69.902  1.00  0.00     1.180 I  
ENDROOT
BRANCH   7  13
HETATM   13  N   UNL     1      -9.506  12.503  70.276  1.00  0.00     3.461 N  
HETATM   14  O   UNL     1     -10.576  12.042  72.283  1.00  0.00     9.173 OA 
HETATM   15  C   UNL     1      -9.944  11.673  71.297  1.00  0.00     8.183 C  
HETATM   16  H   UNL     1      -8.961  12.097  69.516  1.00  0.00     0.000 HD 
BRANCH  15  17
HETATM   17  C   UNL     1      -9.715  10.191  71.028  1.00  0.00     1.117 C  
BRANCH  17  18
HETATM   18  C   UNL     1     -10.979   9.399  71.356  1.00  0.00    -0.443 C  
BRANCH  18  19
HETATM   19  C   UNL     1     -11.528   8.553  70.202  1.00  0.00     0.002 C  
BRANCH  19  20
HETATM   20  C   UNL     1     -10.630   7.394  69.760  1.00  0.00    -0.245 C  
BRANCH  20  21
HETATM   21  C   UNL     1     -10.229   7.554  68.297  1.00  0.00    -0.186 C  
HETATM   22  N   UNL     1      -8.977   8.126  68.125  1.00  0.00    -0.135 N  
HETATM   23  O   UNL     1     -10.992   7.272  67.380  1.00  0.00    -0.258 OA 
HETATM   24  H   UNL     1      -8.432   8.387  68.946  1.00  0.00     0.000 HD 
BRANCH  22  25
HETATM   25  C   UNL     1      -8.434   8.357  66.826  1.00  0.00    -0.114 A  
HETATM   26  C   UNL     1      -7.472   7.509  66.255  1.00  0.00    -0.083 A  
HETATM   27  I   UNL     1      -6.453   5.986  67.318  1.00  0.00    -0.051 I  
HETATM   28  C   UNL     1      -6.993   7.744  64.962  1.00  0.00    -0.059 A  
HETATM   29  C   UNL     1      -7.410   8.870  64.238  1.00  0.00    -0.100 A  
HETATM   30  I   UNL     1      -6.466   9.088  62.359  1.00  0.00    -0.090 I  
HETATM   31  C   UNL     1      -8.329   9.777  64.793  1.00  0.00    -0.159 A  
HETATM   32  C   UNL     1      -8.703  11.034  64.081  1.00  0.00     0.092 C  
HETATM   33  C   UNL     1      -8.840   9.506  66.091  1.00  0.00    -0.152 A  
HETATM   34  O   UNL     1      -8.717  12.126  64.619  1.00  0.00     0.872 OA 
HETATM   35  I   UNL     1     -10.366  10.746  66.988  1.00  0.00    -0.304 I  
HETATM   36  O   UNL     1      -9.070  10.869  62.791  1.00  0.00    -0.267 OA 
ENDBRANCH  22  25
ENDBRANCH  20  21
ENDBRANCH  19  20
ENDBRANCH  18  19
ENDBRANCH  17  18
ENDBRANCH  15  17
ENDBRANCH   7  13
TORSDOF 7
ENDMDL
MODEL      310
REMARK 921   NORMALIZED FREE ENERGY PREDICTED BY IDOCK:   33.37 KCAL/MOL
REMARK 922        TOTAL FREE ENERGY PREDICTED BY IDOCK:   46.11 KCAL/MOL
REMARK 923 INTER-LIGAND FREE ENERGY PREDICTED BY IDOCK:   32.17 KCAL/MOL
REMARK 924 INTRA-LIGAND FREE ENERGY PREDICTED BY IDOCK:   13.94 KCAL/MOL
REMARK 927      BINDING AFFINITY PREDICTED BY RF-SCORE:    0.00 PKD
ROOT
HETATM    1  O   UNL     1      -6.474  20.151  68.110  1.00  0.00    -0.250 OA 
HETATM    2  C   UNL     1      -6.810  19.716  69.345  1.00  0.00    -0.342 C  
HETATM    3  C   UNL     1      -7.443  18.370  69.376  1.00  0.00     0.088 A  
HETATM    4  O   UNL     1      -6.560  20.362  70.346  1.00  0.00    -0.376 OA 
HETATM    5  C   UNL     1      -6.990  17.376  70.285  1.00  0.00     1.383 A  
HETATM    6  I   UNL     1      -5.252  17.700  71.527  1.00  0.00     1.032 I  
HETATM    7  C   UNL     1      -7.605  16.094  70.356  1.00  0.00     1.661 A  
HETATM    8  I   UNL     1      -9.483  19.439  67.250  1.00  0.00    -0.497 I  
HETATM    9  C   UNL     1      -8.696  15.826  69.510  1.00  0.00    -0.160 A  
HETATM   10  C   UNL     1      -8.542  18.065  68.554  1.00  0.00    -0.297 A  
HETATM   11  C   UNL     1      -9.145  16.801  68.609  1.00  0.00    -0.254 A  
HETATM   12  I   UNL     1      -9.921  14.111  69.648  1.00  0.00     1.094 I  
ENDROOT
BRANCH   7  13
HETATM   13  N   UNL     1      -7.141  15.166  71.336  1.00  0.00     1.202 N  
HETATM   14  O   UNL     1      -8.833  13.601  71.066  1.00  0.00     5.566 OA 
HETATM   15  C   UNL     1      -7.792  13.971  71.602  1.00  0.00     5.922 C  
HETATM   16  H   UNL     1      -6.297  15.391  71.862  1.00  0.00     0.000 HD 
BRANCH  15  17
HETATM   17  C   UNL     1      -7.019  13.040  72.527  1.00  0.00     6.675 C  
BRANCH  17  18
HETATM   18  C   UNL     1      -6.642  11.760  71.786  1.00  0.00     4.009 C  
BRANCH  18  19
HETATM   19  C   UNL     1      -7.499  11.450  70.554  1.00  0.00     2.338 C  
BRANCH  19  20
HETATM   20  C   UNL     1      -7.328  12.421  69.381  1.00  0.00     0.314 C  
BRANCH  20  21
HETATM   21  C   UNL     1      -7.873  11.809  68.095  1.00  0.00    -0.135 C  
HETATM   22  N   UNL     1      -7.212  10.652  67.707  1.00  0.00    -0.087 N  
HETATM   23  O   UNL     1      -8.758  12.351  67.442  1.00  0.00    -0.166 OA 
HETATM   24  H   UNL     1      -6.444  10.303  68.279  1.00  0.00     0.000 HD 
BRANCH  22  25
HETATM   25  C   UNL     1      -7.582   9.941  66.527  1.00  0.00    -0.103 A  
HETATM   26  C   UNL     1      -7.495   8.543  66.437  1.00  0.00    -0.087 A  
HETATM   27  I   UNL     1      -6.520   7.322  67.867  1.00  0.00    -0.053 I  
HETATM   28  C   UNL     1      -7.905   7.878  65.278  1.00  0.00    -0.111 A  
HETATM   29  C   UNL     1      -8.345   8.596  64.157  1.00  0.00    -0.126 A  
HETATM   30  I   UNL     1      -8.799   7.390  62.480  1.00  0.00     1.245 I  
HETATM   31  C   UNL     1      -8.395  10.000  64.183  1.00  0.00    -0.167 A  
HETATM   32  C   UNL     1      -8.759  10.784  62.967  1.00  0.00    -0.198 C  
HETATM   33  C   UNL     1      -8.014  10.664  65.380  1.00  0.00    -0.086 A  
HETATM   34  O   UNL     1      -8.117  11.742  62.574  1.00  0.00     0.063 OA 
HETATM   35  I   UNL     1      -8.188  12.808  65.590  1.00  0.00     3.230 I  
HETATM   36  O   UNL     1      -9.889  10.380  62.346  1.00  0.00    -0.161 OA 
ENDBRANCH  22  25
ENDBRANCH  20  21
ENDBRANCH  19  20
ENDBRANCH  18  19
ENDBRANCH  17  18
ENDBRANCH  15  17
ENDBRANCH   7  13
TORSDOF 7
ENDMDL
MODEL      311
REMARK 921   NORMALIZED FREE ENERGY PREDICTED BY IDOCK:   34.47 KCAL/MOL
REMARK 922        TOTAL FREE ENERGY PREDICTED BY IDOCK:   47.65 KCAL/MOL
REMARK 923 INTER-LIGAND FREE ENERGY PREDICTED BY IDOCK:    3.51 KCAL/MOL
REMARK 924 INTRA-LIGAND FREE ENERGY PREDICTED BY IDOCK:   44.14 KCAL/MOL
REMARK 927      BINDING AFFINITY PREDICTED BY RF-SCORE:    0.00 PKD
ROOT
HETATM    1  O   UNL     1      -7.110   6.351  63.920  1.00  0.00    -0.045 OA 
HETATM    2  C   UNL     1      -7.342   7.652  64.201  1.00  0.00    -0.094 C  
HETATM    3  C   UNL     1      -7.555   7.945  65.644  1.00  0.00    -0.084 A  
HETATM    4  O   UNL     1      -7.321   8.512  63.338  1.00  0.00    -0.097 OA 
HETATM    5  C   UNL     1      -6.860   9.010  66.279  1.00  0.00    -0.078 A  
HETATM    6  I   UNL     1      -5.330  10.128  65.240  1.00  0.00    -0.118 I  
HETATM    7  C   UNL     1      -7.076   9.330  67.649  1.00  0.00    -0.082 A  
HETATM    8  I   UNL     1      -9.753   5.711  65.625  1.00  0.00     0.490 I  
HETATM    9  C   UNL     1      -8.015   8.575  68.374  1.00  0.00    -0.118 A  
HETATM   10  C   UNL     1      -8.492   7.221  66.402  1.00  0.00    -0.129 A  
HETATM   11  C   UNL     1      -8.702   7.522  67.754  1.00  0.00    -0.123 A  
HETATM   12  I   UNL     1      -8.690   9.055  70.316  1.00  0.00    -0.278 I  
ENDROOT
BRANCH   7  13
HETATM   13  N   UNL     1      -6.391  10.452  68.205  1.00  0.00    -0.051 N  
HETATM   14  O   UNL     1      -6.755  11.910  66.437  1.00  0.00     0.090 OA 
HETATM   15  C   UNL     1      -6.301  11.672  67.553  1.00  0.00    -0.087 C  
HETATM   16  H   UNL     1      -5.951  10.353  69.120  1.00  0.00     0.000 HD 
BRANCH  15  17
HETATM   17  C   UNL     1      -5.714  12.787  68.409  1.00  0.00    -0.062 C  
BRANCH  17  18
HETATM   18  C   UNL     1      -5.186  12.216  69.723  1.00  0.00    -0.077 C  
BRANCH  18  19
HETATM   19  C   UNL     1      -6.202  11.397  70.526  1.00  0.00     0.042 C  
BRANCH  19  20
HETATM   20  C   UNL     1      -5.599  10.483  71.597  1.00  0.00     0.185 C  
BRANCH  20  21
HETATM   21  C   UNL     1      -6.344   9.153  71.647  1.00  0.00    -0.037 C  
HETATM   22  N   UNL     1      -7.199   8.955  70.573  1.00  0.00    -0.061 N  
HETATM   23  O   UNL     1      -6.240   8.385  72.598  1.00  0.00    -0.069 OA 
HETATM   24  H   UNL     1      -7.270   9.675  69.854  1.00  0.00     0.000 HD 
BRANCH  22  25
HETATM   25  C   UNL     1      -7.982   7.769  70.450  1.00  0.00    -0.095 A  
HETATM   26  C   UNL     1      -7.440   6.490  70.653  1.00  0.00    -0.080 A  
HETATM   27  I   UNL     1      -5.367   6.097  70.840  1.00  0.00    -0.019 I  
HETATM   28  C   UNL     1      -8.248   5.353  70.564  1.00  0.00    -0.110 A  
HETATM   29  C   UNL     1      -9.598   5.459  70.202  1.00  0.00    -0.177 A  
HETATM   30  I   UNL     1     -10.593   3.603  70.012  1.00  0.00     3.722 I  
HETATM   31  C   UNL     1     -10.169   6.716  69.934  1.00  0.00    -0.214 A  
HETATM   32  C   UNL     1     -11.574   6.839  69.446  1.00  0.00    -0.072 C  
HETATM   33  C   UNL     1      -9.349   7.868  70.066  1.00  0.00    -0.157 A  
HETATM   34  O   UNL     1     -11.890   7.530  68.493  1.00  0.00     1.207 OA 
HETATM   35  I   UNL     1     -10.150   9.861  69.826  1.00  0.00    -0.268 I  
HETATM   36  O   UNL     1     -12.489   6.157  70.167  1.00  0.00     0.653 OA 
ENDBRANCH  22  25
ENDBRANCH  20  21
ENDBRANCH  19  20
ENDBRANCH  18  19
ENDBRANCH  17  18
ENDBRANCH  15  17
ENDBRANCH   7  13
TORSDOF 7
ENDMDL
MODEL      312
REMARK 921   NORMALIZED FREE ENERGY PREDICTED BY IDOCK:   34.86 KCAL/MOL
REMARK 922        TOTAL FREE ENERGY PREDICTED BY IDOCK:   48.20 KCAL/MOL
REMARK 923 INTER-LIGAND FREE ENERGY PREDICTED BY IDOCK:   38.47 KCAL/MOL
REMARK 924 INTRA-LIGAND FREE ENERGY PREDICTED BY IDOCK:    9.74 KCAL/MOL
REMARK 927      BINDING AFFINITY PREDICTED BY RF-SCORE:    0.00 PKD
ROOT
HETATM    1  O   UNL     1     -11.171   6.466  65.065  1.00  0.00     4.395 OA 
HETATM    2  C   UNL     1     -10.948   6.249  66.380  1.00  0.00     0.216 C  
HETATM    3  C   UNL     1     -10.020   7.221  67.019  1.00  0.00    -0.293 A  
HETATM    4  O   UNL     1     -11.511   5.358  66.990  1.00  0.00     0.797 OA 
HETATM    5  C   UNL     1     -10.361   7.849  68.247  1.00  0.00    -0.197 A  
HETATM    6  I   UNL     1     -12.307   7.574  69.146  1.00  0.00     4.222 I  
HETATM    7  C   UNL     1      -9.473   8.755  68.895  1.00  0.00    -0.145 A  
HETATM    8  I   UNL     1      -7.979   6.554  64.737  1.00  0.00    -0.024 I  
HETATM    9  C   UNL     1      -8.225   9.010  68.299  1.00  0.00    -0.116 A  
HETATM   10  C   UNL     1      -8.759   7.496  66.462  1.00  0.00    -0.140 A  
HETATM   11  C   UNL     1      -7.884   8.395  67.086  1.00  0.00    -0.100 A  
HETATM   12  I   UNL     1      -6.660  10.086  69.221  1.00  0.00    -0.070 I  
ENDROOT
BRANCH   7  13
HETATM   13  N   UNL     1      -9.853   9.300  70.158  1.00  0.00    -0.199 N  
HETATM   14  O   UNL     1      -7.714   9.820  70.894  1.00  0.00    -0.312 OA 
HETATM   15  C   UNL     1      -8.931   9.812  71.059  1.00  0.00     0.609 C  
HETATM   16  H   UNL     1     -10.842   9.315  70.407  1.00  0.00     0.000 HD 
BRANCH  15  17
HETATM   17  C   UNL     1      -9.562  10.530  72.245  1.00  0.00     8.495 C  
BRANCH  17  18
HETATM   18  C   UNL     1      -8.502  10.820  73.305  1.00  0.00    13.775 C  
BRANCH  18  19
HETATM   19  C   UNL     1      -7.068  10.464  72.899  1.00  0.00     4.532 C  
BRANCH  19  20
HETATM   20  C   UNL     1      -6.366   9.453  73.812  1.00  0.00     0.436 C  
BRANCH  20  21
HETATM   21  C   UNL     1      -6.558   8.034  73.287  1.00  0.00    -0.097 C  
HETATM   22  N   UNL     1      -7.888   7.650  73.198  1.00  0.00    -0.102 N  
HETATM   23  O   UNL     1      -5.608   7.295  73.051  1.00  0.00    -0.044 OA 
HETATM   24  H   UNL     1      -8.615   8.310  73.474  1.00  0.00     0.000 HD 
BRANCH  22  25
HETATM   25  C   UNL     1      -8.262   6.356  72.731  1.00  0.00    -0.107 A  
HETATM   26  C   UNL     1      -7.341   5.481  72.132  1.00  0.00    -0.090 A  
HETATM   27  I   UNL     1      -5.386   6.042  71.539  1.00  0.00    -0.023 I  
HETATM   28  C   UNL     1      -7.736   4.204  71.723  1.00  0.00    -0.074 A  
HETATM   29  C   UNL     1      -9.072   3.796  71.837  1.00  0.00    -0.113 A  
HETATM   30  I   UNL     1      -9.461   1.874  71.045  1.00  0.00    -0.127 I  
HETATM   31  C   UNL     1     -10.040   4.660  72.378  1.00  0.00    -0.239 A  
HETATM   32  C   UNL     1     -11.483   4.283  72.410  1.00  0.00     0.623 C  
HETATM   33  C   UNL     1      -9.620   5.941  72.827  1.00  0.00    -0.155 A  
HETATM   34  O   UNL     1     -12.374   5.026  72.039  1.00  0.00     1.076 OA 
HETATM   35  I   UNL     1     -10.984   7.298  73.811  1.00  0.00     1.735 I  
HETATM   36  O   UNL     1     -11.741   3.061  72.924  1.00  0.00     0.325 OA 
ENDBRANCH  22  25
ENDBRANCH  20  21
ENDBRANCH  19  20
ENDBRANCH  18  19
ENDBRANCH  17  18
ENDBRANCH  15  17
ENDBRANCH   7  13
TORSDOF 7
ENDMDL
MODEL      313
REMARK 921   NORMALIZED FREE ENERGY PREDICTED BY IDOCK:   34.94 KCAL/MOL
REMARK 922        TOTAL FREE ENERGY PREDICTED BY IDOCK:   48.32 KCAL/MOL
REMARK 923 INTER-LIGAND FREE ENERGY PREDICTED BY IDOCK:    6.61 KCAL/MOL
REMARK 924 INTRA-LIGAND FREE ENERGY PREDICTED BY IDOCK:   41.71 KCAL/MOL
REMARK 927      BINDING AFFINITY PREDICTED BY RF-SCORE:    0.00 PKD
ROOT
HETATM    1  O   UNL     1      -8.478   4.395  74.244  1.00  0.00    -0.096 OA 
HETATM    2  C   UNL     1      -7.601   4.894  73.345  1.00  0.00    -0.088 C  
HETATM    3  C   UNL     1      -8.226   5.623  72.209  1.00  0.00    -0.108 A  
HETATM    4  O   UNL     1      -6.396   4.793  73.496  1.00  0.00    -0.046 OA 
HETATM    5  C   UNL     1      -7.754   6.906  71.822  1.00  0.00    -0.095 A  
HETATM    6  I   UNL     1      -6.243   7.939  72.971  1.00  0.00    -0.091 I  
HETATM    7  C   UNL     1      -8.314   7.606  70.716  1.00  0.00    -0.117 A  
HETATM    8  I   UNL     1      -9.998   3.081  71.740  1.00  0.00     0.115 I  
HETATM    9  C   UNL     1      -9.348   6.990  69.988  1.00  0.00    -0.158 A  
HETATM   10  C   UNL     1      -9.255   5.040  71.449  1.00  0.00    -0.146 A  
HETATM   11  C   UNL     1      -9.820   5.726  70.367  1.00  0.00    -0.241 A  
HETATM   12  I   UNL     1     -10.119   7.717  68.162  1.00  0.00    -0.242 I  
ENDROOT
BRANCH   7  13
HETATM   13  N   UNL     1      -7.748   8.862  70.343  1.00  0.00    -0.086 N  
HETATM   14  O   UNL     1      -6.733   8.144  68.383  1.00  0.00    -0.060 OA 
HETATM   15  C   UNL     1      -7.009   9.035  69.182  1.00  0.00    -0.058 C  
HETATM   16  H   UNL     1      -7.894   9.665  70.955  1.00  0.00     0.000 HD 
BRANCH  15  17
HETATM   17  C   UNL     1      -6.680  10.489  68.872  1.00  0.00    -0.060 C  
BRANCH  17  18
HETATM   18  C   UNL     1      -5.954  10.587  67.532  1.00  0.00    -0.052 C  
BRANCH  18  19
HETATM   19  C   UNL     1      -6.849  10.932  66.337  1.00  0.00    -0.135 C  
BRANCH  19  20
HETATM   20  C   UNL     1      -8.116  10.081  66.206  1.00  0.00    -0.117 C  
BRANCH  20  21
HETATM   21  C   UNL     1      -8.772   9.883  67.569  1.00  0.00    -0.121 C  
HETATM   22  N   UNL     1     -10.049   9.345  67.497  1.00  0.00    -0.200 N  
HETATM   23  O   UNL     1      -8.233  10.247  68.608  1.00  0.00    -0.104 OA 
HETATM   24  H   UNL     1     -10.446   9.127  66.584  1.00  0.00     0.000 HD 
BRANCH  22  25
HETATM   25  C   UNL     1     -10.819   9.091  68.671  1.00  0.00    -0.017 A  
HETATM   26  C   UNL     1     -11.445   7.856  68.903  1.00  0.00     0.860 A  
HETATM   27  I   UNL     1     -11.626   6.327  67.448  1.00  0.00     2.500 I  
HETATM   28  C   UNL     1     -12.158   7.631  70.084  1.00  0.00     0.377 A  
HETATM   29  C   UNL     1     -12.321   8.654  71.029  1.00  0.00    -0.143 A  
HETATM   30  I   UNL     1     -13.535   8.124  72.677  1.00  0.00     0.538 I  
HETATM   31  C   UNL     1     -11.759   9.924  70.811  1.00  0.00    -0.424 A  
HETATM   32  C   UNL     1     -12.011  11.053  71.754  1.00  0.00     0.727 C  
HETATM   33  C   UNL     1     -11.003  10.129  69.626  1.00  0.00    -0.264 A  
HETATM   34  O   UNL     1     -12.347  12.165  71.387  1.00  0.00    -0.182 OA 
HETATM   35  I   UNL     1      -9.969  11.990  69.253  1.00  0.00     1.018 I  
HETATM   36  O   UNL     1     -11.798  10.766  73.056  1.00  0.00     3.924 OA 
ENDBRANCH  22  25
ENDBRANCH  20  21
ENDBRANCH  19  20
ENDBRANCH  18  19
ENDBRANCH  17  18
ENDBRANCH  15  17
ENDBRANCH   7  13
TORSDOF 7
ENDMDL
MODEL      314
REMARK 921   NORMALIZED FREE ENERGY PREDICTED BY IDOCK:   35.22 KCAL/MOL
REMARK 922        TOTAL FREE ENERGY PREDICTED BY IDOCK:   48.71 KCAL/MOL
REMARK 923 INTER-LIGAND FREE ENERGY PREDICTED BY IDOCK:   15.18 KCAL/MOL
REMARK 924 INTRA-LIGAND FREE ENERGY PREDICTED BY IDOCK:   33.53 KCAL/MOL
REMARK 927      BINDING AFFINITY PREDICTED BY RF-SCORE:    0.00 PKD
ROOT
HETATM    1  O   UNL     1     -12.940   6.003  72.248  1.00  0.00     0.041 OA 
HETATM    2  C   UNL     1     -12.449   7.260  72.177  1.00  0.00    -0.168 C  
HETATM    3  C   UNL     1     -10.977   7.339  71.982  1.00  0.00    -0.271 A  
HETATM    4  O   UNL     1     -13.174   8.238  72.217  1.00  0.00    -0.292 OA 
HETATM    5  C   UNL     1     -10.422   8.181  70.980  1.00  0.00    -0.201 A  
HETATM    6  I   UNL     1     -11.682   9.237  69.577  1.00  0.00     0.998 I  
HETATM    7  C   UNL     1      -9.014   8.300  70.800  1.00  0.00    -0.149 A  
HETATM    8  I   UNL     1     -10.690   5.457  74.470  1.00  0.00     1.136 I  
HETATM    9  C   UNL     1      -8.166   7.570  71.653  1.00  0.00    -0.103 A  
HETATM   10  C   UNL     1     -10.094   6.635  72.818  1.00  0.00    -0.177 A  
HETATM   11  C   UNL     1      -8.708   6.735  72.640  1.00  0.00    -0.130 A  
HETATM   12  I   UNL     1      -6.071   7.814  71.745  1.00  0.00    -0.039 I  
ENDROOT
BRANCH   7  13
HETATM   13  N   UNL     1      -8.524   9.213  69.819  1.00  0.00    -0.128 N  
HETATM   14  O   UNL     1      -9.497  11.125  70.702  1.00  0.00     2.318 OA 
HETATM   15  C   UNL     1      -8.795  10.572  69.860  1.00  0.00     0.323 C  
HETATM   16  H   UNL     1      -7.952   8.851  69.056  1.00  0.00     0.000 HD 
BRANCH  15  17
HETATM   17  C   UNL     1      -8.007  11.389  68.844  1.00  0.00    -0.085 C  
BRANCH  17  18
HETATM   18  C   UNL     1      -8.883  12.503  68.277  1.00  0.00    -0.171 C  
BRANCH  18  19
HETATM   19  C   UNL     1     -10.356  12.130  68.080  1.00  0.00    -0.214 C  
BRANCH  19  20
HETATM   20  C   UNL     1     -10.752  10.746  68.603  1.00  0.00    -0.242 C  
BRANCH  20  21
HETATM   21  C   UNL     1      -9.942   9.658  67.905  1.00  0.00    -0.166 C  
HETATM   22  N   UNL     1     -10.582   8.428  67.866  1.00  0.00    -0.415 N  
HETATM   23  O   UNL     1      -8.802   9.856  67.497  1.00  0.00    -0.128 OA 
HETATM   24  H   UNL     1     -11.508   8.335  68.284  1.00  0.00     0.000 HD 
BRANCH  22  25
HETATM   25  C   UNL     1      -9.977   7.290  67.255  1.00  0.00    -0.192 A  
HETATM   26  C   UNL     1     -10.730   6.196  66.799  1.00  0.00    -0.299 A  
HETATM   27  I   UNL     1     -12.784   5.909  67.228  1.00  0.00    14.773 I  
HETATM   28  C   UNL     1     -10.104   5.116  66.169  1.00  0.00    -0.235 A  
HETATM   29  C   UNL     1      -8.709   5.070  66.040  1.00  0.00    -0.127 A  
HETATM   30  I   UNL     1      -7.978   3.290  65.164  1.00  0.00    -0.082 I  
HETATM   31  C   UNL     1      -7.912   6.118  66.533  1.00  0.00    -0.105 A  
HETATM   32  C   UNL     1      -6.422   6.038  66.500  1.00  0.00    -0.046 C  
HETATM   33  C   UNL     1      -8.561   7.229  67.137  1.00  0.00    -0.121 A  
HETATM   34  O   UNL     1      -5.720   6.295  67.461  1.00  0.00    -0.012 OA 
HETATM   35  I   UNL     1      -7.453   8.964  67.797  1.00  0.00    -0.093 I  
HETATM   36  O   UNL     1      -5.897   5.697  65.304  1.00  0.00    -0.020 OA 
ENDBRANCH  22  25
ENDBRANCH  20  21
ENDBRANCH  19  20
ENDBRANCH  18  19
ENDBRANCH  17  18
ENDBRANCH  15  17
ENDBRANCH   7  13
TORSDOF 7
ENDMDL
MODEL      315
REMARK 921   NORMALIZED FREE ENERGY PREDICTED BY IDOCK:   36.05 KCAL/MOL
REMARK 922        TOTAL FREE ENERGY PREDICTED BY IDOCK:   49.88 KCAL/MOL
REMARK 923 INTER-LIGAND FREE ENERGY PREDICTED BY IDOCK:   41.08 KCAL/MOL
REMARK 924 INTRA-LIGAND FREE ENERGY PREDICTED BY IDOCK:    8.80 KCAL/MOL
REMARK 927      BINDING AFFINITY PREDICTED BY RF-SCORE:    0.00 PKD
ROOT
HETATM    1  O   UNL     1      -9.442  15.533  72.776  1.00  0.00     5.658 OA 
HETATM    2  C   UNL     1      -9.778  15.115  71.536  1.00  0.00     2.723 C  
HETATM    3  C   UNL     1      -8.698  14.388  70.814  1.00  0.00     3.168 A  
HETATM    4  O   UNL     1     -10.895  15.280  71.080  1.00  0.00    -0.295 OA 
HETATM    5  C   UNL     1      -8.962  13.148  70.173  1.00  0.00     3.947 A  
HETATM    6  I   UNL     1     -10.878  12.168  70.370  1.00  0.00     3.059 I  
HETATM    7  C   UNL     1      -7.953  12.453  69.447  1.00  0.00     0.802 A  
HETATM    8  I   UNL     1      -6.840  16.837  71.423  1.00  0.00     5.966 I  
HETATM    9  C   UNL     1      -6.674  13.031  69.359  1.00  0.00    -0.018 A  
HETATM   10  C   UNL     1      -7.409  14.935  70.694  1.00  0.00     0.868 A  
HETATM   11  C   UNL     1      -6.407  14.253  69.992  1.00  0.00    -0.150 A  
HETATM   12  I   UNL     1      -5.127  12.320  68.110  1.00  0.00    -0.083 I  
ENDROOT
BRANCH   7  13
HETATM   13  N   UNL     1      -8.303  11.244  68.774  1.00  0.00    -0.251 N  
HETATM   14  O   UNL     1      -7.755   9.791  70.498  1.00  0.00    -0.207 OA 
HETATM   15  C   UNL     1      -8.191   9.997  69.369  1.00  0.00    -0.155 C  
HETATM   16  H   UNL     1      -8.651  11.300  67.817  1.00  0.00     0.000 HD 
BRANCH  15  17
HETATM   17  C   UNL     1      -8.812   8.868  68.556  1.00  0.00    -0.134 C  
BRANCH  17  18
HETATM   18  C   UNL     1      -9.610   9.442  67.388  1.00  0.00    -0.184 C  
BRANCH  18  19
HETATM   19  C   UNL     1     -11.109   9.617  67.653  1.00  0.00    -0.061 C  
BRANCH  19  20
HETATM   20  C   UNL     1     -11.471  10.761  68.606  1.00  0.00    -0.365 C  
BRANCH  20  21
HETATM   21  C   UNL     1     -11.834  12.017  67.821  1.00  0.00    -0.238 C  
HETATM   22  N   UNL     1     -11.096  12.176  66.656  1.00  0.00    -0.289 N  
HETATM   23  O   UNL     1     -12.646  12.834  68.240  1.00  0.00     0.271 OA 
HETATM   24  H   UNL     1     -10.395  11.477  66.412  1.00  0.00     0.000 HD 
BRANCH  22  25
HETATM   25  C   UNL     1     -11.295  13.294  65.793  1.00  0.00    -0.307 A  
HETATM   26  C   UNL     1     -12.077  13.213  64.630  1.00  0.00    -0.408 A  
HETATM   27  I   UNL     1     -12.795  11.396  63.809  1.00  0.00     2.298 I  
HETATM   28  C   UNL     1     -12.282  14.341  63.830  1.00  0.00    -0.233 A  
HETATM   29  C   UNL     1     -11.656  15.558  64.133  1.00  0.00    -0.078 A  
HETATM   30  I   UNL     1     -12.014  17.091  62.721  1.00  0.00    17.791 I  
HETATM   31  C   UNL     1     -10.819  15.670  65.257  1.00  0.00    -0.420 A  
HETATM   32  C   UNL     1     -10.062  16.926  65.536  1.00  0.00    -0.055 C  
HETATM   33  C   UNL     1     -10.649  14.528  66.085  1.00  0.00    -0.306 A  
HETATM   34  O   UNL     1      -8.875  16.942  65.809  1.00  0.00    -0.522 OA 
HETATM   35  I   UNL     1      -9.507  14.619  67.918  1.00  0.00    -0.228 I  
HETATM   36  O   UNL     1     -10.801  18.055  65.504  1.00  0.00    -0.483 OA 
ENDBRANCH  22  25
ENDBRANCH  20  21
ENDBRANCH  19  20
ENDBRANCH  18  19
ENDBRANCH  17  18
ENDBRANCH  15  17
ENDBRANCH   7  13
TORSDOF 7
ENDMDL
MODEL      316
REMARK 921   NORMALIZED FREE ENERGY PREDICTED BY IDOCK:   36.98 KCAL/MOL
REMARK 922        TOTAL FREE ENERGY PREDICTED BY IDOCK:   51.19 KCAL/MOL
REMARK 923 INTER-LIGAND FREE ENERGY PREDICTED BY IDOCK:   34.92 KCAL/MOL
REMARK 924 INTRA-LIGAND FREE ENERGY PREDICTED BY IDOCK:   16.27 KCAL/MOL
REMARK 927      BINDING AFFINITY PREDICTED BY RF-SCORE:    0.00 PKD
ROOT
HETATM    1  O   UNL     1      -9.092  17.571  69.680  1.00  0.00     0.451 OA 
HETATM    2  C   UNL     1      -9.181  16.666  70.679  1.00  0.00     3.242 C  
HETATM    3  C   UNL     1      -8.905  15.263  70.270  1.00  0.00     0.787 A  
HETATM    4  O   UNL     1      -9.416  16.995  71.828  1.00  0.00     6.885 OA 
HETATM    5  C   UNL     1      -8.009  14.451  71.018  1.00  0.00     3.171 A  
HETATM    6  I   UNL     1      -6.867  15.263  72.663  1.00  0.00     5.953 I  
HETATM    7  C   UNL     1      -7.758  13.095  70.665  1.00  0.00     4.284 A  
HETATM    8  I   UNL     1     -11.056  15.647  68.024  1.00  0.00    -0.269 I  
HETATM    9  C   UNL     1      -8.433  12.556  69.555  1.00  0.00     1.501 A  
HETATM   10  C   UNL     1      -9.566  14.682  69.174  1.00  0.00    -0.087 A  
HETATM   11  C   UNL     1      -9.316  13.352  68.811  1.00  0.00     0.089 A  
HETATM   12  I   UNL     1      -8.426  10.510  69.031  1.00  0.00    -0.087 I  
ENDROOT
BRANCH   7  13
HETATM   13  N   UNL     1      -6.897  12.319  71.497  1.00  0.00     3.523 N  
HETATM   14  O   UNL     1      -7.632  10.232  70.797  1.00  0.00    -0.075 OA 
HETATM   15  C   UNL     1      -6.891  10.933  71.482  1.00  0.00     2.792 C  
HETATM   16  H   UNL     1      -6.259  12.804  72.128  1.00  0.00     0.000 HD 
BRANCH  15  17
HETATM   17  C   UNL     1      -5.758  10.311  72.287  1.00  0.00     0.502 C  
BRANCH  17  18
HETATM   18  C   UNL     1      -5.136   9.154  71.509  1.00  0.00    -0.041 C  
BRANCH  18  19
HETATM   19  C   UNL     1      -5.862   8.785  70.211  1.00  0.00    -0.030 C  
BRANCH  19  20
HETATM   20  C   UNL     1      -7.391   8.857  70.278  1.00  0.00    -0.067 C  
BRANCH  20  21
HETATM   21  C   UNL     1      -8.010   7.539  69.826  1.00  0.00    -0.124 C  
HETATM   22  N   UNL     1      -8.000   7.365  68.449  1.00  0.00    -0.122 N  
HETATM   23  O   UNL     1      -8.532   6.761  70.616  1.00  0.00    -0.134 OA 
HETATM   24  H   UNL     1      -7.598   8.092  67.858  1.00  0.00     0.000 HD 
BRANCH  22  25
HETATM   25  C   UNL     1      -8.539   6.192  67.841  1.00  0.00    -0.114 A  
HETATM   26  C   UNL     1      -9.894   5.844  67.957  1.00  0.00    -0.125 A  
HETATM   27  I   UNL     1     -11.251   6.786  69.283  1.00  0.00    -0.081 I  
HETATM   28  C   UNL     1     -10.394   4.708  67.313  1.00  0.00    -0.051 A  
HETATM   29  C   UNL     1      -9.541   3.856  66.597  1.00  0.00    -0.193 A  
HETATM   30  I   UNL     1     -10.493   2.140  65.811  1.00  0.00     3.723 I  
HETATM   31  C   UNL     1      -8.167   4.135  66.503  1.00  0.00    -0.101 A  
HETATM   32  C   UNL     1      -7.228   3.186  65.836  1.00  0.00    -0.071 C  
HETATM   33  C   UNL     1      -7.676   5.314  67.128  1.00  0.00    -0.096 A  
HETATM   34  O   UNL     1      -6.174   2.832  66.333  1.00  0.00    -0.024 OA 
HETATM   35  I   UNL     1      -5.613   5.925  66.927  1.00  0.00    -0.014 I  
HETATM   36  O   UNL     1      -7.613   2.773  64.609  1.00  0.00    -0.073 OA 
ENDBRANCH  22  25
ENDBRANCH  20  21
ENDBRANCH  19  20
ENDBRANCH  18  19
ENDBRANCH  17  18
ENDBRANCH  15  17
ENDBRANCH   7  13
TORSDOF 7
ENDMDL
MODEL      317
REMARK 921   NORMALIZED FREE ENERGY PREDICTED BY IDOCK:   41.19 KCAL/MOL
REMARK 922        TOTAL FREE ENERGY PREDICTED BY IDOCK:   57.13 KCAL/MOL
REMARK 923 INTER-LIGAND FREE ENERGY PREDICTED BY IDOCK:   45.35 KCAL/MOL
REMARK 924 INTRA-LIGAND FREE ENERGY PREDICTED BY IDOCK:   11.78 KCAL/MOL
REMARK 927      BINDING AFFINITY PREDICTED BY RF-SCORE:    0.00 PKD
ROOT
HETATM    1  O   UNL     1      -9.559  10.108  65.591  1.00  0.00    -0.205 OA 
HETATM    2  C   UNL     1      -9.892   9.883  66.881  1.00  0.00    -0.199 C  
HETATM    3  C   UNL     1      -9.895  11.098  67.740  1.00  0.00    -0.186 A  
HETATM    4  O   UNL     1     -10.214   8.779  67.281  1.00  0.00    -0.219 OA 
HETATM    5  C   UNL     1     -10.997  11.382  68.592  1.00  0.00    -0.220 A  
HETATM    6  I   UNL     1     -12.791  10.177  68.545  1.00  0.00     7.070 I  
HETATM    7  C   UNL     1     -11.006  12.519  69.448  1.00  0.00     0.007 A  
HETATM    8  I   UNL     1      -6.981  11.647  66.726  1.00  0.00     0.140 I  
HETATM    9  C   UNL     1      -9.881  13.364  69.451  1.00  0.00     0.746 A  
HETATM   10  C   UNL     1      -8.788  11.963  67.780  1.00  0.00    -0.166 A  
HETATM   11  C   UNL     1      -8.792  13.091  68.610  1.00  0.00     0.060 A  
HETATM   12  I   UNL     1      -9.566  14.929  70.833  1.00  0.00     3.502 I  
ENDROOT
BRANCH   7  13
HETATM   13  N   UNL     1     -12.116  12.709  70.324  1.00  0.00    -0.415 N  
HETATM   14  O   UNL     1     -10.912  12.720  72.308  1.00  0.00     6.390 OA 
HETATM   15  C   UNL     1     -11.975  12.813  71.699  1.00  0.00     1.225 C  
HETATM   16  H   UNL     1     -13.052  12.771  69.922  1.00  0.00     0.000 HD 
BRANCH  15  17
HETATM   17  C   UNL     1     -13.253  13.220  72.421  1.00  0.00    -0.539 C  
BRANCH  17  18
HETATM   18  C   UNL     1     -13.318  14.740  72.554  1.00  0.00    -0.529 C  
BRANCH  18  19
HETATM   19  C   UNL     1     -14.043  15.457  71.410  1.00  0.00    -0.539 C  
BRANCH  19  20
HETATM   20  C   UNL     1     -14.051  14.707  70.074  1.00  0.00     2.304 C  
BRANCH  20  21
HETATM   21  C   UNL     1     -12.949  15.230  69.159  1.00  0.00     0.867 C  
HETATM   22  N   UNL     1     -12.819  14.511  67.980  1.00  0.00     0.392 N  
HETATM   23  O   UNL     1     -12.209  16.149  69.492  1.00  0.00    -0.151 OA 
HETATM   24  H   UNL     1     -13.439  13.719  67.809  1.00  0.00     0.000 HD 
BRANCH  22  25
HETATM   25  C   UNL     1     -11.839  14.852  67.001  1.00  0.00    -0.199 A  
HETATM   26  C   UNL     1     -11.748  14.186  65.768  1.00  0.00    -0.359 A  
HETATM   27  I   UNL     1     -12.797  12.405  65.303  1.00  0.00     1.819 I  
HETATM   28  C   UNL     1     -10.800  14.576  64.818  1.00  0.00    -0.410 A  
HETATM   29  C   UNL     1      -9.876  15.591  65.101  1.00  0.00    -0.051 A  
HETATM   30  I   UNL     1      -8.462  15.928  63.566  1.00  0.00    26.260 I  
HETATM   31  C   UNL     1      -9.893  16.246  66.345  1.00  0.00    -0.310 A  
HETATM   32  C   UNL     1      -8.853  17.253  66.704  1.00  0.00    -0.255 C  
HETATM   33  C   UNL     1     -10.887  15.869  67.289  1.00  0.00    -0.279 A  
HETATM   34  O   UNL     1      -8.254  17.245  67.765  1.00  0.00    -0.198 OA 
HETATM   35  I   UNL     1     -11.107  16.904  69.173  1.00  0.00     0.471 I  
HETATM   36  O   UNL     1      -8.646  18.213  65.776  1.00  0.00    -0.472 OA 
ENDBRANCH  22  25
ENDBRANCH  20  21
ENDBRANCH  19  20
ENDBRANCH  18  19
ENDBRANCH  17  18
ENDBRANCH  15  17
ENDBRANCH   7  13
TORSDOF 7
ENDMDL
MODEL      318
REMARK 921   NORMALIZED FREE ENERGY PREDICTED BY IDOCK:   44.59 KCAL/MOL
REMARK 922        TOTAL FREE ENERGY PREDICTED BY IDOCK:   61.92 KCAL/MOL
REMARK 923 INTER-LIGAND FREE ENERGY PREDICTED BY IDOCK:   47.11 KCAL/MOL
REMARK 924 INTRA-LIGAND FREE ENERGY PREDICTED BY IDOCK:   14.80 KCAL/MOL
REMARK 927      BINDING AFFINITY PREDICTED BY RF-SCORE:    0.00 PKD
ROOT
HETATM    1  O   UNL     1     -11.556   4.398  62.861  1.00  0.00     0.530 OA 
HETATM    2  C   UNL     1     -11.294   5.264  63.864  1.00  0.00     3.443 C  
HETATM    3  C   UNL     1      -9.891   5.755  63.908  1.00  0.00     2.147 A  
HETATM    4  O   UNL     1     -12.161   5.643  64.631  1.00  0.00     3.821 OA 
HETATM    5  C   UNL     1      -9.611   7.143  64.035  1.00  0.00     3.433 A  
HETATM    6  I   UNL     1     -11.192   8.615  63.981  1.00  0.00    17.529 I  
HETATM    7  C   UNL     1      -8.276   7.632  64.114  1.00  0.00     0.011 A  
HETATM    8  I   UNL     1      -8.990   2.754  63.869  1.00  0.00    -0.109 I  
HETATM    9  C   UNL     1      -7.220   6.704  64.080  1.00  0.00    -0.067 A  
HETATM   10  C   UNL     1      -8.806   4.861  63.887  1.00  0.00    -0.077 A  
HETATM   11  C   UNL     1      -7.489   5.334  63.952  1.00  0.00    -0.059 A  
HETATM   12  I   UNL     1      -5.199   7.181  64.465  1.00  0.00    -0.029 I  
ENDROOT
BRANCH   7  13
HETATM   13  N   UNL     1      -8.070   9.031  64.305  1.00  0.00    -0.143 N  
HETATM   14  O   UNL     1      -9.044   9.175  66.406  1.00  0.00    -0.151 OA 
HETATM   15  C   UNL     1      -8.460   9.694  65.459  1.00  0.00    -0.142 C  
HETATM   16  H   UNL     1      -7.617   9.565  63.563  1.00  0.00     0.000 HD 
BRANCH  15  17
HETATM   17  C   UNL     1      -7.960  11.130  65.544  1.00  0.00     0.186 C  
BRANCH  17  18
HETATM   18  C   UNL     1      -6.837  11.233  66.574  1.00  0.00    -0.101 C  
BRANCH  18  19
HETATM   19  C   UNL     1      -6.655   9.994  67.457  1.00  0.00    -0.068 C  
BRANCH  19  20
HETATM   20  C   UNL     1      -7.301  10.083  68.843  1.00  0.00    -0.080 C  
BRANCH  20  21
HETATM   21  C   UNL     1      -7.945  11.450  69.047  1.00  0.00    -0.024 C  
HETATM   22  N   UNL     1      -7.976  12.226  67.897  1.00  0.00    -0.140 N  
HETATM   23  O   UNL     1      -8.319  11.835  70.150  1.00  0.00     1.907 OA 
HETATM   24  H   UNL     1      -7.587  11.851  67.033  1.00  0.00     0.000 HD 
BRANCH  22  25
HETATM   25  C   UNL     1      -8.538  13.537  67.896  1.00  0.00    -0.182 A  
HETATM   26  C   UNL     1      -8.741  14.266  69.078  1.00  0.00     0.060 A  
HETATM   27  I   UNL     1      -8.565  13.444  71.023  1.00  0.00    11.505 I  
HETATM   28  C   UNL     1      -9.258  15.564  69.034  1.00  0.00    -0.238 A  
HETATM   29  C   UNL     1      -9.649  16.139  67.817  1.00  0.00    -0.223 A  
HETATM   30  I   UNL     1     -10.512  18.060  68.004  1.00  0.00    -0.221 I  
HETATM   31  C   UNL     1      -9.516  15.424  66.614  1.00  0.00    -0.281 A  
HETATM   32  C   UNL     1     -10.023  15.978  65.324  1.00  0.00    -0.029 C  
HETATM   33  C   UNL     1      -8.953  14.120  66.666  1.00  0.00    -0.169 A  
HETATM   34  O   UNL     1     -10.707  15.337  64.547  1.00  0.00    -0.280 OA 
HETATM   35  I   UNL     1      -8.563  12.984  64.869  1.00  0.00     4.723 I  
HETATM   36  O   UNL     1      -9.632  17.242  65.055  1.00  0.00     0.631 OA 
ENDBRANCH  22  25
ENDBRANCH  20  21
ENDBRANCH  19  20
ENDBRANCH  18  19
ENDBRANCH  17  18
ENDBRANCH  15  17
ENDBRANCH   7  13
TORSDOF 7
ENDMDL
MODEL      319
REMARK 921   NORMALIZED FREE ENERGY PREDICTED BY IDOCK:   46.06 KCAL/MOL
REMARK 922        TOTAL FREE ENERGY PREDICTED BY IDOCK:   63.99 KCAL/MOL
REMARK 923 INTER-LIGAND FREE ENERGY PREDICTED BY IDOCK:   41.58 KCAL/MOL
REMARK 924 INTRA-LIGAND FREE ENERGY PREDICTED BY IDOCK:   22.41 KCAL/MOL
REMARK 927      BINDING AFFINITY PREDICTED BY RF-SCORE:    0.00 PKD
ROOT
HETATM    1  O   UNL     1      -7.333  13.311  66.627  1.00  0.00     0.473 OA 
HETATM    2  C   UNL     1      -8.621  12.924  66.750  1.00  0.00    -0.063 C  
HETATM    3  C   UNL     1      -9.138  12.927  68.145  1.00  0.00    -0.207 A  
HETATM    4  O   UNL     1      -9.307  12.649  65.781  1.00  0.00    -0.107 OA 
HETATM    5  C   UNL     1     -10.381  13.541  68.457  1.00  0.00    -0.240 A  
HETATM    6  I   UNL     1     -11.486  14.656  66.972  1.00  0.00    -0.308 I  
HETATM    7  C   UNL     1     -10.912  13.524  69.778  1.00  0.00     0.207 A  
HETATM    8  I   UNL     1      -6.669  11.156  68.911  1.00  0.00    -0.105 I  
HETATM    9  C   UNL     1     -10.182  12.865  70.784  1.00  0.00     5.381 A  
HETATM   10  C   UNL     1      -8.446  12.271  69.178  1.00  0.00     0.581 A  
HETATM   11  C   UNL     1      -8.954  12.260  70.483  1.00  0.00     6.566 A  
HETATM   12  I   UNL     1     -10.911  12.479  72.728  1.00  0.00    17.677 I  
ENDROOT
BRANCH   7  13
HETATM   13  N   UNL     1     -12.195  14.103  70.008  1.00  0.00    -0.341 N  
HETATM   14  O   UNL     1     -13.055  12.381  71.304  1.00  0.00    -0.274 OA 
HETATM   15  C   UNL     1     -13.169  13.485  70.777  1.00  0.00     0.095 C  
HETATM   16  H   UNL     1     -12.405  15.010  69.590  1.00  0.00     0.000 HD 
BRANCH  15  17
HETATM   17  C   UNL     1     -14.378  14.364  71.066  1.00  0.00     0.136 C  
BRANCH  17  18
HETATM   18  C   UNL     1     -14.052  15.822  70.751  1.00  0.00     0.849 C  
BRANCH  18  19
HETATM   19  C   UNL     1     -12.601  16.233  71.023  1.00  0.00     0.543 C  
BRANCH  19  20
HETATM   20  C   UNL     1     -11.541  15.359  70.346  1.00  0.00    -0.352 C  
BRANCH  20  21
HETATM   21  C   UNL     1     -10.269  16.161  70.090  1.00  0.00     0.054 C  
HETATM   22  N   UNL     1     -10.193  16.686  68.808  1.00  0.00    -0.269 N  
HETATM   23  O   UNL     1      -9.377  16.250  70.926  1.00  0.00     2.297 OA 
HETATM   24  H   UNL     1     -10.955  16.512  68.153  1.00  0.00     0.000 HD 
BRANCH  22  25
HETATM   25  C   UNL     1      -9.075  17.464  68.384  1.00  0.00    -0.274 A  
HETATM   26  C   UNL     1      -8.494  18.447  69.201  1.00  0.00     0.089 A  
HETATM   27  I   UNL     1      -9.356  19.150  71.004  1.00  0.00     4.901 I  
HETATM   28  C   UNL     1      -7.373  19.161  68.767  1.00  0.00    -0.372 A  
HETATM   29  C   UNL     1      -6.848  18.960  67.483  1.00  0.00    -0.201 A  
HETATM   30  I   UNL     1      -5.230  20.233  67.001  1.00  0.00    -0.197 I  
HETATM   31  C   UNL     1      -7.433  18.026  66.610  1.00  0.00    -0.256 A  
HETATM   32  C   UNL     1      -6.955  17.875  65.205  1.00  0.00     0.597 C  
HETATM   33  C   UNL     1      -8.547  17.278  67.076  1.00  0.00    -0.227 A  
HETATM   34  O   UNL     1      -7.704  17.846  64.245  1.00  0.00     4.997 OA 
HETATM   35  I   UNL     1      -9.437  15.711  65.881  1.00  0.00    -0.142 I  
HETATM   36  O   UNL     1      -5.619  17.730  65.071  1.00  0.00     0.074 OA 
ENDBRANCH  22  25
ENDBRANCH  20  21
ENDBRANCH  19  20
ENDBRANCH  18  19
ENDBRANCH  17  18
ENDBRANCH  15  17
ENDBRANCH   7  13
TORSDOF 7
ENDMDL
MODEL      320
REMARK 921   NORMALIZED FREE ENERGY PREDICTED BY IDOCK:   48.94 KCAL/MOL
REMARK 922        TOTAL FREE ENERGY PREDICTED BY IDOCK:   68.04 KCAL/MOL
REMARK 923 INTER-LIGAND FREE ENERGY PREDICTED BY IDOCK:   59.27 KCAL/MOL
REMARK 924 INTRA-LIGAND FREE ENERGY PREDICTED BY IDOCK:    8.77 KCAL/MOL
REMARK 927      BINDING AFFINITY PREDICTED BY RF-SCORE:    0.00 PKD
ROOT
HETATM    1  O   UNL     1      -6.065  19.077  67.868  1.00  0.00    -0.203 OA 
HETATM    2  C   UNL     1      -7.377  18.907  68.140  1.00  0.00    -0.260 C  
HETATM    3  C   UNL     1      -8.180  18.370  67.009  1.00  0.00    -0.253 A  
HETATM    4  O   UNL     1      -7.841  19.130  69.244  1.00  0.00    -0.233 OA 
HETATM    5  C   UNL     1      -9.067  17.276  67.203  1.00  0.00    -0.227 A  
HETATM    6  I   UNL     1      -9.155  16.225  69.089  1.00  0.00    -0.017 I  
HETATM    7  C   UNL     1      -9.870  16.769  66.143  1.00  0.00    -0.309 A  
HETATM    8  I   UNL     1      -7.013  20.697  65.264  1.00  0.00     0.291 I  
HETATM    9  C   UNL     1      -9.785  17.388  64.882  1.00  0.00     2.520 A  
HETATM   10  C   UNL     1      -8.131  18.965  65.736  1.00  0.00     0.167 A  
HETATM   11  C   UNL     1      -8.910  18.465  64.684  1.00  0.00     5.624 A  
HETATM   12  I   UNL     1     -11.080  16.984  63.264  1.00  0.00    12.868 I  
ENDROOT
BRANCH   7  13
HETATM   13  N   UNL     1     -10.786  15.711  66.424  1.00  0.00    -0.289 N  
HETATM   14  O   UNL     1     -10.110  14.292  64.717  1.00  0.00    -0.365 OA 
HETATM   15  C   UNL     1     -10.820  14.536  65.689  1.00  0.00    -0.326 C  
HETATM   16  H   UNL     1     -11.442  15.824  67.197  1.00  0.00     0.000 HD 
BRANCH  15  17
HETATM   17  C   UNL     1     -11.721  13.462  66.284  1.00  0.00    -0.405 C  
BRANCH  17  18
HETATM   18  C   UNL     1     -13.014  14.090  66.798  1.00  0.00     0.852 C  
BRANCH  18  19
HETATM   19  C   UNL     1     -13.148  14.135  68.324  1.00  0.00     2.524 C  
BRANCH  19  20
HETATM   20  C   UNL     1     -13.142  15.540  68.936  1.00  0.00     1.700 C  
BRANCH  20  21
HETATM   21  C   UNL     1     -11.844  15.787  69.697  1.00  0.00    -0.340 C  
HETATM   22  N   UNL     1     -11.358  14.661  70.346  1.00  0.00    -0.424 N  
HETATM   23  O   UNL     1     -11.340  16.902  69.778  1.00  0.00     0.089 OA 
HETATM   24  H   UNL     1     -11.874  13.785  70.275  1.00  0.00     0.000 HD 
BRANCH  22  25
HETATM   25  C   UNL     1     -10.154  14.702  71.110  1.00  0.00     2.033 A  
HETATM   26  C   UNL     1     -10.047  15.438  72.301  1.00  0.00     3.310 A  
HETATM   27  I   UNL     1     -11.496  16.834  72.965  1.00  0.00     2.101 I  
HETATM   28  C   UNL     1      -8.863  15.421  73.044  1.00  0.00    10.300 A  
HETATM   29  C   UNL     1      -7.737  14.726  72.582  1.00  0.00     6.068 A  
HETATM   30  I   UNL     1      -6.026  14.939  73.807  1.00  0.00     2.571 I  
HETATM   31  C   UNL     1      -7.781  14.021  71.367  1.00  0.00     4.656 A  
HETATM   32  C   UNL     1      -6.563  13.364  70.808  1.00  0.00     0.873 C  
HETATM   33  C   UNL     1      -9.002  14.013  70.639  1.00  0.00     3.957 A  
HETATM   34  O   UNL     1      -6.210  13.491  69.650  1.00  0.00    -0.114 OA 
HETATM   35  I   UNL     1      -9.236  12.845  68.836  1.00  0.00     0.768 I  
HETATM   36  O   UNL     1      -5.893  12.575  71.676  1.00  0.00    -0.235 OA 
ENDBRANCH  22  25
ENDBRANCH  20  21
ENDBRANCH  19  20
ENDBRANCH  18  19
ENDBRANCH  17  18
ENDBRANCH  15  17
ENDBRANCH   7  13
TORSDOF 7
ENDMDL
MODEL      321
REMARK 921   NORMALIZED FREE ENERGY PREDICTED BY IDOCK:   49.82 KCAL/MOL
REMARK 922        TOTAL FREE ENERGY PREDICTED BY IDOCK:   69.29 KCAL/MOL
REMARK 923 INTER-LIGAND FREE ENERGY PREDICTED BY IDOCK:   27.26 KCAL/MOL
REMARK 924 INTRA-LIGAND FREE ENERGY PREDICTED BY IDOCK:   42.03 KCAL/MOL
REMARK 927      BINDING AFFINITY PREDICTED BY RF-SCORE:    0.00 PKD
ROOT
HETATM    1  O   UNL     1      -9.875  11.297  63.856  1.00  0.00    -0.249 OA 
HETATM    2  C   UNL     1      -9.136  10.599  64.746  1.00  0.00    -0.209 C  
HETATM    3  C   UNL     1      -9.808   9.392  65.297  1.00  0.00    -0.072 A  
HETATM    4  O   UNL     1      -7.992  10.914  65.023  1.00  0.00     0.005 OA 
HETATM    5  C   UNL     1      -9.137   8.139  65.333  1.00  0.00     0.110 A  
HETATM    6  I   UNL     1      -7.194   7.882  64.424  1.00  0.00    -0.099 I  
HETATM    7  C   UNL     1      -9.749   6.980  65.889  1.00  0.00     0.385 A  
HETATM    8  I   UNL     1     -12.211  11.254  66.056  1.00  0.00     3.858 I  
HETATM    9  C   UNL     1     -11.043   7.098  66.427  1.00  0.00     1.114 A  
HETATM   10  C   UNL     1     -11.097   9.468  65.854  1.00  0.00     1.688 A  
HETATM   11  C   UNL     1     -11.711   8.330  66.392  1.00  0.00     5.051 A  
HETATM   12  I   UNL     1     -12.014   5.591  67.543  1.00  0.00     7.553 I  
ENDROOT
BRANCH   7  13
HETATM   13  N   UNL     1      -8.993   5.771  65.951  1.00  0.00    -0.156 N  
HETATM   14  O   UNL     1      -7.557   6.244  64.191  1.00  0.00    -0.083 OA 
HETATM   15  C   UNL     1      -7.934   5.506  65.097  1.00  0.00    -0.110 C  
HETATM   16  H   UNL     1      -9.243   5.073  66.652  1.00  0.00     0.000 HD 
BRANCH  15  17
HETATM   17  C   UNL     1      -7.138   4.261  65.469  1.00  0.00    -0.063 C  
BRANCH  17  18
HETATM   18  C   UNL     1      -6.400   4.487  66.787  1.00  0.00    -0.037 C  
BRANCH  18  19
HETATM   19  C   UNL     1      -5.385   5.634  66.771  1.00  0.00    -0.008 C  
BRANCH  19  20
HETATM   20  C   UNL     1      -5.620   6.696  65.692  1.00  0.00    -0.029 C  
BRANCH  20  21
HETATM   21  C   UNL     1      -6.463   7.841  66.243  1.00  0.00    -0.046 C  
HETATM   22  N   UNL     1      -6.607   7.810  67.623  1.00  0.00    -0.061 N  
HETATM   23  O   UNL     1      -7.017   8.652  65.509  1.00  0.00    -0.076 OA 
HETATM   24  H   UNL     1      -6.161   7.062  68.153  1.00  0.00     0.000 HD 
BRANCH  22  25
HETATM   25  C   UNL     1      -7.365   8.800  68.317  1.00  0.00    -0.087 A  
HETATM   26  C   UNL     1      -7.775   9.994  67.704  1.00  0.00    -0.091 A  
HETATM   27  I   UNL     1      -7.081  10.658  65.815  1.00  0.00     0.087 I  
HETATM   28  C   UNL     1      -8.551  10.923  68.404  1.00  0.00    -0.146 A  
HETATM   29  C   UNL     1      -8.876  10.715  69.751  1.00  0.00     0.313 A  
HETATM   30  I   UNL     1      -9.953  12.304  70.638  1.00  0.00     8.100 I  
HETATM   31  C   UNL     1      -8.438   9.559  70.421  1.00  0.00    -0.238 A  
HETATM   32  C   UNL     1      -8.684   9.371  71.881  1.00  0.00     0.910 C  
HETATM   33  C   UNL     1      -7.684   8.603  69.689  1.00  0.00    -0.089 A  
HETATM   34  O   UNL     1      -7.817   9.026  72.664  1.00  0.00    -0.330 OA 
HETATM   35  I   UNL     1      -7.082   6.723  70.568  1.00  0.00    -0.071 I  
HETATM   36  O   UNL     1      -9.961   9.571  72.274  1.00  0.00     0.438 OA 
ENDBRANCH  22  25
ENDBRANCH  20  21
ENDBRANCH  19  20
ENDBRANCH  18  19
ENDBRANCH  17  18
ENDBRANCH  15  17
ENDBRANCH   7  13
TORSDOF 7
ENDMDL
MODEL      322
REMARK 921   NORMALIZED FREE ENERGY PREDICTED BY IDOCK:   53.18 KCAL/MOL
REMARK 922        TOTAL FREE ENERGY PREDICTED BY IDOCK:   74.02 KCAL/MOL
REMARK 923 INTER-LIGAND FREE ENERGY PREDICTED BY IDOCK:   72.50 KCAL/MOL
REMARK 924 INTRA-LIGAND FREE ENERGY PREDICTED BY IDOCK:    1.51 KCAL/MOL
REMARK 927      BINDING AFFINITY PREDICTED BY RF-SCORE:    0.00 PKD
ROOT
HETATM    1  O   UNL     1      -7.729  18.206  70.056  1.00  0.00     0.986 OA 
HETATM    2  C   UNL     1      -7.824  17.191  70.943  1.00  0.00     5.382 C  
HETATM    3  C   UNL     1      -8.919  16.224  70.663  1.00  0.00     2.825 A  
HETATM    4  O   UNL     1      -7.034  17.062  71.862  1.00  0.00     5.296 OA 
HETATM    5  C   UNL     1      -8.671  14.824  70.669  1.00  0.00     2.062 A  
HETATM    6  I   UNL     1      -6.669  14.041  70.896  1.00  0.00     1.786 I  
HETATM    7  C   UNL     1      -9.711  13.880  70.439  1.00  0.00     2.826 A  
HETATM    8  I   UNL     1     -10.864  18.678  70.558  1.00  0.00     4.838 I  
HETATM    9  C   UNL     1     -11.015  14.361  70.218  1.00  0.00     0.117 A  
HETATM   10  C   UNL     1     -10.237  16.661  70.448  1.00  0.00     0.797 A  
HETATM   11  C   UNL     1     -11.265  15.740  70.208  1.00  0.00    -0.377 A  
HETATM   12  I   UNL     1     -12.738  13.143  70.139  1.00  0.00     0.549 I  
ENDROOT
BRANCH   7  13
HETATM   13  N   UNL     1      -9.404  12.489  70.523  1.00  0.00     5.181 N  
HETATM   14  O   UNL     1     -10.077  12.184  72.723  1.00  0.00    15.938 OA 
HETATM   15  C   UNL     1      -9.632  11.740  71.668  1.00  0.00    13.396 C  
HETATM   16  H   UNL     1      -9.002  12.026  69.708  1.00  0.00     0.000 HD 
BRANCH  15  17
HETATM   17  C   UNL     1      -9.431  10.243  71.476  1.00  0.00     3.488 C  
BRANCH  17  18
HETATM   18  C   UNL     1     -10.601   9.475  72.089  1.00  0.00     0.763 C  
BRANCH  18  19
HETATM   19  C   UNL     1     -11.337   8.542  71.123  1.00  0.00    -0.319 C  
BRANCH  19  20
HETATM   20  C   UNL     1     -10.516   7.353  70.614  1.00  0.00    -0.224 C  
BRANCH  20  21
HETATM   21  C   UNL     1     -10.388   7.402  69.095  1.00  0.00    -0.208 C  
HETATM   22  N   UNL     1      -9.195   7.959  68.656  1.00  0.00    -0.143 N  
HETATM   23  O   UNL     1     -11.299   7.051  68.353  1.00  0.00     0.033 OA 
HETATM   24  H   UNL     1      -8.514   8.281  69.344  1.00  0.00     0.000 HD 
BRANCH  22  25
HETATM   25  C   UNL     1      -8.898   8.090  67.267  1.00  0.00    -0.131 A  
HETATM   26  C   UNL     1      -9.821   8.620  66.352  1.00  0.00    -0.270 A  
HETATM   27  I   UNL     1     -11.857   8.992  66.801  1.00  0.00     8.186 I  
HETATM   28  C   UNL     1      -9.479   8.771  65.004  1.00  0.00     0.329 A  
HETATM   29  C   UNL     1      -8.237   8.332  64.526  1.00  0.00    -0.135 A  
HETATM   30  I   UNL     1      -7.986   8.550  62.438  1.00  0.00    -0.164 I  
HETATM   31  C   UNL     1      -7.304   7.743  65.397  1.00  0.00    -0.077 A  
HETATM   32  C   UNL     1      -6.021   7.176  64.889  1.00  0.00    -0.037 C  
HETATM   33  C   UNL     1      -7.646   7.631  66.772  1.00  0.00    -0.098 A  
HETATM   34  O   UNL     1      -5.611   6.071  65.199  1.00  0.00    -0.016 OA 
HETATM   35  I   UNL     1      -6.238   6.881  68.230  1.00  0.00    -0.038 I  
HETATM   36  O   UNL     1      -5.315   7.997  64.082  1.00  0.00    -0.040 OA 
ENDBRANCH  22  25
ENDBRANCH  20  21
ENDBRANCH  19  20
ENDBRANCH  18  19
ENDBRANCH  17  18
ENDBRANCH  15  17
ENDBRANCH   7  13
TORSDOF 7
ENDMDL
MODEL      323
REMARK 921   NORMALIZED FREE ENERGY PREDICTED BY IDOCK:   55.59 KCAL/MOL
REMARK 922        TOTAL FREE ENERGY PREDICTED BY IDOCK:   77.42 KCAL/MOL
REMARK 923 INTER-LIGAND FREE ENERGY PREDICTED BY IDOCK:   59.32 KCAL/MOL
REMARK 924 INTRA-LIGAND FREE ENERGY PREDICTED BY IDOCK:   18.10 KCAL/MOL
REMARK 927      BINDING AFFINITY PREDICTED BY RF-SCORE:    0.00 PKD
ROOT
HETATM    1  O   UNL     1      -7.366  20.902  67.188  1.00  0.00    -0.345 OA 
HETATM    2  C   UNL     1      -7.744  20.577  68.444  1.00  0.00     0.184 C  
HETATM    3  C   UNL     1      -8.482  19.290  68.555  1.00  0.00    -0.401 A  
HETATM    4  O   UNL     1      -7.451  21.266  69.404  1.00  0.00     2.102 OA 
HETATM    5  C   UNL     1      -8.115  18.325  69.532  1.00  0.00     0.581 A  
HETATM    6  I   UNL     1      -6.365  18.593  70.771  1.00  0.00     1.523 I  
HETATM    7  C   UNL     1      -8.829  17.102  69.679  1.00  0.00     0.819 A  
HETATM    8  I   UNL     1     -10.416  20.372  66.340  1.00  0.00     0.714 I  
HETATM    9  C   UNL     1      -9.932  16.865  68.839  1.00  0.00    -0.279 A  
HETATM   10  C   UNL     1      -9.596  19.018  67.741  1.00  0.00    -0.311 A  
HETATM   11  C   UNL     1     -10.297  17.812  67.871  1.00  0.00    -0.388 A  
HETATM   12  I   UNL     1     -11.289  15.265  69.073  1.00  0.00    -0.389 I  
ENDROOT
BRANCH   7  13
HETATM   13  N   UNL     1      -8.447  16.207  70.723  1.00  0.00     2.908 N  
HETATM   14  O   UNL     1     -10.306  14.823  70.603  1.00  0.00     0.213 OA 
HETATM   15  C   UNL     1      -9.218  15.116  71.093  1.00  0.00     2.731 C  
HETATM   16  H   UNL     1      -7.571  16.377  71.217  1.00  0.00     0.000 HD 
BRANCH  15  17
HETATM   17  C   UNL     1      -8.530  14.180  72.077  1.00  0.00     8.175 C  
BRANCH  17  18
HETATM   18  C   UNL     1      -8.359  12.797  71.452  1.00  0.00    12.829 C  
BRANCH  18  19
HETATM   19  C   UNL     1      -9.327  12.481  70.308  1.00  0.00     4.750 C  
BRANCH  19  20
HETATM   20  C   UNL     1      -9.310  13.481  69.147  1.00  0.00     0.487 C  
BRANCH  20  21
HETATM   21  C   UNL     1      -9.989  12.886  67.917  1.00  0.00    -0.233 C  
HETATM   22  N   UNL     1      -9.358  11.750  67.431  1.00  0.00    -0.171 N  
HETATM   23  O   UNL     1     -10.950  13.425  67.381  1.00  0.00    -0.264 OA 
HETATM   24  H   UNL     1      -8.524  11.402  67.905  1.00  0.00     0.000 HD 
BRANCH  22  25
HETATM   25  C   UNL     1      -9.848  11.056  66.285  1.00  0.00    -0.215 A  
HETATM   26  C   UNL     1      -9.749   9.662  66.154  1.00  0.00    -0.252 A  
HETATM   27  I   UNL     1      -8.596   8.430  67.435  1.00  0.00    -0.132 I  
HETATM   28  C   UNL     1     -10.277   9.014  65.033  1.00  0.00     1.643 A  
HETATM   29  C   UNL     1     -10.854   9.746  63.987  1.00  0.00     3.704 A  
HETATM   30  I   UNL     1     -11.476   8.568  62.345  1.00  0.00    17.585 I  
HETATM   31  C   UNL     1     -10.923  11.149  64.050  1.00  0.00    -0.269 A  
HETATM   32  C   UNL     1     -11.437  11.951  62.902  1.00  0.00     0.310 C  
HETATM   33  C   UNL     1     -10.419  11.795  65.211  1.00  0.00    -0.274 A  
HETATM   34  O   UNL     1     -10.860  12.928  62.460  1.00  0.00     1.520 OA 
HETATM   35  I   UNL     1     -10.604  13.930  65.488  1.00  0.00    -0.379 I  
HETATM   36  O   UNL     1     -12.623  11.538  62.404  1.00  0.00     0.848 OA 
ENDBRANCH  22  25
ENDBRANCH  20  21
ENDBRANCH  19  20
ENDBRANCH  18  19
ENDBRANCH  17  18
ENDBRANCH  15  17
ENDBRANCH   7  13
TORSDOF 7
ENDMDL
MODEL      324
REMARK 921   NORMALIZED FREE ENERGY PREDICTED BY IDOCK:   58.53 KCAL/MOL
REMARK 922        TOTAL FREE ENERGY PREDICTED BY IDOCK:   81.57 KCAL/MOL
REMARK 923 INTER-LIGAND FREE ENERGY PREDICTED BY IDOCK:   61.98 KCAL/MOL
REMARK 924 INTRA-LIGAND FREE ENERGY PREDICTED BY IDOCK:   19.59 KCAL/MOL
REMARK 927      BINDING AFFINITY PREDICTED BY RF-SCORE:    0.00 PKD
ROOT
HETATM    1  O   UNL     1      -5.798  10.863  65.229  1.00  0.00    -0.101 OA 
HETATM    2  C   UNL     1      -6.560  10.039  65.981  1.00  0.00    -0.095 C  
HETATM    3  C   UNL     1      -7.999  10.010  65.605  1.00  0.00    -0.140 A  
HETATM    4  O   UNL     1      -6.082   9.342  66.858  1.00  0.00    -0.061 OA 
HETATM    5  C   UNL     1      -8.677   8.774  65.427  1.00  0.00    -0.183 A  
HETATM    6  I   UNL     1      -7.620   6.891  65.508  1.00  0.00    -0.111 I  
HETATM    7  C   UNL     1     -10.063   8.723  65.102  1.00  0.00     1.509 A  
HETATM    8  I   UNL     1      -7.979  13.133  65.855  1.00  0.00     3.848 I  
HETATM    9  C   UNL     1     -10.766   9.934  64.973  1.00  0.00     1.222 A  
HETATM   10  C   UNL     1      -8.740  11.197  65.476  1.00  0.00    -0.094 A  
HETATM   11  C   UNL     1     -10.101  11.157  65.144  1.00  0.00    -0.335 A  
HETATM   12  I   UNL     1     -12.863  10.082  64.778  1.00  0.00    16.390 I  
ENDROOT
BRANCH   7  13
HETATM   13  N   UNL     1     -10.696   7.448  65.001  1.00  0.00     4.865 N  
HETATM   14  O   UNL     1     -12.764   8.093  65.834  1.00  0.00    11.370 OA 
HETATM   15  C   UNL     1     -12.017   7.238  65.364  1.00  0.00    10.074 C  
HETATM   16  H   UNL     1     -10.154   6.659  64.648  1.00  0.00     0.000 HD 
BRANCH  15  17
HETATM   17  C   UNL     1     -12.551   5.863  64.982  1.00  0.00     6.929 C  
BRANCH  17  18
HETATM   18  C   UNL     1     -12.361   4.887  66.141  1.00  0.00     5.983 C  
BRANCH  18  19
HETATM   19  C   UNL     1     -11.197   3.905  65.975  1.00  0.00     2.579 C  
BRANCH  19  20
HETATM   20  C   UNL     1      -9.809   4.549  65.898  1.00  0.00    -0.236 C  
BRANCH  20  21
HETATM   21  C   UNL     1      -9.160   4.590  67.278  1.00  0.00    -0.127 C  
HETATM   22  N   UNL     1      -9.059   5.869  67.806  1.00  0.00    -0.111 N  
HETATM   23  O   UNL     1      -8.707   3.584  67.813  1.00  0.00    -0.096 OA 
HETATM   24  H   UNL     1      -9.408   6.659  67.265  1.00  0.00     0.000 HD 
BRANCH  22  25
HETATM   25  C   UNL     1      -8.477   6.104  69.087  1.00  0.00    -0.119 A  
HETATM   26  C   UNL     1      -7.959   7.356  69.456  1.00  0.00    -0.127 A  
HETATM   27  I   UNL     1      -7.662   8.961  68.105  1.00  0.00    -0.101 I  
HETATM   28  C   UNL     1      -7.433   7.559  70.735  1.00  0.00    -0.076 A  
HETATM   29  C   UNL     1      -7.347   6.501  71.651  1.00  0.00    -0.087 A  
HETATM   30  I   UNL     1      -6.408   7.010  73.476  1.00  0.00    -0.066 I  
HETATM   31  C   UNL     1      -7.800   5.217  71.303  1.00  0.00    -0.106 A  
HETATM   32  C   UNL     1      -7.621   4.057  72.225  1.00  0.00    -0.075 C  
HETATM   33  C   UNL     1      -8.370   5.031  70.015  1.00  0.00    -0.084 A  
HETATM   34  O   UNL     1      -7.175   2.982  71.865  1.00  0.00    -0.037 OA 
HETATM   35  I   UNL     1      -9.235   3.141  69.422  1.00  0.00    -0.135 I  
HETATM   36  O   UNL     1      -8.030   4.269  73.494  1.00  0.00    -0.088 OA 
ENDBRANCH  22  25
ENDBRANCH  20  21
ENDBRANCH  19  20
ENDBRANCH  18  19
ENDBRANCH  17  18
ENDBRANCH  15  17
ENDBRANCH   7  13
TORSDOF 7
ENDMDL
MODEL      325
REMARK 921   NORMALIZED FREE ENERGY PREDICTED BY IDOCK:   77.51 KCAL/MOL
REMARK 922        TOTAL FREE ENERGY PREDICTED BY IDOCK:  108.32 KCAL/MOL
REMARK 923 INTER-LIGAND FREE ENERGY PREDICTED BY IDOCK:   45.12 KCAL/MOL
REMARK 924 INTRA-LIGAND FREE ENERGY PREDICTED BY IDOCK:   63.19 KCAL/MOL
REMARK 927      BINDING AFFINITY PREDICTED BY RF-SCORE:    0.00 PKD
ROOT
HETATM    1  O   UNL     1      -9.597  16.407  73.134  1.00  0.00     9.388 OA 
HETATM    2  C   UNL     1      -9.969  16.728  71.876  1.00  0.00     5.876 C  
HETATM    3  C   UNL     1      -9.305  15.930  70.811  1.00  0.00     2.066 A  
HETATM    4  O   UNL     1     -10.820  17.570  71.650  1.00  0.00     1.404 OA 
HETATM    5  C   UNL     1     -10.066  15.333  69.769  1.00  0.00    -0.218 A  
HETATM    6  I   UNL     1     -12.226  15.396  69.781  1.00  0.00    -0.096 I  
HETATM    7  C   UNL     1      -9.447  14.594  68.721  1.00  0.00    -0.199 A  
HETATM    8  I   UNL     1      -6.570  16.730  72.116  1.00  0.00     7.199 I  
HETATM    9  C   UNL     1      -8.045  14.475  68.723  1.00  0.00    -0.146 A  
HETATM   10  C   UNL     1      -7.906  15.794  70.770  1.00  0.00     2.406 A  
HETATM   11  C   UNL     1      -7.290  15.059  69.749  1.00  0.00    -0.132 A  
HETATM   12  I   UNL     1      -6.914  13.675  67.129  1.00  0.00     1.186 I  
ENDROOT
BRANCH   7  13
HETATM   13  N   UNL     1     -10.266  14.077  67.673  1.00  0.00    -0.240 N  
HETATM   14  O   UNL     1      -9.822  11.831  68.050  1.00  0.00    -0.173 OA 
HETATM   15  C   UNL     1     -10.402  12.719  67.431  1.00  0.00    -0.222 C  
HETATM   16  H   UNL     1     -10.771  14.734  67.077  1.00  0.00     0.000 HD 
BRANCH  15  17
HETATM   17  C   UNL     1     -11.479  12.380  66.408  1.00  0.00    -0.427 C  
BRANCH  17  18
HETATM   18  C   UNL     1     -12.424  13.566  66.230  1.00  0.00    -0.384 C  
BRANCH  18  19
HETATM   19  C   UNL     1     -13.046  14.097  67.525  1.00  0.00     2.393 C  
BRANCH  19  20
HETATM   20  C   UNL     1     -12.044  14.469  68.623  1.00  0.00    -0.253 C  
BRANCH  20  21
HETATM   21  C   UNL     1     -11.237  15.698  68.217  1.00  0.00    -0.353 C  
HETATM   22  N   UNL     1     -11.281  15.966  66.856  1.00  0.00    -0.087 N  
HETATM   23  O   UNL     1     -10.556  16.324  69.022  1.00  0.00    -0.246 OA 
HETATM   24  H   UNL     1     -11.825  15.356  66.246  1.00  0.00     0.000 HD 
BRANCH  22  25
HETATM   25  C   UNL     1     -10.584  17.074  66.290  1.00  0.00    -0.185 A  
HETATM   26  C   UNL     1     -10.748  17.456  64.949  1.00  0.00     0.547 A  
HETATM   27  I   UNL     1     -11.765  16.292  63.500  1.00  0.00     5.639 I  
HETATM   28  C   UNL     1     -10.078  18.573  64.440  1.00  0.00     5.892 A  
HETATM   29  C   UNL     1      -9.177  19.293  65.237  1.00  0.00     1.553 A  
HETATM   30  I   UNL     1      -8.192  20.867  64.226  1.00  0.00     4.117 I  
HETATM   31  C   UNL     1      -8.940  18.912  66.569  1.00  0.00    -0.326 A  
HETATM   32  C   UNL     1      -7.908  19.600  67.399  1.00  0.00    -0.267 C  
HETATM   33  C   UNL     1      -9.656  17.799  67.088  1.00  0.00    -0.276 A  
HETATM   34  O   UNL     1      -7.075  19.003  68.058  1.00  0.00    -0.231 OA 
HETATM   35  I   UNL     1      -9.486  17.210  69.160  1.00  0.00     0.217 I  
HETATM   36  O   UNL     1      -7.986  20.948  67.403  1.00  0.00    -0.300 OA 
ENDBRANCH  22  25
ENDBRANCH  20  21
ENDBRANCH  19  20
ENDBRANCH  18  19
ENDBRANCH  17  18
ENDBRANCH  15  17
ENDBRANCH   7  13
TORSDOF 7
ENDMDL
