MODEL        1
REMARK 921   NORMALIZED FREE ENERGY PREDICTED BY IDOCK:   -4.73 KCAL/MOL
REMARK 922        TOTAL FREE ENERGY PREDICTED BY IDOCK:   -6.60 KCAL/MOL
REMARK 923 INTER-LIGAND FREE ENERGY PREDICTED BY IDOCK:   -5.83 KCAL/MOL
REMARK 924 INTRA-LIGAND FREE ENERGY PREDICTED BY IDOCK:   -0.76 KCAL/MOL
REMARK 927      BINDING AFFINITY PREDICTED BY RF-SCORE:    0.00 PKD
ROOT
HETATM    1  C   UNL     1     -10.124  12.028  63.932  1.00  0.00    -0.394 C  
HETATM    2  C   UNL     1     -11.353  12.808  63.461  1.00  0.00    -0.420 C  
HETATM    3  C   UNL     1     -12.614  11.967  63.685  1.00  0.00    -0.605 C  
ENDROOT
BRANCH   2   4
HETATM    4  N   UNL     1     -11.531  14.083  64.170  1.00  0.00    -0.608 NA 
HETATM    5  H   UNL     1     -12.080  14.847  63.777  1.00  0.00     0.000 HD 
BRANCH   4   6
HETATM    6  C   UNL     1     -10.867  14.193  65.484  1.00  0.00    -0.310 C  
HETATM    7  C   UNL     1      -9.955  15.423  65.544  1.00  0.00    -0.379 C  
BRANCH   6   8
HETATM    8  C   UNL     1     -11.916  14.292  66.623  1.00  0.00    -0.454 C  
BRANCH   8   9
HETATM    9  C   UNL     1     -11.822  13.194  67.662  1.00  0.00    -0.405 A  
HETATM   10  C   UNL     1     -12.043  13.467  69.018  1.00  0.00    -0.299 A  
HETATM   11  C   UNL     1     -11.972  12.444  69.968  1.00  0.00    -0.372 A  
HETATM   12  C   UNL     1     -11.675  11.142  69.565  1.00  0.00    -0.335 A  
HETATM   13  C   UNL     1     -11.445  10.858  68.218  1.00  0.00    -0.376 A  
HETATM   14  I   UNL     1     -11.581   9.617  70.973  1.00  0.00    -0.490 I  
HETATM   15  C   UNL     1     -11.522  11.880  67.272  1.00  0.00    -0.385 A  
ENDBRANCH   8   9
ENDBRANCH   6   8
ENDBRANCH   4   6
ENDBRANCH   2   4
TORSDOF 4
ENDMDL
MODEL        2
REMARK 921   NORMALIZED FREE ENERGY PREDICTED BY IDOCK:   -4.69 KCAL/MOL
REMARK 922        TOTAL FREE ENERGY PREDICTED BY IDOCK:   -6.55 KCAL/MOL
REMARK 923 INTER-LIGAND FREE ENERGY PREDICTED BY IDOCK:   -5.97 KCAL/MOL
REMARK 924 INTRA-LIGAND FREE ENERGY PREDICTED BY IDOCK:   -0.58 KCAL/MOL
REMARK 927      BINDING AFFINITY PREDICTED BY RF-SCORE:    0.00 PKD
ROOT
HETATM    1  C   UNL     1      -9.930   8.614  71.988  1.00  0.00    -0.399 C  
HETATM    2  C   UNL     1     -10.796   7.537  72.645  1.00  0.00    -0.315 C  
HETATM    3  C   UNL     1     -10.115   7.036  73.922  1.00  0.00    -0.386 C  
ENDROOT
BRANCH   2   4
HETATM    4  N   UNL     1     -12.136   8.021  73.008  1.00  0.00    -0.642 NA 
HETATM    5  H   UNL     1     -12.465   8.023  73.974  1.00  0.00     0.000 HD 
BRANCH   4   6
HETATM    6  C   UNL     1     -12.976   8.503  71.895  1.00  0.00    -0.362 C  
HETATM    7  C   UNL     1     -14.068   7.487  71.542  1.00  0.00    -0.550 C  
BRANCH   6   8
HETATM    8  C   UNL     1     -13.646   9.855  72.257  1.00  0.00    -0.337 C  
BRANCH   8   9
HETATM    9  C   UNL     1     -13.095  11.051  71.511  1.00  0.00    -0.500 A  
HETATM   10  C   UNL     1     -12.337  10.884  70.344  1.00  0.00    -0.436 A  
HETATM   11  C   UNL     1     -11.848  11.994  69.651  1.00  0.00    -0.401 A  
HETATM   12  C   UNL     1     -12.109  13.279  70.127  1.00  0.00    -0.333 A  
HETATM   13  C   UNL     1     -12.855  13.460  71.292  1.00  0.00    -0.407 A  
HETATM   14  I   UNL     1     -11.392  14.933  69.093  1.00  0.00    -0.390 I  
HETATM   15  C   UNL     1     -13.347  12.350  71.978  1.00  0.00    -0.511 A  
ENDBRANCH   8   9
ENDBRANCH   6   8
ENDBRANCH   4   6
ENDBRANCH   2   4
TORSDOF 4
ENDMDL
MODEL        3
REMARK 921   NORMALIZED FREE ENERGY PREDICTED BY IDOCK:   -4.68 KCAL/MOL
REMARK 922        TOTAL FREE ENERGY PREDICTED BY IDOCK:   -6.54 KCAL/MOL
REMARK 923 INTER-LIGAND FREE ENERGY PREDICTED BY IDOCK:   -5.81 KCAL/MOL
REMARK 924 INTRA-LIGAND FREE ENERGY PREDICTED BY IDOCK:   -0.73 KCAL/MOL
REMARK 927      BINDING AFFINITY PREDICTED BY RF-SCORE:    0.00 PKD
ROOT
HETATM    1  C   UNL     1     -10.998   7.261  70.444  1.00  0.00    -0.273 C  
HETATM    2  C   UNL     1     -10.895   7.265  71.971  1.00  0.00    -0.233 C  
HETATM    3  C   UNL     1      -9.816   8.258  72.412  1.00  0.00    -0.375 C  
ENDROOT
BRANCH   2   4
HETATM    4  N   UNL     1     -12.152   7.644  72.630  1.00  0.00    -0.576 NA 
HETATM    5  H   UNL     1     -12.317   7.467  73.622  1.00  0.00     0.000 HD 
BRANCH   4   6
HETATM    6  C   UNL     1     -13.163   8.297  71.775  1.00  0.00    -0.347 C  
HETATM    7  C   UNL     1     -14.406   7.415  71.613  1.00  0.00    -0.614 C  
BRANCH   6   8
HETATM    8  C   UNL     1     -13.592   9.662  72.375  1.00  0.00    -0.397 C  
BRANCH   8   9
HETATM    9  C   UNL     1     -13.073  10.870  71.623  1.00  0.00    -0.538 A  
HETATM   10  C   UNL     1     -13.400  12.169  72.037  1.00  0.00    -0.470 A  
HETATM   11  C   UNL     1     -12.902  13.278  71.349  1.00  0.00    -0.411 A  
HETATM   12  C   UNL     1     -12.078  13.094  70.238  1.00  0.00    -0.328 A  
HETATM   13  C   UNL     1     -11.751  11.806  69.811  1.00  0.00    -0.408 A  
HETATM   14  I   UNL     1     -11.327  14.741  69.220  1.00  0.00    -0.392 I  
HETATM   15  C   UNL     1     -12.245  10.701  70.503  1.00  0.00    -0.449 A  
ENDBRANCH   8   9
ENDBRANCH   6   8
ENDBRANCH   4   6
ENDBRANCH   2   4
TORSDOF 4
ENDMDL
MODEL        4
REMARK 921   NORMALIZED FREE ENERGY PREDICTED BY IDOCK:   -4.58 KCAL/MOL
REMARK 922        TOTAL FREE ENERGY PREDICTED BY IDOCK:   -6.42 KCAL/MOL
REMARK 923 INTER-LIGAND FREE ENERGY PREDICTED BY IDOCK:   -6.04 KCAL/MOL
REMARK 924 INTRA-LIGAND FREE ENERGY PREDICTED BY IDOCK:   -0.38 KCAL/MOL
REMARK 927      BINDING AFFINITY PREDICTED BY RF-SCORE:    0.00 PKD
ROOT
HETATM    1  C   UNL     1     -12.264  12.042  63.430  1.00  0.00    -0.627 C  
HETATM    2  C   UNL     1     -11.817  13.011  64.527  1.00  0.00    -0.377 C  
HETATM    3  C   UNL     1     -12.148  14.447  64.113  1.00  0.00    -0.405 C  
ENDROOT
BRANCH   2   4
HETATM    4  N   UNL     1     -12.467  12.753  65.820  1.00  0.00    -0.576 NA 
HETATM    5  H   UNL     1     -13.470  12.585  65.896  1.00  0.00     0.000 HD 
BRANCH   4   6
HETATM    6  C   UNL     1     -11.583  12.751  67.002  1.00  0.00    -0.360 C  
HETATM    7  C   UNL     1     -10.272  12.011  66.714  1.00  0.00    -0.225 C  
BRANCH   6   8
HETATM    8  C   UNL     1     -11.253  14.200  67.445  1.00  0.00    -0.334 C  
BRANCH   8   9
HETATM    9  C   UNL     1     -11.562  14.500  68.897  1.00  0.00    -0.341 A  
HETATM   10  C   UNL     1     -12.140  13.528  69.725  1.00  0.00    -0.381 A  
HETATM   11  C   UNL     1     -12.405  13.807  71.068  1.00  0.00    -0.452 A  
HETATM   12  C   UNL     1     -12.098  15.064  71.589  1.00  0.00    -0.347 A  
HETATM   13  C   UNL     1     -11.529  16.044  70.774  1.00  0.00    -0.444 A  
HETATM   14  I   UNL     1     -12.479  15.479  73.589  1.00  0.00    -0.845 I  
HETATM   15  C   UNL     1     -11.260  15.761  69.435  1.00  0.00    -0.324 A  
ENDBRANCH   8   9
ENDBRANCH   6   8
ENDBRANCH   4   6
ENDBRANCH   2   4
TORSDOF 4
ENDMDL
MODEL        5
REMARK 921   NORMALIZED FREE ENERGY PREDICTED BY IDOCK:   -4.57 KCAL/MOL
REMARK 922        TOTAL FREE ENERGY PREDICTED BY IDOCK:   -6.41 KCAL/MOL
REMARK 923 INTER-LIGAND FREE ENERGY PREDICTED BY IDOCK:   -6.00 KCAL/MOL
REMARK 924 INTRA-LIGAND FREE ENERGY PREDICTED BY IDOCK:   -0.40 KCAL/MOL
REMARK 927      BINDING AFFINITY PREDICTED BY RF-SCORE:    0.00 PKD
ROOT
HETATM    1  C   UNL     1     -11.952  11.951  63.575  1.00  0.00    -0.567 C  
HETATM    2  C   UNL     1     -11.660  12.972  64.676  1.00  0.00    -0.346 C  
HETATM    3  C   UNL     1     -12.079  14.369  64.209  1.00  0.00    -0.461 C  
ENDROOT
BRANCH   2   4
HETATM    4  N   UNL     1     -12.372  12.684  65.929  1.00  0.00    -0.595 NA 
HETATM    5  H   UNL     1     -13.376  12.504  65.950  1.00  0.00     0.000 HD 
BRANCH   4   6
HETATM    6  C   UNL     1     -11.549  12.669  67.155  1.00  0.00    -0.368 C  
HETATM    7  C   UNL     1     -10.284  11.825  66.965  1.00  0.00    -0.240 C  
BRANCH   6   8
HETATM    8  C   UNL     1     -11.135  14.110  67.556  1.00  0.00    -0.304 C  
BRANCH   8   9
HETATM    9  C   UNL     1     -11.466  14.485  68.986  1.00  0.00    -0.318 A  
HETATM   10  C   UNL     1     -11.123  15.744  69.496  1.00  0.00    -0.306 A  
HETATM   11  C   UNL     1     -11.449  16.089  70.811  1.00  0.00    -0.444 A  
HETATM   12  C   UNL     1     -12.115  15.171  71.624  1.00  0.00    -0.359 A  
HETATM   13  C   UNL     1     -12.456  13.911  71.130  1.00  0.00    -0.450 A  
HETATM   14  I   UNL     1     -12.612  15.685  73.574  1.00  0.00    -0.864 I  
HETATM   15  C   UNL     1     -12.134  13.572  69.816  1.00  0.00    -0.381 A  
ENDBRANCH   8   9
ENDBRANCH   6   8
ENDBRANCH   4   6
ENDBRANCH   2   4
TORSDOF 4
ENDMDL
MODEL        6
REMARK 921   NORMALIZED FREE ENERGY PREDICTED BY IDOCK:   -4.56 KCAL/MOL
REMARK 922        TOTAL FREE ENERGY PREDICTED BY IDOCK:   -6.39 KCAL/MOL
REMARK 923 INTER-LIGAND FREE ENERGY PREDICTED BY IDOCK:   -6.09 KCAL/MOL
REMARK 924 INTRA-LIGAND FREE ENERGY PREDICTED BY IDOCK:   -0.30 KCAL/MOL
REMARK 927      BINDING AFFINITY PREDICTED BY RF-SCORE:    0.00 PKD
ROOT
HETATM    1  C   UNL     1     -12.421  15.232  73.606  1.00  0.00    -0.716 C  
HETATM    2  C   UNL     1     -12.859  15.156  72.142  1.00  0.00    -0.344 C  
HETATM    3  C   UNL     1     -14.360  15.440  72.037  1.00  0.00    -0.653 C  
ENDROOT
BRANCH   2   4
HETATM    4  N   UNL     1     -12.156  16.119  71.281  1.00  0.00    -0.596 NA 
HETATM    5  H   UNL     1     -11.956  17.071  71.589  1.00  0.00     0.000 HD 
BRANCH   4   6
HETATM    6  C   UNL     1     -11.758  15.628  69.948  1.00  0.00    -0.362 C  
HETATM    7  C   UNL     1     -10.237  15.689  69.765  1.00  0.00    -0.303 C  
BRANCH   6   8
HETATM    8  C   UNL     1     -12.230  14.165  69.736  1.00  0.00    -0.397 C  
BRANCH   8   9
HETATM    9  C   UNL     1     -11.934  13.600  68.363  1.00  0.00    -0.391 A  
HETATM   10  C   UNL     1     -12.239  14.330  67.206  1.00  0.00    -0.287 A  
HETATM   11  C   UNL     1     -11.946  13.809  65.942  1.00  0.00    -0.433 A  
HETATM   12  C   UNL     1     -11.352  12.552  65.830  1.00  0.00    -0.340 A  
HETATM   13  C   UNL     1     -11.051  11.812  66.974  1.00  0.00    -0.358 A  
HETATM   14  I   UNL     1     -10.905  11.780  63.954  1.00  0.00    -0.567 I  
HETATM   15  C   UNL     1     -11.339  12.337  68.234  1.00  0.00    -0.339 A  
ENDBRANCH   8   9
ENDBRANCH   6   8
ENDBRANCH   4   6
ENDBRANCH   2   4
TORSDOF 4
ENDMDL
MODEL        7
REMARK 921   NORMALIZED FREE ENERGY PREDICTED BY IDOCK:   -4.54 KCAL/MOL
REMARK 922        TOTAL FREE ENERGY PREDICTED BY IDOCK:   -6.37 KCAL/MOL
REMARK 923 INTER-LIGAND FREE ENERGY PREDICTED BY IDOCK:   -5.88 KCAL/MOL
REMARK 924 INTRA-LIGAND FREE ENERGY PREDICTED BY IDOCK:   -0.49 KCAL/MOL
REMARK 927      BINDING AFFINITY PREDICTED BY RF-SCORE:    0.00 PKD
ROOT
HETATM    1  C   UNL     1     -12.190  14.443  64.407  1.00  0.00    -0.481 C  
HETATM    2  C   UNL     1     -12.604  13.672  65.662  1.00  0.00    -0.484 C  
HETATM    3  C   UNL     1     -11.700  12.448  65.836  1.00  0.00    -0.476 C  
ENDROOT
BRANCH   2   4
HETATM    4  N   UNL     1     -12.512  14.477  66.888  1.00  0.00    -0.464 NA 
HETATM    5  H   UNL     1     -13.245  15.133  67.159  1.00  0.00     0.000 HD 
BRANCH   4   6
HETATM    6  C   UNL     1     -11.297  14.283  67.703  1.00  0.00    -0.324 C  
HETATM    7  C   UNL     1     -10.206  15.291  67.325  1.00  0.00    -0.248 C  
BRANCH   6   8
HETATM    8  C   UNL     1     -11.618  14.435  69.213  1.00  0.00    -0.345 C  
BRANCH   8   9
HETATM    9  C   UNL     1     -12.032  13.152  69.902  1.00  0.00    -0.387 A  
HETATM   10  C   UNL     1     -12.753  13.181  71.103  1.00  0.00    -0.386 A  
HETATM   11  C   UNL     1     -13.147  11.992  71.722  1.00  0.00    -0.460 A  
HETATM   12  C   UNL     1     -12.815  10.766  71.145  1.00  0.00    -0.414 A  
HETATM   13  C   UNL     1     -12.090  10.722  69.954  1.00  0.00    -0.410 A  
HETATM   14  I   UNL     1     -13.409   8.996  72.057  1.00  0.00    -0.597 I  
HETATM   15  C   UNL     1     -11.704  11.911  69.335  1.00  0.00    -0.401 A  
ENDBRANCH   8   9
ENDBRANCH   6   8
ENDBRANCH   4   6
ENDBRANCH   2   4
TORSDOF 4
ENDMDL
MODEL        8
REMARK 921   NORMALIZED FREE ENERGY PREDICTED BY IDOCK:   -4.54 KCAL/MOL
REMARK 922        TOTAL FREE ENERGY PREDICTED BY IDOCK:   -6.36 KCAL/MOL
REMARK 923 INTER-LIGAND FREE ENERGY PREDICTED BY IDOCK:   -5.75 KCAL/MOL
REMARK 924 INTRA-LIGAND FREE ENERGY PREDICTED BY IDOCK:   -0.62 KCAL/MOL
REMARK 927      BINDING AFFINITY PREDICTED BY RF-SCORE:    0.00 PKD
ROOT
HETATM    1  C   UNL     1     -10.161  11.790  64.504  1.00  0.00    -0.327 C  
HETATM    2  C   UNL     1     -11.088  12.716  63.713  1.00  0.00    -0.453 C  
HETATM    3  C   UNL     1     -12.487  12.099  63.632  1.00  0.00    -0.658 C  
ENDROOT
BRANCH   2   4
HETATM    4  N   UNL     1     -11.218  14.050  64.316  1.00  0.00    -0.594 NA 
HETATM    5  H   UNL     1     -11.704  14.811  63.843  1.00  0.00     0.000 HD 
BRANCH   4   6
HETATM    6  C   UNL     1     -10.604  14.223  65.647  1.00  0.00    -0.319 C  
HETATM    7  C   UNL     1      -9.590  15.372  65.646  1.00  0.00    -0.323 C  
BRANCH   6   8
HETATM    8  C   UNL     1     -11.687  14.512  66.720  1.00  0.00    -0.393 C  
BRANCH   8   9
HETATM    9  C   UNL     1     -11.818  13.444  67.786  1.00  0.00    -0.395 A  
HETATM   10  C   UNL     1     -11.718  12.085  67.458  1.00  0.00    -0.351 A  
HETATM   11  C   UNL     1     -11.822  11.107  68.451  1.00  0.00    -0.302 A  
HETATM   12  C   UNL     1     -12.031  11.485  69.777  1.00  0.00    -0.346 A  
HETATM   13  C   UNL     1     -12.141  12.834  70.116  1.00  0.00    -0.370 A  
HETATM   14  I   UNL     1     -12.174  10.034  71.258  1.00  0.00    -0.514 I  
HETATM   15  C   UNL     1     -12.031  13.808  69.124  1.00  0.00    -0.403 A  
ENDBRANCH   8   9
ENDBRANCH   6   8
ENDBRANCH   4   6
ENDBRANCH   2   4
TORSDOF 4
ENDMDL
MODEL        9
REMARK 921   NORMALIZED FREE ENERGY PREDICTED BY IDOCK:   -4.47 KCAL/MOL
REMARK 922        TOTAL FREE ENERGY PREDICTED BY IDOCK:   -6.28 KCAL/MOL
REMARK 923 INTER-LIGAND FREE ENERGY PREDICTED BY IDOCK:   -5.46 KCAL/MOL
REMARK 924 INTRA-LIGAND FREE ENERGY PREDICTED BY IDOCK:   -0.82 KCAL/MOL
REMARK 927      BINDING AFFINITY PREDICTED BY RF-SCORE:    0.00 PKD
ROOT
HETATM    1  C   UNL     1      -9.789  16.952  66.238  1.00  0.00    -0.320 C  
HETATM    2  C   UNL     1      -8.924  15.692  66.164  1.00  0.00    -0.327 C  
HETATM    3  C   UNL     1      -8.380  15.357  67.556  1.00  0.00    -0.190 C  
ENDROOT
BRANCH   2   4
HETATM    4  N   UNL     1      -9.661  14.518  65.673  1.00  0.00    -0.530 NA 
HETATM    5  H   UNL     1      -9.197  13.763  65.168  1.00  0.00     0.000 HD 
BRANCH   4   6
HETATM    6  C   UNL     1     -11.109  14.497  65.954  1.00  0.00    -0.327 C  
HETATM    7  C   UNL     1     -11.923  14.341  64.665  1.00  0.00    -0.468 C  
BRANCH   6   8
HETATM    8  C   UNL     1     -11.466  13.333  66.916  1.00  0.00    -0.376 C  
BRANCH   8   9
HETATM    9  C   UNL     1     -11.790  13.763  68.331  1.00  0.00    -0.411 A  
HETATM   10  C   UNL     1     -11.902  15.120  68.663  1.00  0.00    -0.329 A  
HETATM   11  C   UNL     1     -12.220  15.507  69.967  1.00  0.00    -0.380 A  
HETATM   12  C   UNL     1     -12.422  14.537  70.949  1.00  0.00    -0.345 A  
HETATM   13  C   UNL     1     -12.305  13.183  70.635  1.00  0.00    -0.405 A  
HETATM   14  I   UNL     1     -12.906  15.109  72.887  1.00  0.00    -0.726 I  
HETATM   15  C   UNL     1     -11.994  12.799  69.330  1.00  0.00    -0.321 A  
ENDBRANCH   8   9
ENDBRANCH   6   8
ENDBRANCH   4   6
ENDBRANCH   2   4
TORSDOF 4
ENDMDL
MODEL       10
REMARK 921   NORMALIZED FREE ENERGY PREDICTED BY IDOCK:   -4.46 KCAL/MOL
REMARK 922        TOTAL FREE ENERGY PREDICTED BY IDOCK:   -6.27 KCAL/MOL
REMARK 923 INTER-LIGAND FREE ENERGY PREDICTED BY IDOCK:   -5.67 KCAL/MOL
REMARK 924 INTRA-LIGAND FREE ENERGY PREDICTED BY IDOCK:   -0.60 KCAL/MOL
REMARK 927      BINDING AFFINITY PREDICTED BY RF-SCORE:    0.00 PKD
ROOT
HETATM    1  C   UNL     1     -12.626  13.988  65.459  1.00  0.00    -0.543 C  
HETATM    2  C   UNL     1     -12.067  13.476  66.789  1.00  0.00    -0.375 C  
HETATM    3  C   UNL     1     -10.583  13.135  66.628  1.00  0.00    -0.284 C  
ENDROOT
BRANCH   2   4
HETATM    4  N   UNL     1     -12.190  14.455  67.878  1.00  0.00    -0.620 NA 
HETATM    5  H   UNL     1     -12.773  15.288  67.792  1.00  0.00     0.000 HD 
BRANCH   4   6
HETATM    6  C   UNL     1     -11.419  14.164  69.103  1.00  0.00    -0.296 C  
HETATM    7  C   UNL     1     -10.645  15.398  69.579  1.00  0.00    -0.270 C  
BRANCH   6   8
HETATM    8  C   UNL     1     -12.358  13.691  70.244  1.00  0.00    -0.392 C  
BRANCH   8   9
HETATM    9  C   UNL     1     -12.285  12.208  70.545  1.00  0.00    -0.392 A  
HETATM   10  C   UNL     1     -11.443  11.366  69.808  1.00  0.00    -0.376 A  
HETATM   11  C   UNL     1     -11.368  10.002  70.104  1.00  0.00    -0.357 A  
HETATM   12  C   UNL     1     -12.142   9.474  71.138  1.00  0.00    -0.347 A  
HETATM   13  C   UNL     1     -12.991  10.300  71.875  1.00  0.00    -0.554 A  
HETATM   14  I   UNL     1     -12.025   7.449  71.589  1.00  0.00    -0.409 I  
HETATM   15  C   UNL     1     -13.059  11.662  71.580  1.00  0.00    -0.456 A  
ENDBRANCH   8   9
ENDBRANCH   6   8
ENDBRANCH   4   6
ENDBRANCH   2   4
TORSDOF 4
ENDMDL
MODEL       11
REMARK 921   NORMALIZED FREE ENERGY PREDICTED BY IDOCK:   -4.45 KCAL/MOL
REMARK 922        TOTAL FREE ENERGY PREDICTED BY IDOCK:   -6.25 KCAL/MOL
REMARK 923 INTER-LIGAND FREE ENERGY PREDICTED BY IDOCK:   -5.53 KCAL/MOL
REMARK 924 INTRA-LIGAND FREE ENERGY PREDICTED BY IDOCK:   -0.73 KCAL/MOL
REMARK 927      BINDING AFFINITY PREDICTED BY RF-SCORE:    0.00 PKD
ROOT
HETATM    1  C   UNL     1      -9.981  14.874  68.680  1.00  0.00    -0.224 C  
HETATM    2  C   UNL     1     -11.354  15.333  68.186  1.00  0.00    -0.338 C  
HETATM    3  C   UNL     1     -11.988  14.234  67.329  1.00  0.00    -0.439 C  
ENDROOT
BRANCH   2   4
HETATM    4  N   UNL     1     -12.284  15.644  69.281  1.00  0.00    -0.565 NA 
HETATM    5  H   UNL     1     -13.086  16.260  69.149  1.00  0.00     0.000 HD 
BRANCH   4   6
HETATM    6  C   UNL     1     -11.989  15.012  70.582  1.00  0.00    -0.318 C  
HETATM    7  C   UNL     1     -11.779  16.064  71.676  1.00  0.00    -0.583 C  
BRANCH   6   8
HETATM    8  C   UNL     1     -13.144  14.068  71.009  1.00  0.00    -0.342 C  
BRANCH   8   9
HETATM    9  C   UNL     1     -12.770  12.602  71.069  1.00  0.00    -0.316 A  
HETATM   10  C   UNL     1     -13.376  11.743  71.995  1.00  0.00    -0.417 A  
HETATM   11  C   UNL     1     -13.038  10.387  72.032  1.00  0.00    -0.521 A  
HETATM   12  C   UNL     1     -12.086   9.885  71.144  1.00  0.00    -0.374 A  
HETATM   13  C   UNL     1     -11.469  10.732  70.222  1.00  0.00    -0.406 A  
HETATM   14  I   UNL     1     -11.590   7.869  71.187  1.00  0.00    -0.299 I  
HETATM   15  C   UNL     1     -11.812  12.083  70.184  1.00  0.00    -0.383 A  
ENDBRANCH   8   9
ENDBRANCH   6   8
ENDBRANCH   4   6
ENDBRANCH   2   4
TORSDOF 4
ENDMDL
MODEL       12
REMARK 921   NORMALIZED FREE ENERGY PREDICTED BY IDOCK:   -4.45 KCAL/MOL
REMARK 922        TOTAL FREE ENERGY PREDICTED BY IDOCK:   -6.25 KCAL/MOL
REMARK 923 INTER-LIGAND FREE ENERGY PREDICTED BY IDOCK:   -5.65 KCAL/MOL
REMARK 924 INTRA-LIGAND FREE ENERGY PREDICTED BY IDOCK:   -0.60 KCAL/MOL
REMARK 927      BINDING AFFINITY PREDICTED BY RF-SCORE:    0.00 PKD
ROOT
HETATM    1  C   UNL     1     -10.869   6.057  71.702  1.00  0.00    -0.314 C  
HETATM    2  C   UNL     1     -11.835   6.685  70.694  1.00  0.00    -0.383 C  
HETATM    3  C   UNL     1     -12.954   7.417  71.441  1.00  0.00    -0.403 C  
ENDROOT
BRANCH   2   4
HETATM    4  N   UNL     1     -11.183   7.652  69.800  1.00  0.00    -0.448 NA 
HETATM    5  H   UNL     1     -10.920   7.411  68.844  1.00  0.00     0.000 HD 
BRANCH   4   6
HETATM    6  C   UNL     1     -10.933   8.993  70.364  1.00  0.00    -0.247 C  
HETATM    7  C   UNL     1      -9.436   9.226  70.599  1.00  0.00    -0.333 C  
BRANCH   6   8
HETATM    8  C   UNL     1     -11.470  10.098  69.417  1.00  0.00    -0.202 C  
BRANCH   8   9
HETATM    9  C   UNL     1     -11.999  11.329  70.121  1.00  0.00    -0.452 A  
HETATM   10  C   UNL     1     -12.714  11.218  71.322  1.00  0.00    -0.510 A  
HETATM   11  C   UNL     1     -13.183  12.361  71.976  1.00  0.00    -0.514 A  
HETATM   12  C   UNL     1     -12.945  13.621  71.427  1.00  0.00    -0.347 A  
HETATM   13  C   UNL     1     -12.242  13.745  70.228  1.00  0.00    -0.429 A  
HETATM   14  I   UNL     1     -13.631  15.322  72.402  1.00  0.00    -0.700 I  
HETATM   15  C   UNL     1     -11.769  12.603  69.581  1.00  0.00    -0.373 A  
ENDBRANCH   8   9
ENDBRANCH   6   8
ENDBRANCH   4   6
ENDBRANCH   2   4
TORSDOF 4
ENDMDL
MODEL       13
REMARK 921   NORMALIZED FREE ENERGY PREDICTED BY IDOCK:   -4.45 KCAL/MOL
REMARK 922        TOTAL FREE ENERGY PREDICTED BY IDOCK:   -6.25 KCAL/MOL
REMARK 923 INTER-LIGAND FREE ENERGY PREDICTED BY IDOCK:   -5.86 KCAL/MOL
REMARK 924 INTRA-LIGAND FREE ENERGY PREDICTED BY IDOCK:   -0.39 KCAL/MOL
REMARK 927      BINDING AFFINITY PREDICTED BY RF-SCORE:    0.00 PKD
ROOT
HETATM    1  C   UNL     1     -10.371  10.913  64.398  1.00  0.00    -0.430 C  
HETATM    2  C   UNL     1     -10.705  12.227  63.688  1.00  0.00    -0.467 C  
HETATM    3  C   UNL     1     -12.221  12.347  63.511  1.00  0.00    -0.661 C  
ENDROOT
BRANCH   2   4
HETATM    4  N   UNL     1     -10.242  13.411  64.424  1.00  0.00    -0.635 NA 
HETATM    5  H   UNL     1      -9.782  14.192  63.956  1.00  0.00     0.000 HD 
BRANCH   4   6
HETATM    6  C   UNL     1     -10.482  13.405  65.881  1.00  0.00    -0.287 C  
HETATM    7  C   UNL     1      -9.173  13.575  66.660  1.00  0.00    -0.221 C  
BRANCH   6   8
HETATM    8  C   UNL     1     -11.456  14.544  66.283  1.00  0.00    -0.358 C  
BRANCH   8   9
HETATM    9  C   UNL     1     -11.580  14.767  67.776  1.00  0.00    -0.378 A  
HETATM   10  C   UNL     1     -11.176  15.976  68.357  1.00  0.00    -0.364 A  
HETATM   11  C   UNL     1     -11.312  16.182  69.733  1.00  0.00    -0.323 A  
HETATM   12  C   UNL     1     -11.848  15.174  70.535  1.00  0.00    -0.318 A  
HETATM   13  C   UNL     1     -12.246  13.962  69.970  1.00  0.00    -0.408 A  
HETATM   14  I   UNL     1     -12.061  15.480  72.579  1.00  0.00    -0.673 I  
HETATM   15  C   UNL     1     -12.115  13.762  68.596  1.00  0.00    -0.333 A  
ENDBRANCH   8   9
ENDBRANCH   6   8
ENDBRANCH   4   6
ENDBRANCH   2   4
TORSDOF 4
ENDMDL
MODEL       14
REMARK 921   NORMALIZED FREE ENERGY PREDICTED BY IDOCK:   -4.40 KCAL/MOL
REMARK 922        TOTAL FREE ENERGY PREDICTED BY IDOCK:   -6.20 KCAL/MOL
REMARK 923 INTER-LIGAND FREE ENERGY PREDICTED BY IDOCK:   -5.69 KCAL/MOL
REMARK 924 INTRA-LIGAND FREE ENERGY PREDICTED BY IDOCK:   -0.51 KCAL/MOL
REMARK 927      BINDING AFFINITY PREDICTED BY RF-SCORE:    0.00 PKD
ROOT
HETATM    1  C   UNL     1      -9.508  10.339  63.093  1.00  0.00    -0.337 C  
HETATM    2  C   UNL     1      -9.830  11.029  64.420  1.00  0.00    -0.298 C  
HETATM    3  C   UNL     1      -8.748  10.695  65.451  1.00  0.00    -0.195 C  
ENDROOT
BRANCH   2   4
HETATM    4  N   UNL     1      -9.905  12.492  64.303  1.00  0.00    -0.579 NA 
HETATM    5  H   UNL     1      -9.106  13.051  64.001  1.00  0.00     0.000 HD 
BRANCH   4   6
HETATM    6  C   UNL     1     -11.202  13.106  64.647  1.00  0.00    -0.340 C  
HETATM    7  C   UNL     1     -12.159  13.090  63.449  1.00  0.00    -0.591 C  
BRANCH   6   8
HETATM    8  C   UNL     1     -11.869  12.356  65.830  1.00  0.00    -0.467 C  
BRANCH   8   9
HETATM    9  C   UNL     1     -11.843  13.106  67.145  1.00  0.00    -0.424 A  
HETATM   10  C   UNL     1     -11.770  14.505  67.173  1.00  0.00    -0.420 A  
HETATM   11  C   UNL     1     -11.765  15.190  68.391  1.00  0.00    -0.338 A  
HETATM   12  C   UNL     1     -11.827  14.477  69.589  1.00  0.00    -0.318 A  
HETATM   13  C   UNL     1     -11.893  13.083  69.575  1.00  0.00    -0.385 A  
HETATM   14  I   UNL     1     -11.832  15.492  71.401  1.00  0.00    -0.635 I  
HETATM   15  C   UNL     1     -11.904  12.402  68.358  1.00  0.00    -0.361 A  
ENDBRANCH   8   9
ENDBRANCH   6   8
ENDBRANCH   4   6
ENDBRANCH   2   4
TORSDOF 4
ENDMDL
MODEL       15
REMARK 921   NORMALIZED FREE ENERGY PREDICTED BY IDOCK:   -4.38 KCAL/MOL
REMARK 922        TOTAL FREE ENERGY PREDICTED BY IDOCK:   -6.17 KCAL/MOL
REMARK 923 INTER-LIGAND FREE ENERGY PREDICTED BY IDOCK:   -5.65 KCAL/MOL
REMARK 924 INTRA-LIGAND FREE ENERGY PREDICTED BY IDOCK:   -0.52 KCAL/MOL
REMARK 927      BINDING AFFINITY PREDICTED BY RF-SCORE:    0.00 PKD
ROOT
HETATM    1  C   UNL     1     -10.496  11.247  64.937  1.00  0.00    -0.375 C  
HETATM    2  C   UNL     1     -10.517  12.511  64.075  1.00  0.00    -0.422 C  
HETATM    3  C   UNL     1     -11.955  12.818  63.646  1.00  0.00    -0.616 C  
ENDROOT
BRANCH   2   4
HETATM    4  N   UNL     1      -9.994  13.692  64.775  1.00  0.00    -0.632 NA 
HETATM    5  H   UNL     1      -9.517  14.446  64.280  1.00  0.00     0.000 HD 
BRANCH   4   6
HETATM    6  C   UNL     1     -10.199  13.725  66.237  1.00  0.00    -0.297 C  
HETATM    7  C   UNL     1      -8.883  13.994  66.976  1.00  0.00    -0.234 C  
BRANCH   6   8
HETATM    8  C   UNL     1     -11.225  14.821  66.624  1.00  0.00    -0.346 C  
BRANCH   8   9
HETATM    9  C   UNL     1     -11.502  14.927  68.109  1.00  0.00    -0.348 A  
HETATM   10  C   UNL     1     -12.059  13.853  68.815  1.00  0.00    -0.344 A  
HETATM   11  C   UNL     1     -12.294  13.952  70.189  1.00  0.00    -0.400 A  
HETATM   12  C   UNL     1     -11.979  15.132  70.863  1.00  0.00    -0.328 A  
HETATM   13  C   UNL     1     -11.431  16.213  70.171  1.00  0.00    -0.309 A  
HETATM   14  I   UNL     1     -12.316  15.280  72.907  1.00  0.00    -0.636 I  
HETATM   15  C   UNL     1     -11.192  16.108  68.801  1.00  0.00    -0.365 A  
ENDBRANCH   8   9
ENDBRANCH   6   8
ENDBRANCH   4   6
ENDBRANCH   2   4
TORSDOF 4
ENDMDL
MODEL       16
REMARK 921   NORMALIZED FREE ENERGY PREDICTED BY IDOCK:   -4.36 KCAL/MOL
REMARK 922        TOTAL FREE ENERGY PREDICTED BY IDOCK:   -6.15 KCAL/MOL
REMARK 923 INTER-LIGAND FREE ENERGY PREDICTED BY IDOCK:   -5.45 KCAL/MOL
REMARK 924 INTRA-LIGAND FREE ENERGY PREDICTED BY IDOCK:   -0.69 KCAL/MOL
REMARK 927      BINDING AFFINITY PREDICTED BY RF-SCORE:    0.00 PKD
ROOT
HETATM    1  C   UNL     1     -10.803  19.254  67.218  1.00  0.00    -0.554 C  
HETATM    2  C   UNL     1      -9.456  19.052  66.521  1.00  0.00    -0.345 C  
HETATM    3  C   UNL     1      -8.322  19.195  67.539  1.00  0.00    -0.315 C  
ENDROOT
BRANCH   2   4
HETATM    4  N   UNL     1      -9.330  17.731  65.888  1.00  0.00    -0.514 NA 
HETATM    5  H   UNL     1      -8.607  17.531  65.196  1.00  0.00     0.000 HD 
BRANCH   4   6
HETATM    6  C   UNL     1     -10.309  16.712  66.312  1.00  0.00    -0.317 C  
HETATM    7  C   UNL     1     -10.812  15.893  65.117  1.00  0.00    -0.438 C  
BRANCH   6   8
HETATM    8  C   UNL     1      -9.682  15.746  67.352  1.00  0.00    -0.223 C  
BRANCH   8   9
HETATM    9  C   UNL     1     -10.593  15.387  68.507  1.00  0.00    -0.240 A  
HETATM   10  C   UNL     1     -10.751  16.255  69.595  1.00  0.00    -0.338 A  
HETATM   11  C   UNL     1     -11.608  15.925  70.649  1.00  0.00    -0.426 A  
HETATM   12  C   UNL     1     -12.308  14.719  70.620  1.00  0.00    -0.337 A  
HETATM   13  C   UNL     1     -12.155  13.841  69.546  1.00  0.00    -0.386 A  
HETATM   14  I   UNL     1     -13.592  14.229  72.178  1.00  0.00    -0.709 I  
HETATM   15  C   UNL     1     -11.303  14.177  68.494  1.00  0.00    -0.312 A  
ENDBRANCH   8   9
ENDBRANCH   6   8
ENDBRANCH   4   6
ENDBRANCH   2   4
TORSDOF 4
ENDMDL
MODEL       17
REMARK 921   NORMALIZED FREE ENERGY PREDICTED BY IDOCK:   -4.36 KCAL/MOL
REMARK 922        TOTAL FREE ENERGY PREDICTED BY IDOCK:   -6.14 KCAL/MOL
REMARK 923 INTER-LIGAND FREE ENERGY PREDICTED BY IDOCK:   -5.67 KCAL/MOL
REMARK 924 INTRA-LIGAND FREE ENERGY PREDICTED BY IDOCK:   -0.47 KCAL/MOL
REMARK 927      BINDING AFFINITY PREDICTED BY RF-SCORE:    0.00 PKD
ROOT
HETATM    1  C   UNL     1      -8.980  10.703  62.453  1.00  0.00    -0.329 C  
HETATM    2  C   UNL     1      -9.930  11.021  63.610  1.00  0.00    -0.361 C  
HETATM    3  C   UNL     1      -9.622  10.104  64.797  1.00  0.00    -0.378 C  
ENDROOT
BRANCH   2   4
HETATM    4  N   UNL     1      -9.823  12.411  64.075  1.00  0.00    -0.594 NA 
HETATM    5  H   UNL     1      -8.924  12.833  64.314  1.00  0.00     0.000 HD 
BRANCH   4   6
HETATM    6  C   UNL     1     -11.089  13.162  64.175  1.00  0.00    -0.394 C  
HETATM    7  C   UNL     1     -12.217  12.454  63.416  1.00  0.00    -0.623 C  
BRANCH   6   8
HETATM    8  C   UNL     1     -11.513  13.331  65.658  1.00  0.00    -0.342 C  
BRANCH   8   9
HETATM    9  C   UNL     1     -11.169  14.677  66.262  1.00  0.00    -0.340 A  
HETATM   10  C   UNL     1     -11.313  14.905  67.637  1.00  0.00    -0.348 A  
HETATM   11  C   UNL     1     -10.975  16.144  68.189  1.00  0.00    -0.341 A  
HETATM   12  C   UNL     1     -10.498  17.163  67.365  1.00  0.00    -0.334 A  
HETATM   13  C   UNL     1     -10.359  16.952  65.993  1.00  0.00    -0.335 A  
HETATM   14  I   UNL     1      -9.985  19.002  68.184  1.00  0.00    -0.523 I  
HETATM   15  C   UNL     1     -10.690  15.713  65.446  1.00  0.00    -0.424 A  
ENDBRANCH   8   9
ENDBRANCH   6   8
ENDBRANCH   4   6
ENDBRANCH   2   4
TORSDOF 4
ENDMDL
MODEL       18
REMARK 921   NORMALIZED FREE ENERGY PREDICTED BY IDOCK:   -4.34 KCAL/MOL
REMARK 922        TOTAL FREE ENERGY PREDICTED BY IDOCK:   -6.12 KCAL/MOL
REMARK 923 INTER-LIGAND FREE ENERGY PREDICTED BY IDOCK:   -5.65 KCAL/MOL
REMARK 924 INTRA-LIGAND FREE ENERGY PREDICTED BY IDOCK:   -0.47 KCAL/MOL
REMARK 927      BINDING AFFINITY PREDICTED BY RF-SCORE:    0.00 PKD
ROOT
HETATM    1  C   UNL     1     -13.508  14.140  72.537  1.00  0.00    -0.634 C  
HETATM    2  C   UNL     1     -13.341  15.512  71.880  1.00  0.00    -0.477 C  
HETATM    3  C   UNL     1     -12.056  16.174  72.387  1.00  0.00    -0.630 C  
ENDROOT
BRANCH   2   4
HETATM    4  N   UNL     1     -13.263  15.441  70.414  1.00  0.00    -0.715 NA 
HETATM    5  H   UNL     1     -14.079  15.596  69.822  1.00  0.00     0.000 HD 
BRANCH   4   6
HETATM    6  C   UNL     1     -11.935  15.132  69.849  1.00  0.00    -0.337 C  
HETATM    7  C   UNL     1     -11.825  13.653  69.463  1.00  0.00    -0.394 C  
BRANCH   6   8
HETATM    8  C   UNL     1     -11.657  15.999  68.592  1.00  0.00    -0.343 C  
BRANCH   8   9
HETATM    9  C   UNL     1     -10.330  16.728  68.612  1.00  0.00    -0.318 A  
HETATM   10  C   UNL     1     -10.260  18.102  68.343  1.00  0.00    -0.401 A  
HETATM   11  C   UNL     1      -9.034  18.771  68.381  1.00  0.00    -0.367 A  
HETATM   12  C   UNL     1      -7.868  18.066  68.683  1.00  0.00    -0.290 A  
HETATM   13  C   UNL     1      -7.922  16.696  68.945  1.00  0.00    -0.236 A  
HETATM   14  I   UNL     1      -6.045  19.059  68.752  1.00  0.00    -0.273 I  
HETATM   15  C   UNL     1      -9.149  16.033  68.912  1.00  0.00    -0.235 A  
ENDBRANCH   8   9
ENDBRANCH   6   8
ENDBRANCH   4   6
ENDBRANCH   2   4
TORSDOF 4
ENDMDL
MODEL       19
REMARK 921   NORMALIZED FREE ENERGY PREDICTED BY IDOCK:   -4.32 KCAL/MOL
REMARK 922        TOTAL FREE ENERGY PREDICTED BY IDOCK:   -6.10 KCAL/MOL
REMARK 923 INTER-LIGAND FREE ENERGY PREDICTED BY IDOCK:   -5.70 KCAL/MOL
REMARK 924 INTRA-LIGAND FREE ENERGY PREDICTED BY IDOCK:   -0.40 KCAL/MOL
REMARK 927      BINDING AFFINITY PREDICTED BY RF-SCORE:    0.00 PKD
ROOT
HETATM    1  C   UNL     1      -8.986  10.936  62.458  1.00  0.00    -0.360 C  
HETATM    2  C   UNL     1     -10.009  11.114  63.581  1.00  0.00    -0.363 C  
HETATM    3  C   UNL     1      -9.672  10.173  64.740  1.00  0.00    -0.389 C  
ENDROOT
BRANCH   2   4
HETATM    4  N   UNL     1     -10.048  12.485  64.111  1.00  0.00    -0.549 NA 
HETATM    5  H   UNL     1      -9.210  12.954  64.456  1.00  0.00     0.000 HD 
BRANCH   4   6
HETATM    6  C   UNL     1     -11.369  13.143  64.112  1.00  0.00    -0.398 C  
HETATM    7  C   UNL     1     -12.404  12.314  63.343  1.00  0.00    -0.624 C  
BRANCH   6   8
HETATM    8  C   UNL     1     -11.876  13.356  65.563  1.00  0.00    -0.394 C  
BRANCH   8   9
HETATM    9  C   UNL     1     -11.346  14.603  66.239  1.00  0.00    -0.347 A  
HETATM   10  C   UNL     1     -10.641  15.570  65.511  1.00  0.00    -0.413 A  
HETATM   11  C   UNL     1     -10.172  16.727  66.138  1.00  0.00    -0.363 A  
HETATM   12  C   UNL     1     -10.401  16.919  67.501  1.00  0.00    -0.318 A  
HETATM   13  C   UNL     1     -11.094  15.960  68.240  1.00  0.00    -0.345 A  
HETATM   14  I   UNL     1      -9.714  18.643  68.435  1.00  0.00    -0.459 I  
HETATM   15  C   UNL     1     -11.567  14.809  67.609  1.00  0.00    -0.374 A  
ENDBRANCH   8   9
ENDBRANCH   6   8
ENDBRANCH   4   6
ENDBRANCH   2   4
TORSDOF 4
ENDMDL
MODEL       20
REMARK 921   NORMALIZED FREE ENERGY PREDICTED BY IDOCK:   -4.30 KCAL/MOL
REMARK 922        TOTAL FREE ENERGY PREDICTED BY IDOCK:   -6.07 KCAL/MOL
REMARK 923 INTER-LIGAND FREE ENERGY PREDICTED BY IDOCK:   -5.33 KCAL/MOL
REMARK 924 INTRA-LIGAND FREE ENERGY PREDICTED BY IDOCK:   -0.73 KCAL/MOL
REMARK 927      BINDING AFFINITY PREDICTED BY RF-SCORE:    0.00 PKD
ROOT
HETATM    1  C   UNL     1     -12.905  13.966  65.289  1.00  0.00    -0.437 C  
HETATM    2  C   UNL     1     -12.277  12.607  64.970  1.00  0.00    -0.476 C  
HETATM    3  C   UNL     1     -11.242  12.767  63.854  1.00  0.00    -0.491 C  
ENDROOT
BRANCH   2   4
HETATM    4  N   UNL     1     -11.603  12.001  66.127  1.00  0.00    -0.463 NA 
HETATM    5  H   UNL     1     -11.233  11.051  66.099  1.00  0.00     0.000 HD 
BRANCH   4   6
HETATM    6  C   UNL     1     -11.492  12.848  67.331  1.00  0.00    -0.336 C  
HETATM    7  C   UNL     1     -11.788  12.046  68.604  1.00  0.00    -0.366 C  
BRANCH   6   8
HETATM    8  C   UNL     1     -10.071  13.461  67.444  1.00  0.00    -0.237 C  
BRANCH   8   9
HETATM    9  C   UNL     1     -10.022  14.967  67.299  1.00  0.00    -0.233 A  
HETATM   10  C   UNL     1     -10.829  15.792  68.094  1.00  0.00    -0.307 A  
HETATM   11  C   UNL     1     -10.764  17.183  67.966  1.00  0.00    -0.372 A  
HETATM   12  C   UNL     1      -9.894  17.754  67.038  1.00  0.00    -0.309 A  
HETATM   13  C   UNL     1      -9.091  16.944  66.235  1.00  0.00    -0.302 A  
HETATM   14  I   UNL     1      -9.786  19.821  66.854  1.00  0.00    -0.654 I  
HETATM   15  C   UNL     1      -9.153  15.557  66.368  1.00  0.00    -0.351 A  
ENDBRANCH   8   9
ENDBRANCH   6   8
ENDBRANCH   4   6
ENDBRANCH   2   4
TORSDOF 4
ENDMDL
MODEL       21
REMARK 921   NORMALIZED FREE ENERGY PREDICTED BY IDOCK:   -4.29 KCAL/MOL
REMARK 922        TOTAL FREE ENERGY PREDICTED BY IDOCK:   -6.05 KCAL/MOL
REMARK 923 INTER-LIGAND FREE ENERGY PREDICTED BY IDOCK:   -5.65 KCAL/MOL
REMARK 924 INTRA-LIGAND FREE ENERGY PREDICTED BY IDOCK:   -0.41 KCAL/MOL
REMARK 927      BINDING AFFINITY PREDICTED BY RF-SCORE:    0.00 PKD
ROOT
HETATM    1  C   UNL     1     -14.061   7.427  71.672  1.00  0.00    -0.552 C  
HETATM    2  C   UNL     1     -13.005   8.516  71.873  1.00  0.00    -0.362 C  
HETATM    3  C   UNL     1     -11.764   7.915  72.540  1.00  0.00    -0.423 C  
ENDROOT
BRANCH   2   4
HETATM    4  N   UNL     1     -12.581   9.144  70.614  1.00  0.00    -0.484 NA 
HETATM    5  H   UNL     1     -12.179   8.600  69.849  1.00  0.00     0.000 HD 
BRANCH   4   6
HETATM    6  C   UNL     1     -12.770  10.604  70.520  1.00  0.00    -0.313 C  
HETATM    7  C   UNL     1     -13.195  11.197  71.868  1.00  0.00    -0.488 C  
BRANCH   6   8
HETATM    8  C   UNL     1     -11.462  11.300  70.057  1.00  0.00    -0.359 C  
BRANCH   8   9
HETATM    9  C   UNL     1     -11.576  12.043  68.743  1.00  0.00    -0.366 A  
HETATM   10  C   UNL     1     -11.896  13.407  68.714  1.00  0.00    -0.386 A  
HETATM   11  C   UNL     1     -11.981  14.090  67.498  1.00  0.00    -0.430 A  
HETATM   12  C   UNL     1     -11.751  13.409  66.303  1.00  0.00    -0.366 A  
HETATM   13  C   UNL     1     -11.439  12.050  66.316  1.00  0.00    -0.408 A  
HETATM   14  I   UNL     1     -11.865  14.424  64.494  1.00  0.00    -0.350 I  
HETATM   15  C   UNL     1     -11.349  11.372  67.532  1.00  0.00    -0.362 A  
ENDBRANCH   8   9
ENDBRANCH   6   8
ENDBRANCH   4   6
ENDBRANCH   2   4
TORSDOF 4
ENDMDL
MODEL       22
REMARK 921   NORMALIZED FREE ENERGY PREDICTED BY IDOCK:   -4.29 KCAL/MOL
REMARK 922        TOTAL FREE ENERGY PREDICTED BY IDOCK:   -6.05 KCAL/MOL
REMARK 923 INTER-LIGAND FREE ENERGY PREDICTED BY IDOCK:   -5.54 KCAL/MOL
REMARK 924 INTRA-LIGAND FREE ENERGY PREDICTED BY IDOCK:   -0.51 KCAL/MOL
REMARK 927      BINDING AFFINITY PREDICTED BY RF-SCORE:    0.00 PKD
ROOT
HETATM    1  C   UNL     1      -8.629  20.447  67.102  1.00  0.00    -0.402 C  
HETATM    2  C   UNL     1     -10.077  19.996  67.307  1.00  0.00    -0.437 C  
HETATM    3  C   UNL     1     -10.642  19.464  65.987  1.00  0.00    -0.573 C  
ENDROOT
BRANCH   2   4
HETATM    4  N   UNL     1     -10.211  18.934  68.314  1.00  0.00    -0.382 NA 
HETATM    5  H   UNL     1     -10.634  19.106  69.227  1.00  0.00     0.000 HD 
BRANCH   4   6
HETATM    6  C   UNL     1      -9.698  17.605  67.929  1.00  0.00    -0.295 C  
HETATM    7  C   UNL     1      -8.347  17.317  68.594  1.00  0.00    -0.255 C  
BRANCH   6   8
HETATM    8  C   UNL     1     -10.701  16.491  68.329  1.00  0.00    -0.345 C  
BRANCH   8   9
HETATM    9  C   UNL     1     -10.941  15.447  67.259  1.00  0.00    -0.317 A  
HETATM   10  C   UNL     1     -11.781  14.352  67.499  1.00  0.00    -0.416 A  
HETATM   11  C   UNL     1     -12.013  13.402  66.500  1.00  0.00    -0.452 A  
HETATM   12  C   UNL     1     -11.399  13.542  65.255  1.00  0.00    -0.290 A  
HETATM   13  C   UNL     1     -10.554  14.624  65.005  1.00  0.00    -0.461 A  
HETATM   14  I   UNL     1     -11.749  12.139  63.764  1.00  0.00    -0.573 I  
HETATM   15  C   UNL     1     -10.330  15.573  66.002  1.00  0.00    -0.342 A  
ENDBRANCH   8   9
ENDBRANCH   6   8
ENDBRANCH   4   6
ENDBRANCH   2   4
TORSDOF 4
ENDMDL
MODEL       23
REMARK 921   NORMALIZED FREE ENERGY PREDICTED BY IDOCK:   -4.28 KCAL/MOL
REMARK 922        TOTAL FREE ENERGY PREDICTED BY IDOCK:   -6.05 KCAL/MOL
REMARK 923 INTER-LIGAND FREE ENERGY PREDICTED BY IDOCK:   -5.48 KCAL/MOL
REMARK 924 INTRA-LIGAND FREE ENERGY PREDICTED BY IDOCK:   -0.57 KCAL/MOL
REMARK 927      BINDING AFFINITY PREDICTED BY RF-SCORE:    0.00 PKD
ROOT
HETATM    1  C   UNL     1     -11.370   7.857  72.590  1.00  0.00    -0.468 C  
HETATM    2  C   UNL     1     -11.643   8.146  71.112  1.00  0.00    -0.279 C  
HETATM    3  C   UNL     1     -11.735   6.828  70.338  1.00  0.00    -0.418 C  
ENDROOT
BRANCH   2   4
HETATM    4  N   UNL     1     -12.893   8.886  70.892  1.00  0.00    -0.497 NA 
HETATM    5  H   UNL     1     -13.806   8.432  70.946  1.00  0.00     0.000 HD 
BRANCH   4   6
HETATM    6  C   UNL     1     -12.752  10.324  70.590  1.00  0.00    -0.300 C  
HETATM    7  C   UNL     1     -13.073  11.184  71.818  1.00  0.00    -0.536 C  
BRANCH   6   8
HETATM    8  C   UNL     1     -11.311  10.647  70.115  1.00  0.00    -0.402 C  
BRANCH   8   9
HETATM    9  C   UNL     1     -11.204  11.050  68.659  1.00  0.00    -0.322 A  
HETATM   10  C   UNL     1     -10.485  10.267  67.747  1.00  0.00    -0.269 A  
HETATM   11  C   UNL     1     -10.406  10.636  66.402  1.00  0.00    -0.291 A  
HETATM   12  C   UNL     1     -11.044  11.797  65.963  1.00  0.00    -0.312 A  
HETATM   13  C   UNL     1     -11.757  12.590  66.862  1.00  0.00    -0.447 A  
HETATM   14  I   UNL     1     -10.940  12.343  63.961  1.00  0.00    -0.576 I  
HETATM   15  C   UNL     1     -11.839  12.216  68.203  1.00  0.00    -0.362 A  
ENDBRANCH   8   9
ENDBRANCH   6   8
ENDBRANCH   4   6
ENDBRANCH   2   4
TORSDOF 4
ENDMDL
MODEL       24
REMARK 921   NORMALIZED FREE ENERGY PREDICTED BY IDOCK:   -4.25 KCAL/MOL
REMARK 922        TOTAL FREE ENERGY PREDICTED BY IDOCK:   -6.01 KCAL/MOL
REMARK 923 INTER-LIGAND FREE ENERGY PREDICTED BY IDOCK:   -5.69 KCAL/MOL
REMARK 924 INTRA-LIGAND FREE ENERGY PREDICTED BY IDOCK:   -0.32 KCAL/MOL
REMARK 927      BINDING AFFINITY PREDICTED BY RF-SCORE:    0.00 PKD
ROOT
HETATM    1  C   UNL     1     -12.268  12.113  63.561  1.00  0.00    -0.670 C  
HETATM    2  C   UNL     1     -11.766  13.022  64.685  1.00  0.00    -0.361 C  
HETATM    3  C   UNL     1     -12.251  14.454  64.445  1.00  0.00    -0.481 C  
ENDROOT
BRANCH   2   4
HETATM    4  N   UNL     1     -12.234  12.605  66.014  1.00  0.00    -0.597 NA 
HETATM    5  H   UNL     1     -13.226  12.514  66.233  1.00  0.00     0.000 HD 
BRANCH   4   6
HETATM    6  C   UNL     1     -11.184  12.323  67.013  1.00  0.00    -0.310 C  
HETATM    7  C   UNL     1      -9.932  13.168  66.756  1.00  0.00    -0.250 C  
BRANCH   6   8
HETATM    8  C   UNL     1     -11.699  12.613  68.448  1.00  0.00    -0.377 C  
BRANCH   8   9
HETATM    9  C   UNL     1     -11.505  11.475  69.428  1.00  0.00    -0.376 A  
HETATM   10  C   UNL     1     -12.317  11.359  70.564  1.00  0.00    -0.439 A  
HETATM   11  C   UNL     1     -12.144  10.295  71.454  1.00  0.00    -0.457 A  
HETATM   12  C   UNL     1     -11.152   9.344  71.213  1.00  0.00    -0.376 A  
HETATM   13  C   UNL     1     -10.332   9.452  70.090  1.00  0.00    -0.273 A  
HETATM   14  I   UNL     1     -10.900   7.755  72.527  1.00  0.00    -0.471 I  
HETATM   15  C   UNL     1     -10.511  10.511  69.200  1.00  0.00    -0.250 A  
ENDBRANCH   8   9
ENDBRANCH   6   8
ENDBRANCH   4   6
ENDBRANCH   2   4
TORSDOF 4
ENDMDL
MODEL       25
REMARK 921   NORMALIZED FREE ENERGY PREDICTED BY IDOCK:   -4.24 KCAL/MOL
REMARK 922        TOTAL FREE ENERGY PREDICTED BY IDOCK:   -5.99 KCAL/MOL
REMARK 923 INTER-LIGAND FREE ENERGY PREDICTED BY IDOCK:   -5.33 KCAL/MOL
REMARK 924 INTRA-LIGAND FREE ENERGY PREDICTED BY IDOCK:   -0.67 KCAL/MOL
REMARK 927      BINDING AFFINITY PREDICTED BY RF-SCORE:    0.00 PKD
ROOT
HETATM    1  C   UNL     1     -12.199  12.156  63.458  1.00  0.00    -0.670 C  
HETATM    2  C   UNL     1     -11.655  13.400  64.164  1.00  0.00    -0.398 C  
HETATM    3  C   UNL     1     -12.550  13.749  65.357  1.00  0.00    -0.534 C  
ENDROOT
BRANCH   2   4
HETATM    4  N   UNL     1     -10.285  13.222  64.666  1.00  0.00    -0.566 NA 
HETATM    5  H   UNL     1      -9.468  13.411  64.084  1.00  0.00     0.000 HD 
BRANCH   4   6
HETATM    6  C   UNL     1     -10.160  12.755  66.061  1.00  0.00    -0.268 C  
HETATM    7  C   UNL     1      -9.798  11.266  66.117  1.00  0.00    -0.262 C  
BRANCH   6   8
HETATM    8  C   UNL     1      -9.073  13.564  66.816  1.00  0.00    -0.223 C  
BRANCH   8   9
HETATM    9  C   UNL     1      -9.367  15.043  66.948  1.00  0.00    -0.258 A  
HETATM   10  C   UNL     1     -10.381  15.501  67.800  1.00  0.00    -0.263 A  
HETATM   11  C   UNL     1     -10.634  16.869  67.930  1.00  0.00    -0.361 A  
HETATM   12  C   UNL     1      -9.876  17.787  67.202  1.00  0.00    -0.311 A  
HETATM   13  C   UNL     1      -8.869  17.344  66.344  1.00  0.00    -0.273 A  
HETATM   14  I   UNL     1     -10.242  19.822  67.401  1.00  0.00    -0.577 I  
HETATM   15  C   UNL     1      -8.615  15.978  66.221  1.00  0.00    -0.363 A  
ENDBRANCH   8   9
ENDBRANCH   6   8
ENDBRANCH   4   6
ENDBRANCH   2   4
TORSDOF 4
ENDMDL
MODEL       26
REMARK 921   NORMALIZED FREE ENERGY PREDICTED BY IDOCK:   -4.21 KCAL/MOL
REMARK 922        TOTAL FREE ENERGY PREDICTED BY IDOCK:   -5.96 KCAL/MOL
REMARK 923 INTER-LIGAND FREE ENERGY PREDICTED BY IDOCK:   -5.43 KCAL/MOL
REMARK 924 INTRA-LIGAND FREE ENERGY PREDICTED BY IDOCK:   -0.53 KCAL/MOL
REMARK 927      BINDING AFFINITY PREDICTED BY RF-SCORE:    0.00 PKD
ROOT
HETATM    1  C   UNL     1     -10.615  11.049  64.116  1.00  0.00    -0.412 C  
HETATM    2  C   UNL     1     -11.190  12.389  64.580  1.00  0.00    -0.312 C  
HETATM    3  C   UNL     1     -12.029  13.007  63.458  1.00  0.00    -0.615 C  
ENDROOT
BRANCH   2   4
HETATM    4  N   UNL     1     -12.046  12.266  65.768  1.00  0.00    -0.603 NA 
HETATM    5  H   UNL     1     -12.913  11.728  65.755  1.00  0.00     0.000 HD 
BRANCH   4   6
HETATM    6  C   UNL     1     -11.578  12.964  66.981  1.00  0.00    -0.362 C  
HETATM    7  C   UNL     1     -11.548  12.020  68.189  1.00  0.00    -0.403 C  
BRANCH   6   8
HETATM    8  C   UNL     1     -10.157  13.548  66.767  1.00  0.00    -0.268 C  
BRANCH   8   9
HETATM    9  C   UNL     1     -10.066  15.053  66.909  1.00  0.00    -0.249 A  
HETATM   10  C   UNL     1      -9.314  15.816  66.007  1.00  0.00    -0.384 A  
HETATM   11  C   UNL     1      -9.250  17.206  66.135  1.00  0.00    -0.216 A  
HETATM   12  C   UNL     1      -9.936  17.840  67.172  1.00  0.00    -0.322 A  
HETATM   13  C   UNL     1     -10.683  17.090  68.082  1.00  0.00    -0.374 A  
HETATM   14  I   UNL     1      -9.854  19.907  67.359  1.00  0.00    -0.618 I  
HETATM   15  C   UNL     1     -10.749  15.704  67.948  1.00  0.00    -0.294 A  
ENDBRANCH   8   9
ENDBRANCH   6   8
ENDBRANCH   4   6
ENDBRANCH   2   4
TORSDOF 4
ENDMDL
MODEL       27
REMARK 921   NORMALIZED FREE ENERGY PREDICTED BY IDOCK:   -4.21 KCAL/MOL
REMARK 922        TOTAL FREE ENERGY PREDICTED BY IDOCK:   -5.96 KCAL/MOL
REMARK 923 INTER-LIGAND FREE ENERGY PREDICTED BY IDOCK:   -5.20 KCAL/MOL
REMARK 924 INTRA-LIGAND FREE ENERGY PREDICTED BY IDOCK:   -0.76 KCAL/MOL
REMARK 927      BINDING AFFINITY PREDICTED BY RF-SCORE:    0.00 PKD
ROOT
HETATM    1  C   UNL     1     -12.173   9.759  71.171  1.00  0.00    -0.453 C  
HETATM    2  C   UNL     1     -13.031   9.098  72.253  1.00  0.00    -0.420 C  
HETATM    3  C   UNL     1     -14.210   8.370  71.603  1.00  0.00    -0.516 C  
ENDROOT
BRANCH   2   4
HETATM    4  N   UNL     1     -12.286   8.120  73.058  1.00  0.00    -0.625 NA 
HETATM    5  H   UNL     1     -12.614   7.814  73.975  1.00  0.00     0.000 HD 
BRANCH   4   6
HETATM    6  C   UNL     1     -11.037   7.606  72.463  1.00  0.00    -0.336 C  
HETATM    7  C   UNL     1      -9.853   7.779  73.422  1.00  0.00    -0.346 C  
BRANCH   6   8
HETATM    8  C   UNL     1     -11.176   6.102  72.105  1.00  0.00    -0.335 C  
BRANCH   8   9
HETATM    9  C   UNL     1     -10.781   5.754  70.685  1.00  0.00    -0.351 A  
HETATM   10  C   UNL     1      -9.845   4.744  70.427  1.00  0.00    -0.309 A  
HETATM   11  C   UNL     1      -9.500   4.417  69.113  1.00  0.00    -0.240 A  
HETATM   12  C   UNL     1     -10.087   5.103  68.050  1.00  0.00    -0.128 A  
HETATM   13  C   UNL     1     -11.015   6.117  68.294  1.00  0.00    -0.397 A  
HETATM   14  I   UNL     1      -9.586   4.612  66.095  1.00  0.00    -0.268 I  
HETATM   15  C   UNL     1     -11.362   6.437  69.606  1.00  0.00    -0.479 A  
ENDBRANCH   8   9
ENDBRANCH   6   8
ENDBRANCH   4   6
ENDBRANCH   2   4
TORSDOF 4
ENDMDL
MODEL       28
REMARK 921   NORMALIZED FREE ENERGY PREDICTED BY IDOCK:   -4.21 KCAL/MOL
REMARK 922        TOTAL FREE ENERGY PREDICTED BY IDOCK:   -5.95 KCAL/MOL
REMARK 923 INTER-LIGAND FREE ENERGY PREDICTED BY IDOCK:   -5.30 KCAL/MOL
REMARK 924 INTRA-LIGAND FREE ENERGY PREDICTED BY IDOCK:   -0.65 KCAL/MOL
REMARK 927      BINDING AFFINITY PREDICTED BY RF-SCORE:    0.00 PKD
ROOT
HETATM    1  C   UNL     1     -11.343  10.771  69.789  1.00  0.00    -0.372 C  
HETATM    2  C   UNL     1     -12.389  11.773  70.284  1.00  0.00    -0.240 C  
HETATM    3  C   UNL     1     -13.028  11.255  71.576  1.00  0.00    -0.520 C  
ENDROOT
BRANCH   2   4
HETATM    4  N   UNL     1     -11.826  13.102  70.560  1.00  0.00    -0.535 NA 
HETATM    5  H   UNL     1     -11.015  13.228  71.166  1.00  0.00     0.000 HD 
BRANCH   4   6
HETATM    6  C   UNL     1     -12.501  14.241  69.909  1.00  0.00    -0.264 C  
HETATM    7  C   UNL     1     -12.962  15.277  70.941  1.00  0.00    -0.522 C  
BRANCH   6   8
HETATM    8  C   UNL     1     -11.555  14.934  68.893  1.00  0.00    -0.339 C  
BRANCH   8   9
HETATM    9  C   UNL     1     -11.295  14.137  67.632  1.00  0.00    -0.342 A  
HETATM   10  C   UNL     1     -10.022  13.620  67.358  1.00  0.00    -0.234 A  
HETATM   11  C   UNL     1      -9.794  12.870  66.201  1.00  0.00    -0.270 A  
HETATM   12  C   UNL     1     -10.840  12.639  65.308  1.00  0.00    -0.288 A  
HETATM   13  C   UNL     1     -12.111  13.155  65.564  1.00  0.00    -0.490 A  
HETATM   14  I   UNL     1     -10.509  11.515  63.592  1.00  0.00    -0.513 I  
HETATM   15  C   UNL     1     -12.336  13.898  66.723  1.00  0.00    -0.370 A  
ENDBRANCH   8   9
ENDBRANCH   6   8
ENDBRANCH   4   6
ENDBRANCH   2   4
TORSDOF 4
ENDMDL
MODEL       29
REMARK 921   NORMALIZED FREE ENERGY PREDICTED BY IDOCK:   -4.20 KCAL/MOL
REMARK 922        TOTAL FREE ENERGY PREDICTED BY IDOCK:   -5.94 KCAL/MOL
REMARK 923 INTER-LIGAND FREE ENERGY PREDICTED BY IDOCK:   -5.12 KCAL/MOL
REMARK 924 INTRA-LIGAND FREE ENERGY PREDICTED BY IDOCK:   -0.82 KCAL/MOL
REMARK 927      BINDING AFFINITY PREDICTED BY RF-SCORE:    0.00 PKD
ROOT
HETATM    1  C   UNL     1      -9.636  11.934  68.454  1.00  0.00    -0.196 C  
HETATM    2  C   UNL     1     -10.965  11.177  68.499  1.00  0.00    -0.220 C  
HETATM    3  C   UNL     1     -11.855  11.763  69.598  1.00  0.00    -0.407 C  
ENDROOT
BRANCH   2   4
HETATM    4  N   UNL     1     -11.708  11.245  67.232  1.00  0.00    -0.553 NA 
HETATM    5  H   UNL     1     -12.545  10.686  67.067  1.00  0.00     0.000 HD 
BRANCH   4   6
HETATM    6  C   UNL     1     -11.172  12.170  66.215  1.00  0.00    -0.334 C  
HETATM    7  C   UNL     1     -11.024  11.476  64.856  1.00  0.00    -0.319 C  
BRANCH   6   8
HETATM    8  C   UNL     1     -12.099  13.403  66.049  1.00  0.00    -0.487 C  
BRANCH   8   9
HETATM    9  C   UNL     1     -11.514  14.704  66.557  1.00  0.00    -0.354 A  
HETATM   10  C   UNL     1     -10.842  15.576  65.691  1.00  0.00    -0.354 A  
HETATM   11  C   UNL     1     -10.321  16.783  66.164  1.00  0.00    -0.338 A  
HETATM   12  C   UNL     1     -10.465  17.121  67.510  1.00  0.00    -0.348 A  
HETATM   13  C   UNL     1     -11.125  16.258  68.385  1.00  0.00    -0.362 A  
HETATM   14  I   UNL     1      -9.702  18.920  68.215  1.00  0.00    -0.501 I  
HETATM   15  C   UNL     1     -11.650  15.056  67.908  1.00  0.00    -0.350 A  
ENDBRANCH   8   9
ENDBRANCH   6   8
ENDBRANCH   4   6
ENDBRANCH   2   4
TORSDOF 4
ENDMDL
MODEL       30
REMARK 921   NORMALIZED FREE ENERGY PREDICTED BY IDOCK:   -4.19 KCAL/MOL
REMARK 922        TOTAL FREE ENERGY PREDICTED BY IDOCK:   -5.93 KCAL/MOL
REMARK 923 INTER-LIGAND FREE ENERGY PREDICTED BY IDOCK:   -5.49 KCAL/MOL
REMARK 924 INTRA-LIGAND FREE ENERGY PREDICTED BY IDOCK:   -0.44 KCAL/MOL
REMARK 927      BINDING AFFINITY PREDICTED BY RF-SCORE:    0.00 PKD
ROOT
HETATM    1  C   UNL     1     -13.465  13.203  72.358  1.00  0.00    -0.643 C  
HETATM    2  C   UNL     1     -12.829  13.973  71.199  1.00  0.00    -0.357 C  
HETATM    3  C   UNL     1     -12.370  15.351  71.686  1.00  0.00    -0.444 C  
ENDROOT
BRANCH   2   4
HETATM    4  N   UNL     1     -11.664  13.287  70.625  1.00  0.00    -0.491 NA 
HETATM    5  H   UNL     1     -10.874  12.992  71.199  1.00  0.00     0.000 HD 
BRANCH   4   6
HETATM    6  C   UNL     1     -11.703  13.048  69.169  1.00  0.00    -0.326 C  
HETATM    7  C   UNL     1     -10.370  13.419  68.509  1.00  0.00    -0.240 C  
BRANCH   6   8
HETATM    8  C   UNL     1     -12.015  11.559  68.863  1.00  0.00    -0.364 C  
BRANCH   8   9
HETATM    9  C   UNL     1     -11.505  10.583  69.902  1.00  0.00    -0.384 A  
HETATM   10  C   UNL     1     -12.369  10.035  70.859  1.00  0.00    -0.438 A  
HETATM   11  C   UNL     1     -11.894   9.120  71.803  1.00  0.00    -0.453 A  
HETATM   12  C   UNL     1     -10.548   8.754  71.797  1.00  0.00    -0.347 A  
HETATM   13  C   UNL     1      -9.674   9.299  70.855  1.00  0.00    -0.346 A  
HETATM   14  I   UNL     1      -9.840   7.387  73.191  1.00  0.00    -0.394 I  
HETATM   15  C   UNL     1     -10.153  10.207  69.911  1.00  0.00    -0.268 A  
ENDBRANCH   8   9
ENDBRANCH   6   8
ENDBRANCH   4   6
ENDBRANCH   2   4
TORSDOF 4
ENDMDL
MODEL       31
REMARK 921   NORMALIZED FREE ENERGY PREDICTED BY IDOCK:   -4.17 KCAL/MOL
REMARK 922        TOTAL FREE ENERGY PREDICTED BY IDOCK:   -5.91 KCAL/MOL
REMARK 923 INTER-LIGAND FREE ENERGY PREDICTED BY IDOCK:   -5.43 KCAL/MOL
REMARK 924 INTRA-LIGAND FREE ENERGY PREDICTED BY IDOCK:   -0.49 KCAL/MOL
REMARK 927      BINDING AFFINITY PREDICTED BY RF-SCORE:    0.00 PKD
ROOT
HETATM    1  C   UNL     1     -12.578  12.586  70.711  1.00  0.00    -0.299 C  
HETATM    2  C   UNL     1     -12.040  11.230  70.247  1.00  0.00    -0.373 C  
HETATM    3  C   UNL     1     -12.690  10.110  71.064  1.00  0.00    -0.481 C  
ENDROOT
BRANCH   2   4
HETATM    4  N   UNL     1     -12.306  10.964  68.826  1.00  0.00    -0.772 NA 
HETATM    5  H   UNL     1     -13.199  10.588  68.505  1.00  0.00     0.000 HD 
BRANCH   4   6
HETATM    6  C   UNL     1     -11.207  11.272  67.891  1.00  0.00    -0.290 C  
HETATM    7  C   UNL     1     -10.558   9.991  67.354  1.00  0.00    -0.330 C  
BRANCH   6   8
HETATM    8  C   UNL     1     -11.723  12.112  66.693  1.00  0.00    -0.385 C  
BRANCH   8   9
HETATM    9  C   UNL     1     -11.291  13.563  66.709  1.00  0.00    -0.351 A  
HETATM   10  C   UNL     1     -10.636  14.130  65.607  1.00  0.00    -0.317 A  
HETATM   11  C   UNL     1     -10.256  15.475  65.622  1.00  0.00    -0.403 A  
HETATM   12  C   UNL     1     -10.526  16.259  66.744  1.00  0.00    -0.287 A  
HETATM   13  C   UNL     1     -11.170  15.705  67.851  1.00  0.00    -0.328 A  
HETATM   14  I   UNL     1      -9.974  18.261  66.766  1.00  0.00    -0.438 I  
HETATM   15  C   UNL     1     -11.553  14.364  67.831  1.00  0.00    -0.374 A  
ENDBRANCH   8   9
ENDBRANCH   6   8
ENDBRANCH   4   6
ENDBRANCH   2   4
TORSDOF 4
ENDMDL
MODEL       32
REMARK 921   NORMALIZED FREE ENERGY PREDICTED BY IDOCK:   -4.17 KCAL/MOL
REMARK 922        TOTAL FREE ENERGY PREDICTED BY IDOCK:   -5.91 KCAL/MOL
REMARK 923 INTER-LIGAND FREE ENERGY PREDICTED BY IDOCK:   -5.18 KCAL/MOL
REMARK 924 INTRA-LIGAND FREE ENERGY PREDICTED BY IDOCK:   -0.73 KCAL/MOL
REMARK 927      BINDING AFFINITY PREDICTED BY RF-SCORE:    0.00 PKD
ROOT
HETATM    1  C   UNL     1     -12.580  13.971  65.235  1.00  0.00    -0.495 C  
HETATM    2  C   UNL     1     -11.345  14.603  64.588  1.00  0.00    -0.369 C  
HETATM    3  C   UNL     1     -10.720  15.615  65.552  1.00  0.00    -0.403 C  
ENDROOT
BRANCH   2   4
HETATM    4  N   UNL     1     -10.313  13.617  64.238  1.00  0.00    -0.697 NA 
HETATM    5  H   UNL     1      -9.531  13.848  63.625  1.00  0.00     0.000 HD 
BRANCH   4   6
HETATM    6  C   UNL     1     -10.474  12.272  64.825  1.00  0.00    -0.296 C  
HETATM    7  C   UNL     1     -10.108  11.178  63.816  1.00  0.00    -0.416 C  
BRANCH   6   8
HETATM    8  C   UNL     1      -9.582  12.112  66.084  1.00  0.00    -0.250 C  
BRANCH   8   9
HETATM    9  C   UNL     1     -10.327  11.692  67.334  1.00  0.00    -0.231 A  
HETATM   10  C   UNL     1     -10.906  12.647  68.180  1.00  0.00    -0.250 A  
HETATM   11  C   UNL     1     -11.607  12.250  69.322  1.00  0.00    -0.383 A  
HETATM   12  C   UNL     1     -11.727  10.894  69.626  1.00  0.00    -0.331 A  
HETATM   13  C   UNL     1     -11.149   9.933  68.796  1.00  0.00    -0.179 A  
HETATM   14  I   UNL     1     -12.779  10.299  71.316  1.00  0.00    -0.591 I  
HETATM   15  C   UNL     1     -10.454  10.332  67.654  1.00  0.00    -0.285 A  
ENDBRANCH   8   9
ENDBRANCH   6   8
ENDBRANCH   4   6
ENDBRANCH   2   4
TORSDOF 4
ENDMDL
MODEL       33
REMARK 921   NORMALIZED FREE ENERGY PREDICTED BY IDOCK:   -4.16 KCAL/MOL
REMARK 922        TOTAL FREE ENERGY PREDICTED BY IDOCK:   -5.90 KCAL/MOL
REMARK 923 INTER-LIGAND FREE ENERGY PREDICTED BY IDOCK:   -5.38 KCAL/MOL
REMARK 924 INTRA-LIGAND FREE ENERGY PREDICTED BY IDOCK:   -0.52 KCAL/MOL
REMARK 927      BINDING AFFINITY PREDICTED BY RF-SCORE:    0.00 PKD
ROOT
HETATM    1  C   UNL     1     -13.119  11.013  71.715  1.00  0.00    -0.554 C  
HETATM    2  C   UNL     1     -12.789   9.524  71.850  1.00  0.00    -0.420 C  
HETATM    3  C   UNL     1     -14.076   8.732  72.100  1.00  0.00    -0.519 C  
ENDROOT
BRANCH   2   4
HETATM    4  N   UNL     1     -12.143   8.969  70.652  1.00  0.00    -0.477 NA 
HETATM    5  H   UNL     1     -12.556   8.200  70.124  1.00  0.00     0.000 HD 
BRANCH   4   6
HETATM    6  C   UNL     1     -10.862   9.588  70.259  1.00  0.00    -0.269 C  
HETATM    7  C   UNL     1      -9.703   9.054  71.109  1.00  0.00    -0.369 C  
BRANCH   6   8
HETATM    8  C   UNL     1     -10.555   9.314  68.764  1.00  0.00    -0.220 C  
BRANCH   8   9
HETATM    9  C   UNL     1     -10.849  10.475  67.837  1.00  0.00    -0.333 A  
HETATM   10  C   UNL     1     -10.417  10.458  66.504  1.00  0.00    -0.262 A  
HETATM   11  C   UNL     1     -10.708  11.525  65.651  1.00  0.00    -0.323 A  
HETATM   12  C   UNL     1     -11.430  12.619  66.130  1.00  0.00    -0.365 A  
HETATM   13  C   UNL     1     -11.860  12.652  67.457  1.00  0.00    -0.396 A  
HETATM   14  I   UNL     1     -11.875  14.202  64.861  1.00  0.00    -0.491 I  
HETATM   15  C   UNL     1     -11.572  11.582  68.305  1.00  0.00    -0.378 A  
ENDBRANCH   8   9
ENDBRANCH   6   8
ENDBRANCH   4   6
ENDBRANCH   2   4
TORSDOF 4
ENDMDL
MODEL       34
REMARK 921   NORMALIZED FREE ENERGY PREDICTED BY IDOCK:   -4.16 KCAL/MOL
REMARK 922        TOTAL FREE ENERGY PREDICTED BY IDOCK:   -5.89 KCAL/MOL
REMARK 923 INTER-LIGAND FREE ENERGY PREDICTED BY IDOCK:   -5.30 KCAL/MOL
REMARK 924 INTRA-LIGAND FREE ENERGY PREDICTED BY IDOCK:   -0.59 KCAL/MOL
REMARK 927      BINDING AFFINITY PREDICTED BY RF-SCORE:    0.00 PKD
ROOT
HETATM    1  C   UNL     1     -10.994   9.893  70.481  1.00  0.00    -0.391 C  
HETATM    2  C   UNL     1     -12.157  10.680  69.872  1.00  0.00    -0.299 C  
HETATM    3  C   UNL     1     -12.197  12.088  70.473  1.00  0.00    -0.414 C  
ENDROOT
BRANCH   2   4
HETATM    4  N   UNL     1     -12.056  10.816  68.412  1.00  0.00    -0.827 NA 
HETATM    5  H   UNL     1     -12.579  10.213  67.776  1.00  0.00     0.000 HD 
BRANCH   4   6
HETATM    6  C   UNL     1     -11.154  11.876  67.919  1.00  0.00    -0.242 C  
HETATM    7  C   UNL     1      -9.912  11.280  67.246  1.00  0.00    -0.208 C  
BRANCH   6   8
HETATM    8  C   UNL     1     -11.885  12.791  66.902  1.00  0.00    -0.440 C  
BRANCH   8   9
HETATM    9  C   UNL     1     -11.448  14.240  66.931  1.00  0.00    -0.377 A  
HETATM   10  C   UNL     1     -11.623  15.021  68.082  1.00  0.00    -0.360 A  
HETATM   11  C   UNL     1     -11.199  16.352  68.107  1.00  0.00    -0.273 A  
HETATM   12  C   UNL     1     -10.603  16.912  66.976  1.00  0.00    -0.230 A  
HETATM   13  C   UNL     1     -10.430  16.148  65.821  1.00  0.00    -0.384 A  
HETATM   14  I   UNL     1      -9.962  18.887  67.013  1.00  0.00    -0.520 I  
HETATM   15  C   UNL     1     -10.849  14.818  65.801  1.00  0.00    -0.334 A  
ENDBRANCH   8   9
ENDBRANCH   6   8
ENDBRANCH   4   6
ENDBRANCH   2   4
TORSDOF 4
ENDMDL
MODEL       35
REMARK 921   NORMALIZED FREE ENERGY PREDICTED BY IDOCK:   -4.15 KCAL/MOL
REMARK 922        TOTAL FREE ENERGY PREDICTED BY IDOCK:   -5.88 KCAL/MOL
REMARK 923 INTER-LIGAND FREE ENERGY PREDICTED BY IDOCK:   -5.26 KCAL/MOL
REMARK 924 INTRA-LIGAND FREE ENERGY PREDICTED BY IDOCK:   -0.62 KCAL/MOL
REMARK 927      BINDING AFFINITY PREDICTED BY RF-SCORE:    0.00 PKD
ROOT
HETATM    1  C   UNL     1     -11.415  12.082  67.143  1.00  0.00    -0.401 C  
HETATM    2  C   UNL     1     -11.345  10.821  68.007  1.00  0.00    -0.307 C  
HETATM    3  C   UNL     1      -9.990  10.756  68.717  1.00  0.00    -0.201 C  
ENDROOT
BRANCH   2   4
HETATM    4  N   UNL     1     -12.395  10.770  69.035  1.00  0.00    -0.768 NA 
HETATM    5  H   UNL     1     -13.340  10.447  68.826  1.00  0.00     0.000 HD 
BRANCH   4   6
HETATM    6  C   UNL     1     -12.003  11.215  70.387  1.00  0.00    -0.378 C  
HETATM    7  C   UNL     1     -12.403  12.674  70.630  1.00  0.00    -0.375 C  
BRANCH   6   8
HETATM    8  C   UNL     1     -12.666  10.326  71.472  1.00  0.00    -0.557 C  
BRANCH   8   9
HETATM    9  C   UNL     1     -12.030   8.963  71.644  1.00  0.00    -0.415 A  
HETATM   10  C   UNL     1     -12.801   7.796  71.575  1.00  0.00    -0.357 A  
HETATM   11  C   UNL     1     -12.204   6.540  71.717  1.00  0.00    -0.374 A  
HETATM   12  C   UNL     1     -10.829   6.448  71.935  1.00  0.00    -0.240 A  
HETATM   13  C   UNL     1     -10.050   7.603  72.014  1.00  0.00    -0.233 A  
HETATM   14  I   UNL     1      -9.934   4.584  72.135  1.00  0.00    -0.235 I  
HETATM   15  C   UNL     1     -10.649   8.854  71.866  1.00  0.00    -0.419 A  
ENDBRANCH   8   9
ENDBRANCH   6   8
ENDBRANCH   4   6
ENDBRANCH   2   4
TORSDOF 4
ENDMDL
MODEL       36
REMARK 921   NORMALIZED FREE ENERGY PREDICTED BY IDOCK:   -4.13 KCAL/MOL
REMARK 922        TOTAL FREE ENERGY PREDICTED BY IDOCK:   -5.86 KCAL/MOL
REMARK 923 INTER-LIGAND FREE ENERGY PREDICTED BY IDOCK:   -5.44 KCAL/MOL
REMARK 924 INTRA-LIGAND FREE ENERGY PREDICTED BY IDOCK:   -0.42 KCAL/MOL
REMARK 927      BINDING AFFINITY PREDICTED BY RF-SCORE:    0.00 PKD
ROOT
HETATM    1  C   UNL     1     -10.305  11.194  64.548  1.00  0.00    -0.400 C  
HETATM    2  C   UNL     1     -11.310  12.246  65.022  1.00  0.00    -0.328 C  
HETATM    3  C   UNL     1     -12.502  12.290  64.063  1.00  0.00    -0.556 C  
ENDROOT
BRANCH   2   4
HETATM    4  N   UNL     1     -11.827  11.978  66.372  1.00  0.00    -0.593 NA 
HETATM    5  H   UNL     1     -12.631  11.370  66.531  1.00  0.00     0.000 HD 
BRANCH   4   6
HETATM    6  C   UNL     1     -11.116  12.640  67.483  1.00  0.00    -0.272 C  
HETATM    7  C   UNL     1     -10.801  14.102  67.148  1.00  0.00    -0.291 C  
BRANCH   6   8
HETATM    8  C   UNL     1     -11.962  12.594  68.782  1.00  0.00    -0.279 C  
BRANCH   8   9
HETATM    9  C   UNL     1     -11.656  11.423  69.692  1.00  0.00    -0.399 A  
HETATM   10  C   UNL     1     -10.535  10.612  69.468  1.00  0.00    -0.236 A  
HETATM   11  C   UNL     1     -10.249   9.544  70.323  1.00  0.00    -0.312 A  
HETATM   12  C   UNL     1     -11.089   9.278  71.405  1.00  0.00    -0.367 A  
HETATM   13  C   UNL     1     -12.213  10.073  71.635  1.00  0.00    -0.456 A  
HETATM   14  I   UNL     1     -10.662   7.699  72.685  1.00  0.00    -0.468 I  
HETATM   15  C   UNL     1     -12.492  11.141  70.783  1.00  0.00    -0.479 A  
ENDBRANCH   8   9
ENDBRANCH   6   8
ENDBRANCH   4   6
ENDBRANCH   2   4
TORSDOF 4
ENDMDL
MODEL       37
REMARK 921   NORMALIZED FREE ENERGY PREDICTED BY IDOCK:   -4.12 KCAL/MOL
REMARK 922        TOTAL FREE ENERGY PREDICTED BY IDOCK:   -5.85 KCAL/MOL
REMARK 923 INTER-LIGAND FREE ENERGY PREDICTED BY IDOCK:   -5.28 KCAL/MOL
REMARK 924 INTRA-LIGAND FREE ENERGY PREDICTED BY IDOCK:   -0.57 KCAL/MOL
REMARK 927      BINDING AFFINITY PREDICTED BY RF-SCORE:    0.00 PKD
ROOT
HETATM    1  C   UNL     1     -10.982  15.841  64.706  1.00  0.00    -0.410 C  
HETATM    2  C   UNL     1     -11.167  14.756  65.770  1.00  0.00    -0.337 C  
HETATM    3  C   UNL     1     -11.147  15.392  67.163  1.00  0.00    -0.291 C  
ENDROOT
BRANCH   2   4
HETATM    4  N   UNL     1     -12.432  14.023  65.627  1.00  0.00    -0.489 NA 
HETATM    5  H   UNL     1     -13.337  14.483  65.729  1.00  0.00     0.000 HD 
BRANCH   4   6
HETATM    6  C   UNL     1     -12.317  12.582  65.328  1.00  0.00    -0.403 C  
HETATM    7  C   UNL     1     -12.396  12.320  63.820  1.00  0.00    -0.637 C  
BRANCH   6   8
HETATM    8  C   UNL     1     -10.978  12.014  65.866  1.00  0.00    -0.342 C  
BRANCH   8   9
HETATM    9  C   UNL     1     -11.089  11.286  67.190  1.00  0.00    -0.364 A  
HETATM   10  C   UNL     1     -10.654   9.961  67.320  1.00  0.00    -0.316 A  
HETATM   11  C   UNL     1     -10.743   9.303  68.550  1.00  0.00    -0.185 A  
HETATM   12  C   UNL     1     -11.273   9.968  69.655  1.00  0.00    -0.239 A  
HETATM   13  C   UNL     1     -11.717  11.285  69.537  1.00  0.00    -0.415 A  
HETATM   14  I   UNL     1     -11.397   8.997  71.488  1.00  0.00    -0.467 I  
HETATM   15  C   UNL     1     -11.622  11.941  68.310  1.00  0.00    -0.390 A  
ENDBRANCH   8   9
ENDBRANCH   6   8
ENDBRANCH   4   6
ENDBRANCH   2   4
TORSDOF 4
ENDMDL
MODEL       38
REMARK 921   NORMALIZED FREE ENERGY PREDICTED BY IDOCK:   -4.12 KCAL/MOL
REMARK 922        TOTAL FREE ENERGY PREDICTED BY IDOCK:   -5.84 KCAL/MOL
REMARK 923 INTER-LIGAND FREE ENERGY PREDICTED BY IDOCK:   -5.55 KCAL/MOL
REMARK 924 INTRA-LIGAND FREE ENERGY PREDICTED BY IDOCK:   -0.30 KCAL/MOL
REMARK 927      BINDING AFFINITY PREDICTED BY RF-SCORE:    0.00 PKD
ROOT
HETATM    1  C   UNL     1     -13.783  14.129  72.183  1.00  0.00    -0.587 C  
HETATM    2  C   UNL     1     -12.766  14.871  71.312  1.00  0.00    -0.340 C  
HETATM    3  C   UNL     1     -12.035  15.921  72.154  1.00  0.00    -0.612 C  
ENDROOT
BRANCH   2   4
HETATM    4  N   UNL     1     -11.755  13.981  70.725  1.00  0.00    -0.514 NA 
HETATM    5  H   UNL     1     -11.146  13.401  71.302  1.00  0.00     0.000 HD 
BRANCH   4   6
HETATM    6  C   UNL     1     -11.673  13.975  69.251  1.00  0.00    -0.326 C  
HETATM    7  C   UNL     1     -10.275  14.381  68.771  1.00  0.00    -0.239 C  
BRANCH   6   8
HETATM    8  C   UNL     1     -12.008  12.569  68.687  1.00  0.00    -0.268 C  
BRANCH   8   9
HETATM    9  C   UNL     1     -11.605  11.418  69.585  1.00  0.00    -0.399 A  
HETATM   10  C   UNL     1     -10.378  10.766  69.410  1.00  0.00    -0.207 A  
HETATM   11  C   UNL     1     -10.006   9.717  70.255  1.00  0.00    -0.326 A  
HETATM   12  C   UNL     1     -10.865   9.311  71.277  1.00  0.00    -0.347 A  
HETATM   13  C   UNL     1     -12.093   9.947  71.457  1.00  0.00    -0.496 A  
HETATM   14  I   UNL     1     -10.311   7.760  72.543  1.00  0.00    -0.421 I  
HETATM   15  C   UNL     1     -12.459  10.998  70.616  1.00  0.00    -0.465 A  
ENDBRANCH   8   9
ENDBRANCH   6   8
ENDBRANCH   4   6
ENDBRANCH   2   4
TORSDOF 4
ENDMDL
MODEL       39
REMARK 921   NORMALIZED FREE ENERGY PREDICTED BY IDOCK:   -4.08 KCAL/MOL
REMARK 922        TOTAL FREE ENERGY PREDICTED BY IDOCK:   -5.80 KCAL/MOL
REMARK 923 INTER-LIGAND FREE ENERGY PREDICTED BY IDOCK:   -5.04 KCAL/MOL
REMARK 924 INTRA-LIGAND FREE ENERGY PREDICTED BY IDOCK:   -0.76 KCAL/MOL
REMARK 927      BINDING AFFINITY PREDICTED BY RF-SCORE:    0.00 PKD
ROOT
HETATM    1  C   UNL     1      -8.289  12.684  68.029  1.00  0.00    -0.175 C  
HETATM    2  C   UNL     1      -8.934  12.223  66.720  1.00  0.00    -0.209 C  
HETATM    3  C   UNL     1     -10.057  11.226  67.022  1.00  0.00    -0.238 C  
ENDROOT
BRANCH   2   4
HETATM    4  N   UNL     1      -9.511  13.329  65.943  1.00  0.00    -0.489 NA 
HETATM    5  H   UNL     1      -9.755  13.227  64.958  1.00  0.00     0.000 HD 
BRANCH   4   6
HETATM    6  C   UNL     1      -9.716  14.596  66.671  1.00  0.00    -0.270 C  
HETATM    7  C   UNL     1      -9.231  15.795  65.848  1.00  0.00    -0.337 C  
BRANCH   6   8
HETATM    8  C   UNL     1     -11.215  14.798  67.014  1.00  0.00    -0.347 C  
BRANCH   8   9
HETATM    9  C   UNL     1     -11.514  14.907  68.495  1.00  0.00    -0.336 A  
HETATM   10  C   UNL     1     -11.210  16.076  69.205  1.00  0.00    -0.342 A  
HETATM   11  C   UNL     1     -11.505  16.175  70.567  1.00  0.00    -0.363 A  
HETATM   12  C   UNL     1     -12.102  15.101  71.227  1.00  0.00    -0.342 A  
HETATM   13  C   UNL     1     -12.403  13.928  70.534  1.00  0.00    -0.439 A  
HETATM   14  I   UNL     1     -12.554  15.249  73.250  1.00  0.00    -0.778 I  
HETATM   15  C   UNL     1     -12.112  13.834  69.173  1.00  0.00    -0.374 A  
ENDBRANCH   8   9
ENDBRANCH   6   8
ENDBRANCH   4   6
ENDBRANCH   2   4
TORSDOF 4
ENDMDL
MODEL       40
REMARK 921   NORMALIZED FREE ENERGY PREDICTED BY IDOCK:   -4.03 KCAL/MOL
REMARK 922        TOTAL FREE ENERGY PREDICTED BY IDOCK:   -5.74 KCAL/MOL
REMARK 923 INTER-LIGAND FREE ENERGY PREDICTED BY IDOCK:   -5.32 KCAL/MOL
REMARK 924 INTRA-LIGAND FREE ENERGY PREDICTED BY IDOCK:   -0.42 KCAL/MOL
REMARK 927      BINDING AFFINITY PREDICTED BY RF-SCORE:    0.00 PKD
ROOT
HETATM    1  C   UNL     1     -10.579  11.246  65.174  1.00  0.00    -0.343 C  
HETATM    2  C   UNL     1     -11.445  12.382  65.723  1.00  0.00    -0.370 C  
HETATM    3  C   UNL     1     -12.596  12.668  64.754  1.00  0.00    -0.530 C  
ENDROOT
BRANCH   2   4
HETATM    4  N   UNL     1     -12.028  12.077  67.037  1.00  0.00    -0.606 NA 
HETATM    5  H   UNL     1     -12.981  11.725  67.136  1.00  0.00     0.000 HD 
BRANCH   4   6
HETATM    6  C   UNL     1     -11.155  12.308  68.204  1.00  0.00    -0.240 C  
HETATM    7  C   UNL     1     -10.522  13.703  68.157  1.00  0.00    -0.250 C  
BRANCH   6   8
HETATM    8  C   UNL     1     -11.954  12.165  69.526  1.00  0.00    -0.338 C  
BRANCH   8   9
HETATM    9  C   UNL     1     -11.658  10.901  70.307  1.00  0.00    -0.426 A  
HETATM   10  C   UNL     1     -12.537  10.448  71.300  1.00  0.00    -0.525 A  
HETATM   11  C   UNL     1     -12.266   9.271  72.003  1.00  0.00    -0.418 A  
HETATM   12  C   UNL     1     -11.109   8.545  71.720  1.00  0.00    -0.307 A  
HETATM   13  C   UNL     1     -10.221   8.990  70.740  1.00  0.00    -0.305 A  
HETATM   14  I   UNL     1     -10.708   6.789  72.756  1.00  0.00    -0.333 I  
HETATM   15  C   UNL     1     -10.498  10.162  70.036  1.00  0.00    -0.325 A  
ENDBRANCH   8   9
ENDBRANCH   6   8
ENDBRANCH   4   6
ENDBRANCH   2   4
TORSDOF 4
ENDMDL
MODEL       41
REMARK 921   NORMALIZED FREE ENERGY PREDICTED BY IDOCK:   -4.03 KCAL/MOL
REMARK 922        TOTAL FREE ENERGY PREDICTED BY IDOCK:   -5.73 KCAL/MOL
REMARK 923 INTER-LIGAND FREE ENERGY PREDICTED BY IDOCK:   -5.10 KCAL/MOL
REMARK 924 INTRA-LIGAND FREE ENERGY PREDICTED BY IDOCK:   -0.63 KCAL/MOL
REMARK 927      BINDING AFFINITY PREDICTED BY RF-SCORE:    0.00 PKD
ROOT
HETATM    1  C   UNL     1     -13.694  13.427  72.362  1.00  0.00    -0.698 C  
HETATM    2  C   UNL     1     -12.617  13.520  71.278  1.00  0.00    -0.341 C  
HETATM    3  C   UNL     1     -12.301  12.121  70.745  1.00  0.00    -0.391 C  
ENDROOT
BRANCH   2   4
HETATM    4  N   UNL     1     -13.020  14.357  70.139  1.00  0.00    -0.476 NA 
HETATM    5  H   UNL     1     -13.789  14.093  69.522  1.00  0.00     0.000 HD 
BRANCH   4   6
HETATM    6  C   UNL     1     -12.249  15.600  69.941  1.00  0.00    -0.294 C  
HETATM    7  C   UNL     1     -11.106  15.712  70.955  1.00  0.00    -0.365 C  
BRANCH   6   8
HETATM    8  C   UNL     1     -11.655  15.656  68.508  1.00  0.00    -0.378 C  
BRANCH   8   9
HETATM    9  C   UNL     1     -11.195  14.320  67.965  1.00  0.00    -0.300 A  
HETATM   10  C   UNL     1     -11.994  13.595  67.070  1.00  0.00    -0.448 A  
HETATM   11  C   UNL     1     -11.554  12.371  66.559  1.00  0.00    -0.447 A  
HETATM   12  C   UNL     1     -10.313  11.863  66.945  1.00  0.00    -0.210 A  
HETATM   13  C   UNL     1      -9.512  12.571  67.842  1.00  0.00    -0.196 A  
HETATM   14  I   UNL     1      -9.650  10.050  66.179  1.00  0.00    -0.327 I  
HETATM   15  C   UNL     1      -9.951  13.795  68.346  1.00  0.00    -0.229 A  
ENDBRANCH   8   9
ENDBRANCH   6   8
ENDBRANCH   4   6
ENDBRANCH   2   4
TORSDOF 4
ENDMDL
MODEL       42
REMARK 921   NORMALIZED FREE ENERGY PREDICTED BY IDOCK:   -4.02 KCAL/MOL
REMARK 922        TOTAL FREE ENERGY PREDICTED BY IDOCK:   -5.73 KCAL/MOL
REMARK 923 INTER-LIGAND FREE ENERGY PREDICTED BY IDOCK:   -5.07 KCAL/MOL
REMARK 924 INTRA-LIGAND FREE ENERGY PREDICTED BY IDOCK:   -0.66 KCAL/MOL
REMARK 927      BINDING AFFINITY PREDICTED BY RF-SCORE:    0.00 PKD
ROOT
HETATM    1  C   UNL     1     -11.674  14.508  66.226  1.00  0.00    -0.364 C  
HETATM    2  C   UNL     1     -10.364  14.594  65.439  1.00  0.00    -0.383 C  
HETATM    3  C   UNL     1      -9.185  14.694  66.411  1.00  0.00    -0.280 C  
ENDROOT
BRANCH   2   4
HETATM    4  N   UNL     1     -10.137  13.429  64.573  1.00  0.00    -0.634 NA 
HETATM    5  H   UNL     1      -9.390  13.410  63.879  1.00  0.00     0.000 HD 
BRANCH   4   6
HETATM    6  C   UNL     1     -11.053  12.287  64.767  1.00  0.00    -0.311 C  
HETATM    7  C   UNL     1     -11.836  11.979  63.485  1.00  0.00    -0.587 C  
BRANCH   6   8
HETATM    8  C   UNL     1     -10.268  11.018  65.192  1.00  0.00    -0.352 C  
BRANCH   8   9
HETATM    9  C   UNL     1     -10.496  10.588  66.626  1.00  0.00    -0.290 A  
HETATM   10  C   UNL     1     -11.381  11.290  67.455  1.00  0.00    -0.360 A  
HETATM   11  C   UNL     1     -11.599  10.876  68.772  1.00  0.00    -0.378 A  
HETATM   12  C   UNL     1     -10.928   9.758  69.267  1.00  0.00    -0.193 A  
HETATM   13  C   UNL     1     -10.038   9.054  68.455  1.00  0.00    -0.211 A  
HETATM   14  I   UNL     1     -11.259   9.132  71.220  1.00  0.00    -0.485 I  
HETATM   15  C   UNL     1      -9.826   9.467  67.139  1.00  0.00    -0.239 A  
ENDBRANCH   8   9
ENDBRANCH   6   8
ENDBRANCH   4   6
ENDBRANCH   2   4
TORSDOF 4
ENDMDL
MODEL       43
REMARK 921   NORMALIZED FREE ENERGY PREDICTED BY IDOCK:   -4.02 KCAL/MOL
REMARK 922        TOTAL FREE ENERGY PREDICTED BY IDOCK:   -5.72 KCAL/MOL
REMARK 923 INTER-LIGAND FREE ENERGY PREDICTED BY IDOCK:   -5.22 KCAL/MOL
REMARK 924 INTRA-LIGAND FREE ENERGY PREDICTED BY IDOCK:   -0.51 KCAL/MOL
REMARK 927      BINDING AFFINITY PREDICTED BY RF-SCORE:    0.00 PKD
ROOT
HETATM    1  C   UNL     1     -11.318   6.262  70.540  1.00  0.00    -0.428 C  
HETATM    2  C   UNL     1     -11.519   6.200  72.056  1.00  0.00    -0.313 C  
HETATM    3  C   UNL     1     -10.168   5.992  72.747  1.00  0.00    -0.209 C  
ENDROOT
BRANCH   2   4
HETATM    4  N   UNL     1     -12.122   7.422  72.606  1.00  0.00    -0.541 NA 
HETATM    5  H   UNL     1     -12.246   7.559  73.609  1.00  0.00     0.000 HD 
BRANCH   4   6
HETATM    6  C   UNL     1     -12.538   8.440  71.621  1.00  0.00    -0.332 C  
HETATM    7  C   UNL     1     -13.882   9.070  72.006  1.00  0.00    -0.501 C  
BRANCH   6   8
HETATM    8  C   UNL     1     -11.473   9.563  71.508  1.00  0.00    -0.466 C  
BRANCH   8   9
HETATM    9  C   UNL     1     -11.483  10.309  70.190  1.00  0.00    -0.383 A  
HETATM   10  C   UNL     1     -11.031   9.696  69.014  1.00  0.00    -0.161 A  
HETATM   11  C   UNL     1     -11.060  10.386  67.799  1.00  0.00    -0.365 A  
HETATM   12  C   UNL     1     -11.538  11.696  67.756  1.00  0.00    -0.289 A  
HETATM   13  C   UNL     1     -11.983  12.321  68.921  1.00  0.00    -0.300 A  
HETATM   14  I   UNL     1     -11.594  12.720  65.949  1.00  0.00    -0.489 I  
HETATM   15  C   UNL     1     -11.958  11.628  70.132  1.00  0.00    -0.441 A  
ENDBRANCH   8   9
ENDBRANCH   6   8
ENDBRANCH   4   6
ENDBRANCH   2   4
TORSDOF 4
ENDMDL
MODEL       44
REMARK 921   NORMALIZED FREE ENERGY PREDICTED BY IDOCK:   -4.02 KCAL/MOL
REMARK 922        TOTAL FREE ENERGY PREDICTED BY IDOCK:   -5.72 KCAL/MOL
REMARK 923 INTER-LIGAND FREE ENERGY PREDICTED BY IDOCK:   -5.04 KCAL/MOL
REMARK 924 INTRA-LIGAND FREE ENERGY PREDICTED BY IDOCK:   -0.68 KCAL/MOL
REMARK 927      BINDING AFFINITY PREDICTED BY RF-SCORE:    0.00 PKD
ROOT
HETATM    1  C   UNL     1     -11.130  16.195  69.808  1.00  0.00    -0.350 C  
HETATM    2  C   UNL     1     -11.244  14.826  69.133  1.00  0.00    -0.271 C  
HETATM    3  C   UNL     1     -11.996  13.859  70.051  1.00  0.00    -0.404 C  
ENDROOT
BRANCH   2   4
HETATM    4  N   UNL     1     -11.959  14.877  67.849  1.00  0.00    -0.532 NA 
HETATM    5  H   UNL     1     -12.861  15.343  67.752  1.00  0.00     0.000 HD 
BRANCH   4   6
HETATM    6  C   UNL     1     -11.295  14.214  66.710  1.00  0.00    -0.343 C  
HETATM    7  C   UNL     1     -12.153  13.071  66.155  1.00  0.00    -0.473 C  
BRANCH   6   8
HETATM    8  C   UNL     1     -11.015  15.229  65.570  1.00  0.00    -0.365 C  
BRANCH   8   9
HETATM    9  C   UNL     1     -10.129  16.392  65.966  1.00  0.00    -0.373 A  
HETATM   10  C   UNL     1     -10.633  17.698  66.004  1.00  0.00    -0.220 A  
HETATM   11  C   UNL     1      -9.813  18.763  66.388  1.00  0.00    -0.403 A  
HETATM   12  C   UNL     1      -8.482  18.526  66.731  1.00  0.00    -0.282 A  
HETATM   13  C   UNL     1      -7.966  17.230  66.689  1.00  0.00    -0.296 A  
HETATM   14  I   UNL     1      -7.264  20.104  67.313  1.00  0.00    -0.362 I  
HETATM   15  C   UNL     1      -8.788  16.168  66.311  1.00  0.00    -0.371 A  
ENDBRANCH   8   9
ENDBRANCH   6   8
ENDBRANCH   4   6
ENDBRANCH   2   4
TORSDOF 4
ENDMDL
MODEL       45
REMARK 921   NORMALIZED FREE ENERGY PREDICTED BY IDOCK:   -3.94 KCAL/MOL
REMARK 922        TOTAL FREE ENERGY PREDICTED BY IDOCK:   -5.62 KCAL/MOL
REMARK 923 INTER-LIGAND FREE ENERGY PREDICTED BY IDOCK:   -4.90 KCAL/MOL
REMARK 924 INTRA-LIGAND FREE ENERGY PREDICTED BY IDOCK:   -0.72 KCAL/MOL
REMARK 927      BINDING AFFINITY PREDICTED BY RF-SCORE:    0.00 PKD
ROOT
HETATM    1  C   UNL     1     -11.137  10.393  67.772  1.00  0.00    -0.365 C  
HETATM    2  C   UNL     1     -10.095  10.593  68.875  1.00  0.00    -0.202 C  
HETATM    3  C   UNL     1      -9.061  11.630  68.426  1.00  0.00    -0.180 C  
ENDROOT
BRANCH   2   4
HETATM    4  N   UNL     1     -10.680  11.059  70.140  1.00  0.00    -0.409 NA 
HETATM    5  H   UNL     1     -10.118  11.177  70.984  1.00  0.00     0.000 HD 
BRANCH   4   6
HETATM    6  C   UNL     1     -12.127  11.349  70.119  1.00  0.00    -0.357 C  
HETATM    7  C   UNL     1     -12.924  10.249  70.830  1.00  0.00    -0.456 C  
BRANCH   6   8
HETATM    8  C   UNL     1     -12.427  12.708  70.804  1.00  0.00    -0.357 C  
BRANCH   8   9
HETATM    9  C   UNL     1     -11.926  13.919  70.046  1.00  0.00    -0.404 A  
HETATM   10  C   UNL     1     -11.433  15.040  70.727  1.00  0.00    -0.335 A  
HETATM   11  C   UNL     1     -10.956  16.147  70.019  1.00  0.00    -0.364 A  
HETATM   12  C   UNL     1     -10.975  16.139  68.624  1.00  0.00    -0.336 A  
HETATM   13  C   UNL     1     -11.470  15.032  67.933  1.00  0.00    -0.354 A  
HETATM   14  I   UNL     1     -10.255  17.777  67.568  1.00  0.00    -0.381 I  
HETATM   15  C   UNL     1     -11.941  13.927  68.643  1.00  0.00    -0.401 A  
ENDBRANCH   8   9
ENDBRANCH   6   8
ENDBRANCH   4   6
ENDBRANCH   2   4
TORSDOF 4
ENDMDL
MODEL       46
REMARK 921   NORMALIZED FREE ENERGY PREDICTED BY IDOCK:   -3.92 KCAL/MOL
REMARK 922        TOTAL FREE ENERGY PREDICTED BY IDOCK:   -5.60 KCAL/MOL
REMARK 923 INTER-LIGAND FREE ENERGY PREDICTED BY IDOCK:   -5.18 KCAL/MOL
REMARK 924 INTRA-LIGAND FREE ENERGY PREDICTED BY IDOCK:   -0.42 KCAL/MOL
REMARK 927      BINDING AFFINITY PREDICTED BY RF-SCORE:    0.00 PKD
ROOT
HETATM    1  C   UNL     1      -9.833   9.810  66.632  1.00  0.00    -0.275 C  
HETATM    2  C   UNL     1     -10.794  10.405  67.663  1.00  0.00    -0.306 C  
HETATM    3  C   UNL     1     -10.008  10.869  68.893  1.00  0.00    -0.208 C  
ENDROOT
BRANCH   2   4
HETATM    4  N   UNL     1     -11.547  11.558  67.148  1.00  0.00    -0.557 NA 
HETATM    5  H   UNL     1     -12.483  11.458  66.754  1.00  0.00     0.000 HD 
BRANCH   4   6
HETATM    6  C   UNL     1     -10.871  12.867  67.237  1.00  0.00    -0.255 C  
HETATM    7  C   UNL     1     -10.136  13.202  65.934  1.00  0.00    -0.292 C  
BRANCH   6   8
HETATM    8  C   UNL     1     -11.893  13.994  67.539  1.00  0.00    -0.442 C  
BRANCH   8   9
HETATM    9  C   UNL     1     -12.059  14.315  69.010  1.00  0.00    -0.320 A  
HETATM   10  C   UNL     1     -12.406  13.316  69.929  1.00  0.00    -0.228 A  
HETATM   11  C   UNL     1     -12.540  13.617  71.287  1.00  0.00    -0.435 A  
HETATM   12  C   UNL     1     -12.331  14.922  71.732  1.00  0.00    -0.343 A  
HETATM   13  C   UNL     1     -11.993  15.929  70.827  1.00  0.00    -0.413 A  
HETATM   14  I   UNL     1     -12.517  15.371  73.752  1.00  0.00    -0.719 I  
HETATM   15  C   UNL     1     -11.855  15.624  69.472  1.00  0.00    -0.387 A  
ENDBRANCH   8   9
ENDBRANCH   6   8
ENDBRANCH   4   6
ENDBRANCH   2   4
TORSDOF 4
ENDMDL
MODEL       47
REMARK 921   NORMALIZED FREE ENERGY PREDICTED BY IDOCK:   -3.92 KCAL/MOL
REMARK 922        TOTAL FREE ENERGY PREDICTED BY IDOCK:   -5.60 KCAL/MOL
REMARK 923 INTER-LIGAND FREE ENERGY PREDICTED BY IDOCK:   -4.64 KCAL/MOL
REMARK 924 INTRA-LIGAND FREE ENERGY PREDICTED BY IDOCK:   -0.96 KCAL/MOL
REMARK 927      BINDING AFFINITY PREDICTED BY RF-SCORE:    0.00 PKD
ROOT
HETATM    1  C   UNL     1      -9.458  15.566  67.711  1.00  0.00    -0.204 C  
HETATM    2  C   UNL     1      -8.713  14.781  66.629  1.00  0.00    -0.194 C  
HETATM    3  C   UNL     1      -8.176  13.474  67.218  1.00  0.00    -0.164 C  
ENDROOT
BRANCH   2   4
HETATM    4  N   UNL     1      -9.563  14.442  65.479  1.00  0.00    -0.545 NA 
HETATM    5  H   UNL     1      -9.196  13.956  64.661  1.00  0.00     0.000 HD 
BRANCH   4   6
HETATM    6  C   UNL     1     -10.980  14.844  65.577  1.00  0.00    -0.350 C  
HETATM    7  C   UNL     1     -11.373  15.779  64.427  1.00  0.00    -0.274 C  
BRANCH   6   8
HETATM    8  C   UNL     1     -11.908  13.602  65.552  1.00  0.00    -0.382 C  
BRANCH   8   9
HETATM    9  C   UNL     1     -11.678  12.621  66.683  1.00  0.00    -0.464 A  
HETATM   10  C   UNL     1     -11.129  11.356  66.436  1.00  0.00    -0.301 A  
HETATM   11  C   UNL     1     -10.902  10.463  67.487  1.00  0.00    -0.358 A  
HETATM   12  C   UNL     1     -11.230  10.832  68.792  1.00  0.00    -0.272 A  
HETATM   13  C   UNL     1     -11.785  12.085  69.051  1.00  0.00    -0.382 A  
HETATM   14  I   UNL     1     -10.884   9.513  70.359  1.00  0.00    -0.411 I  
HETATM   15  C   UNL     1     -12.004  12.976  68.000  1.00  0.00    -0.335 A  
ENDBRANCH   8   9
ENDBRANCH   6   8
ENDBRANCH   4   6
ENDBRANCH   2   4
TORSDOF 4
ENDMDL
MODEL       48
REMARK 921   NORMALIZED FREE ENERGY PREDICTED BY IDOCK:   -3.92 KCAL/MOL
REMARK 922        TOTAL FREE ENERGY PREDICTED BY IDOCK:   -5.60 KCAL/MOL
REMARK 923 INTER-LIGAND FREE ENERGY PREDICTED BY IDOCK:   -5.18 KCAL/MOL
REMARK 924 INTRA-LIGAND FREE ENERGY PREDICTED BY IDOCK:   -0.42 KCAL/MOL
REMARK 927      BINDING AFFINITY PREDICTED BY RF-SCORE:    0.00 PKD
ROOT
HETATM    1  C   UNL     1     -10.977   6.326  69.544  1.00  0.00    -0.445 C  
HETATM    2  C   UNL     1     -10.399   6.940  68.266  1.00  0.00    -0.193 C  
HETATM    3  C   UNL     1     -10.596   5.973  67.095  1.00  0.00    -0.374 C  
ENDROOT
BRANCH   2   4
HETATM    4  N   UNL     1     -11.031   8.217  67.907  1.00  0.00    -0.476 NA 
HETATM    5  H   UNL     1     -11.624   8.313  67.082  1.00  0.00     0.000 HD 
BRANCH   4   6
HETATM    6  C   UNL     1     -10.758   9.353  68.809  1.00  0.00    -0.171 C  
HETATM    7  C   UNL     1      -9.255   9.509  69.066  1.00  0.00    -0.155 C  
BRANCH   6   8
HETATM    8  C   UNL     1     -11.304  10.676  68.209  1.00  0.00    -0.357 C  
BRANCH   8   9
HETATM    9  C   UNL     1     -11.796  11.676  69.233  1.00  0.00    -0.396 A  
HETATM   10  C   UNL     1     -12.320  11.249  70.460  1.00  0.00    -0.446 A  
HETATM   11  C   UNL     1     -12.755  12.180  71.408  1.00  0.00    -0.368 A  
HETATM   12  C   UNL     1     -12.673  13.544  71.129  1.00  0.00    -0.344 A  
HETATM   13  C   UNL     1     -12.160  13.983  69.908  1.00  0.00    -0.406 A  
HETATM   14  I   UNL     1     -13.307  14.930  72.540  1.00  0.00    -0.671 I  
HETATM   15  C   UNL     1     -11.721  13.052  68.967  1.00  0.00    -0.376 A  
ENDBRANCH   8   9
ENDBRANCH   6   8
ENDBRANCH   4   6
ENDBRANCH   2   4
TORSDOF 4
ENDMDL
MODEL       49
REMARK 921   NORMALIZED FREE ENERGY PREDICTED BY IDOCK:   -3.91 KCAL/MOL
REMARK 922        TOTAL FREE ENERGY PREDICTED BY IDOCK:   -5.59 KCAL/MOL
REMARK 923 INTER-LIGAND FREE ENERGY PREDICTED BY IDOCK:   -4.98 KCAL/MOL
REMARK 924 INTRA-LIGAND FREE ENERGY PREDICTED BY IDOCK:   -0.61 KCAL/MOL
REMARK 927      BINDING AFFINITY PREDICTED BY RF-SCORE:    0.00 PKD
ROOT
HETATM    1  C   UNL     1     -14.400   6.871  71.963  1.00  0.00    -0.307 C  
HETATM    2  C   UNL     1     -13.405   7.997  71.672  1.00  0.00    -0.332 C  
HETATM    3  C   UNL     1     -13.908   9.302  72.296  1.00  0.00    -0.492 C  
ENDROOT
BRANCH   2   4
HETATM    4  N   UNL     1     -12.063   7.730  72.208  1.00  0.00    -0.432 NA 
HETATM    5  H   UNL     1     -11.887   6.976  72.873  1.00  0.00     0.000 HD 
BRANCH   4   6
HETATM    6  C   UNL     1     -10.984   8.615  71.727  1.00  0.00    -0.326 C  
HETATM    7  C   UNL     1      -9.655   8.300  72.423  1.00  0.00    -0.364 C  
BRANCH   6   8
HETATM    8  C   UNL     1     -10.793   8.467  70.194  1.00  0.00    -0.238 C  
BRANCH   8   9
HETATM    9  C   UNL     1     -11.006   9.743  69.407  1.00  0.00    -0.241 A  
HETATM   10  C   UNL     1     -10.679   9.811  68.046  1.00  0.00    -0.298 A  
HETATM   11  C   UNL     1     -10.896  10.987  67.323  1.00  0.00    -0.335 A  
HETATM   12  C   UNL     1     -11.437  12.103  67.960  1.00  0.00    -0.319 A  
HETATM   13  C   UNL     1     -11.760  12.052  69.316  1.00  0.00    -0.389 A  
HETATM   14  I   UNL     1     -11.772  13.849  66.885  1.00  0.00    -0.480 I  
HETATM   15  C   UNL     1     -11.548  10.875  70.034  1.00  0.00    -0.424 A  
ENDBRANCH   8   9
ENDBRANCH   6   8
ENDBRANCH   4   6
ENDBRANCH   2   4
TORSDOF 4
ENDMDL
MODEL       50
REMARK 921   NORMALIZED FREE ENERGY PREDICTED BY IDOCK:   -3.91 KCAL/MOL
REMARK 922        TOTAL FREE ENERGY PREDICTED BY IDOCK:   -5.59 KCAL/MOL
REMARK 923 INTER-LIGAND FREE ENERGY PREDICTED BY IDOCK:   -5.28 KCAL/MOL
REMARK 924 INTRA-LIGAND FREE ENERGY PREDICTED BY IDOCK:   -0.31 KCAL/MOL
REMARK 927      BINDING AFFINITY PREDICTED BY RF-SCORE:    0.00 PKD
ROOT
HETATM    1  C   UNL     1      -9.384  15.902  65.886  1.00  0.00    -0.353 C  
HETATM    2  C   UNL     1     -10.745  15.291  65.545  1.00  0.00    -0.371 C  
HETATM    3  C   UNL     1     -11.381  16.062  64.385  1.00  0.00    -0.253 C  
ENDROOT
BRANCH   2   4
HETATM    4  N   UNL     1     -10.657  13.877  65.153  1.00  0.00    -0.355 NA 
HETATM    5  H   UNL     1      -9.867  13.514  64.618  1.00  0.00     0.000 HD 
BRANCH   4   6
HETATM    6  C   UNL     1     -11.777  13.014  65.577  1.00  0.00    -0.368 C  
HETATM    7  C   UNL     1     -12.281  12.149  64.417  1.00  0.00    -0.435 C  
BRANCH   6   8
HETATM    8  C   UNL     1     -11.345  12.086  66.743  1.00  0.00    -0.398 C  
BRANCH   8   9
HETATM    9  C   UNL     1     -11.735  12.583  68.120  1.00  0.00    -0.400 A  
HETATM   10  C   UNL     1     -11.890  11.690  69.188  1.00  0.00    -0.390 A  
HETATM   11  C   UNL     1     -12.232  12.158  70.460  1.00  0.00    -0.392 A  
HETATM   12  C   UNL     1     -12.427  13.523  70.667  1.00  0.00    -0.333 A  
HETATM   13  C   UNL     1     -12.283  14.423  69.610  1.00  0.00    -0.353 A  
HETATM   14  I   UNL     1     -12.924  14.224  72.558  1.00  0.00    -0.485 I  
HETATM   15  C   UNL     1     -11.936  13.953  68.343  1.00  0.00    -0.391 A  
ENDBRANCH   8   9
ENDBRANCH   6   8
ENDBRANCH   4   6
ENDBRANCH   2   4
TORSDOF 4
ENDMDL
MODEL       51
REMARK 921   NORMALIZED FREE ENERGY PREDICTED BY IDOCK:   -3.90 KCAL/MOL
REMARK 922        TOTAL FREE ENERGY PREDICTED BY IDOCK:   -5.57 KCAL/MOL
REMARK 923 INTER-LIGAND FREE ENERGY PREDICTED BY IDOCK:   -5.23 KCAL/MOL
REMARK 924 INTRA-LIGAND FREE ENERGY PREDICTED BY IDOCK:   -0.34 KCAL/MOL
REMARK 927      BINDING AFFINITY PREDICTED BY RF-SCORE:    0.00 PKD
ROOT
HETATM    1  C   UNL     1     -12.306  14.419  64.425  1.00  0.00    -0.428 C  
HETATM    2  C   UNL     1     -12.231  12.979  64.938  1.00  0.00    -0.441 C  
HETATM    3  C   UNL     1     -12.649  12.013  63.825  1.00  0.00    -0.567 C  
ENDROOT
BRANCH   2   4
HETATM    4  N   UNL     1     -10.884  12.597  65.384  1.00  0.00    -0.280 NA 
HETATM    5  H   UNL     1     -10.057  13.135  65.123  1.00  0.00     0.000 HD 
BRANCH   4   6
HETATM    6  C   UNL     1     -10.798  11.392  66.231  1.00  0.00    -0.263 C  
HETATM    7  C   UNL     1     -10.068  10.255  65.506  1.00  0.00    -0.351 C  
BRANCH   6   8
HETATM    8  C   UNL     1     -10.050  11.703  67.555  1.00  0.00    -0.209 C  
BRANCH   8   9
HETATM    9  C   UNL     1     -10.877  12.443  68.585  1.00  0.00    -0.273 A  
HETATM   10  C   UNL     1     -10.991  13.839  68.547  1.00  0.00    -0.283 A  
HETATM   11  C   UNL     1     -11.770  14.513  69.491  1.00  0.00    -0.361 A  
HETATM   12  C   UNL     1     -12.437  13.793  70.482  1.00  0.00    -0.339 A  
HETATM   13  C   UNL     1     -12.325  12.403  70.537  1.00  0.00    -0.346 A  
HETATM   14  I   UNL     1     -13.606  14.790  71.880  1.00  0.00    -0.699 I  
HETATM   15  C   UNL     1     -11.551  11.732  69.590  1.00  0.00    -0.393 A  
ENDBRANCH   8   9
ENDBRANCH   6   8
ENDBRANCH   4   6
ENDBRANCH   2   4
TORSDOF 4
ENDMDL
MODEL       52
REMARK 921   NORMALIZED FREE ENERGY PREDICTED BY IDOCK:   -3.89 KCAL/MOL
REMARK 922        TOTAL FREE ENERGY PREDICTED BY IDOCK:   -5.57 KCAL/MOL
REMARK 923 INTER-LIGAND FREE ENERGY PREDICTED BY IDOCK:   -4.99 KCAL/MOL
REMARK 924 INTRA-LIGAND FREE ENERGY PREDICTED BY IDOCK:   -0.58 KCAL/MOL
REMARK 927      BINDING AFFINITY PREDICTED BY RF-SCORE:    0.00 PKD
ROOT
HETATM    1  C   UNL     1     -10.607   6.054  70.349  1.00  0.00    -0.332 C  
HETATM    2  C   UNL     1     -11.074   7.402  70.901  1.00  0.00    -0.263 C  
HETATM    3  C   UNL     1     -11.607   7.220  72.325  1.00  0.00    -0.315 C  
ENDROOT
BRANCH   2   4
HETATM    4  N   UNL     1     -10.002   8.407  70.946  1.00  0.00    -0.185 NA 
HETATM    5  H   UNL     1      -9.212   8.324  71.587  1.00  0.00     0.000 HD 
BRANCH   4   6
HETATM    6  C   UNL     1     -10.134   9.540  70.010  1.00  0.00    -0.242 C  
HETATM    7  C   UNL     1      -9.444   9.241  68.675  1.00  0.00    -0.148 C  
BRANCH   6   8
HETATM    8  C   UNL     1     -11.629   9.860  69.742  1.00  0.00    -0.138 C  
BRANCH   8   9
HETATM    9  C   UNL     1     -12.115  11.156  70.355  1.00  0.00    -0.475 A  
HETATM   10  C   UNL     1     -11.793  12.391  69.775  1.00  0.00    -0.387 A  
HETATM   11  C   UNL     1     -12.261  13.582  70.336  1.00  0.00    -0.426 A  
HETATM   12  C   UNL     1     -13.051  13.543  71.486  1.00  0.00    -0.344 A  
HETATM   13  C   UNL     1     -13.372  12.321  72.078  1.00  0.00    -0.491 A  
HETATM   14  I   UNL     1     -13.758  15.310  72.317  1.00  0.00    -0.702 I  
HETATM   15  C   UNL     1     -12.908  11.134  71.512  1.00  0.00    -0.542 A  
ENDBRANCH   8   9
ENDBRANCH   6   8
ENDBRANCH   4   6
ENDBRANCH   2   4
TORSDOF 4
ENDMDL
MODEL       53
REMARK 921   NORMALIZED FREE ENERGY PREDICTED BY IDOCK:   -3.89 KCAL/MOL
REMARK 922        TOTAL FREE ENERGY PREDICTED BY IDOCK:   -5.57 KCAL/MOL
REMARK 923 INTER-LIGAND FREE ENERGY PREDICTED BY IDOCK:   -5.09 KCAL/MOL
REMARK 924 INTRA-LIGAND FREE ENERGY PREDICTED BY IDOCK:   -0.48 KCAL/MOL
REMARK 927      BINDING AFFINITY PREDICTED BY RF-SCORE:    0.00 PKD
ROOT
HETATM    1  C   UNL     1     -11.200   9.451  71.274  1.00  0.00    -0.437 C  
HETATM    2  C   UNL     1     -11.810  10.544  70.393  1.00  0.00    -0.340 C  
HETATM    3  C   UNL     1     -12.781  11.391  71.220  1.00  0.00    -0.498 C  
ENDROOT
BRANCH   2   4
HETATM    4  N   UNL     1     -10.802  11.446  69.818  1.00  0.00    -0.460 NA 
HETATM    5  H   UNL     1     -10.153  11.973  70.403  1.00  0.00     0.000 HD 
BRANCH   4   6
HETATM    6  C   UNL     1     -10.783  11.544  68.346  1.00  0.00    -0.208 C  
HETATM    7  C   UNL     1     -10.980  10.170  67.695  1.00  0.00    -0.331 C  
BRANCH   6   8
HETATM    8  C   UNL     1     -11.897  12.501  67.844  1.00  0.00    -0.383 C  
BRANCH   8   9
HETATM    9  C   UNL     1     -11.501  13.962  67.803  1.00  0.00    -0.354 A  
HETATM   10  C   UNL     1     -10.928  14.520  66.653  1.00  0.00    -0.321 A  
HETATM   11  C   UNL     1     -10.582  15.873  66.618  1.00  0.00    -0.305 A  
HETATM   12  C   UNL     1     -10.803  16.675  67.738  1.00  0.00    -0.292 A  
HETATM   13  C   UNL     1     -11.366  16.130  68.893  1.00  0.00    -0.350 A  
HETATM   14  I   UNL     1     -10.301  18.690  67.685  1.00  0.00    -0.465 I  
HETATM   15  C   UNL     1     -11.715  14.780  68.923  1.00  0.00    -0.340 A  
ENDBRANCH   8   9
ENDBRANCH   6   8
ENDBRANCH   4   6
ENDBRANCH   2   4
TORSDOF 4
ENDMDL
MODEL       54
REMARK 921   NORMALIZED FREE ENERGY PREDICTED BY IDOCK:   -3.89 KCAL/MOL
REMARK 922        TOTAL FREE ENERGY PREDICTED BY IDOCK:   -5.56 KCAL/MOL
REMARK 923 INTER-LIGAND FREE ENERGY PREDICTED BY IDOCK:   -4.97 KCAL/MOL
REMARK 924 INTRA-LIGAND FREE ENERGY PREDICTED BY IDOCK:   -0.59 KCAL/MOL
REMARK 927      BINDING AFFINITY PREDICTED BY RF-SCORE:    0.00 PKD
ROOT
HETATM    1  C   UNL     1     -10.646  16.209  66.372  1.00  0.00    -0.269 C  
HETATM    2  C   UNL     1     -11.134  15.228  67.441  1.00  0.00    -0.326 C  
HETATM    3  C   UNL     1     -11.507  15.996  68.713  1.00  0.00    -0.375 C  
ENDROOT
BRANCH   2   4
HETATM    4  N   UNL     1     -12.313  14.458  67.018  1.00  0.00    -0.561 NA 
HETATM    5  H   UNL     1     -13.234  14.887  66.930  1.00  0.00     0.000 HD 
BRANCH   4   6
HETATM    6  C   UNL     1     -12.085  13.029  66.727  1.00  0.00    -0.300 C  
HETATM    7  C   UNL     1     -11.953  12.783  65.220  1.00  0.00    -0.473 C  
BRANCH   6   8
HETATM    8  C   UNL     1     -10.798  12.523  67.431  1.00  0.00    -0.272 C  
BRANCH   8   9
HETATM    9  C   UNL     1     -11.038  11.490  68.513  1.00  0.00    -0.287 A  
HETATM   10  C   UNL     1     -10.506  10.199  68.403  1.00  0.00    -0.237 A  
HETATM   11  C   UNL     1     -10.716   9.257  69.414  1.00  0.00    -0.222 A  
HETATM   12  C   UNL     1     -11.466   9.602  70.538  1.00  0.00    -0.285 A  
HETATM   13  C   UNL     1     -12.007  10.883  70.657  1.00  0.00    -0.467 A  
HETATM   14  I   UNL     1     -11.771   8.209  72.049  1.00  0.00    -0.485 I  
HETATM   15  C   UNL     1     -11.791  11.822  69.649  1.00  0.00    -0.407 A  
ENDBRANCH   8   9
ENDBRANCH   6   8
ENDBRANCH   4   6
ENDBRANCH   2   4
TORSDOF 4
ENDMDL
MODEL       55
REMARK 921   NORMALIZED FREE ENERGY PREDICTED BY IDOCK:   -3.86 KCAL/MOL
REMARK 922        TOTAL FREE ENERGY PREDICTED BY IDOCK:   -5.52 KCAL/MOL
REMARK 923 INTER-LIGAND FREE ENERGY PREDICTED BY IDOCK:   -5.02 KCAL/MOL
REMARK 924 INTRA-LIGAND FREE ENERGY PREDICTED BY IDOCK:   -0.50 KCAL/MOL
REMARK 927      BINDING AFFINITY PREDICTED BY RF-SCORE:    0.00 PKD
ROOT
HETATM    1  C   UNL     1     -11.663  12.245  66.165  1.00  0.00    -0.440 C  
HETATM    2  C   UNL     1     -11.778  13.010  67.486  1.00  0.00    -0.370 C  
HETATM    3  C   UNL     1     -10.459  12.907  68.257  1.00  0.00    -0.250 C  
ENDROOT
BRANCH   2   4
HETATM    4  N   UNL     1     -12.080  14.436  67.299  1.00  0.00    -0.573 NA 
HETATM    5  H   UNL     1     -13.038  14.785  67.272  1.00  0.00     0.000 HD 
BRANCH   4   6
HETATM    6  C   UNL     1     -10.917  15.333  67.152  1.00  0.00    -0.331 C  
HETATM    7  C   UNL     1     -10.777  15.831  65.709  1.00  0.00    -0.337 C  
BRANCH   6   8
HETATM    8  C   UNL     1     -11.046  16.559  68.095  1.00  0.00    -0.303 C  
BRANCH   8   9
HETATM    9  C   UNL     1      -9.925  17.569  67.969  1.00  0.00    -0.310 A  
HETATM   10  C   UNL     1      -8.604  17.220  68.282  1.00  0.00    -0.247 A  
HETATM   11  C   UNL     1      -7.573  18.154  68.146  1.00  0.00    -0.269 A  
HETATM   12  C   UNL     1      -7.860  19.445  67.701  1.00  0.00    -0.274 A  
HETATM   13  C   UNL     1      -9.172  19.808  67.394  1.00  0.00    -0.433 A  
HETATM   14  I   UNL     1      -6.328  20.831  67.487  1.00  0.00    -0.427 I  
HETATM   15  C   UNL     1     -10.198  18.872  67.526  1.00  0.00    -0.456 A  
ENDBRANCH   8   9
ENDBRANCH   6   8
ENDBRANCH   4   6
ENDBRANCH   2   4
TORSDOF 4
ENDMDL
MODEL       56
REMARK 921   NORMALIZED FREE ENERGY PREDICTED BY IDOCK:   -3.85 KCAL/MOL
REMARK 922        TOTAL FREE ENERGY PREDICTED BY IDOCK:   -5.52 KCAL/MOL
REMARK 923 INTER-LIGAND FREE ENERGY PREDICTED BY IDOCK:   -5.01 KCAL/MOL
REMARK 924 INTRA-LIGAND FREE ENERGY PREDICTED BY IDOCK:   -0.50 KCAL/MOL
REMARK 927      BINDING AFFINITY PREDICTED BY RF-SCORE:    0.00 PKD
ROOT
HETATM    1  C   UNL     1     -10.364  19.272  65.989  1.00  0.00    -0.556 C  
HETATM    2  C   UNL     1      -9.857  17.956  66.583  1.00  0.00    -0.342 C  
HETATM    3  C   UNL     1     -10.764  17.531  67.742  1.00  0.00    -0.333 C  
ENDROOT
BRANCH   2   4
HETATM    4  N   UNL     1      -9.828  16.858  65.607  1.00  0.00    -0.570 NA 
HETATM    5  H   UNL     1      -9.225  16.883  64.784  1.00  0.00     0.000 HD 
BRANCH   4   6
HETATM    6  C   UNL     1     -10.723  15.718  65.886  1.00  0.00    -0.313 C  
HETATM    7  C   UNL     1     -11.652  15.437  64.699  1.00  0.00    -0.311 C  
BRANCH   6   8
HETATM    8  C   UNL     1      -9.902  14.437  66.192  1.00  0.00    -0.340 C  
BRANCH   8   9
HETATM    9  C   UNL     1     -10.505  13.542  67.255  1.00  0.00    -0.248 A  
HETATM   10  C   UNL     1     -10.332  12.153  67.207  1.00  0.00    -0.230 A  
HETATM   11  C   UNL     1     -10.877  11.336  68.201  1.00  0.00    -0.263 A  
HETATM   12  C   UNL     1     -11.602  11.906  69.247  1.00  0.00    -0.315 A  
HETATM   13  C   UNL     1     -11.789  13.288  69.303  1.00  0.00    -0.383 A  
HETATM   14  I   UNL     1     -12.403  10.696  70.733  1.00  0.00    -0.514 I  
HETATM   15  C   UNL     1     -11.239  14.101  68.312  1.00  0.00    -0.295 A  
ENDBRANCH   8   9
ENDBRANCH   6   8
ENDBRANCH   4   6
ENDBRANCH   2   4
TORSDOF 4
ENDMDL
MODEL       57
REMARK 921   NORMALIZED FREE ENERGY PREDICTED BY IDOCK:   -3.83 KCAL/MOL
REMARK 922        TOTAL FREE ENERGY PREDICTED BY IDOCK:   -5.50 KCAL/MOL
REMARK 923 INTER-LIGAND FREE ENERGY PREDICTED BY IDOCK:   -4.93 KCAL/MOL
REMARK 924 INTRA-LIGAND FREE ENERGY PREDICTED BY IDOCK:   -0.57 KCAL/MOL
REMARK 927      BINDING AFFINITY PREDICTED BY RF-SCORE:    0.00 PKD
ROOT
HETATM    1  C   UNL     1      -9.888  16.109  65.875  1.00  0.00    -0.384 C  
HETATM    2  C   UNL     1     -10.215  14.624  66.051  1.00  0.00    -0.311 C  
HETATM    3  C   UNL     1     -11.626  14.472  66.626  1.00  0.00    -0.385 C  
ENDROOT
BRANCH   2   4
HETATM    4  N   UNL     1     -10.159  13.870  64.790  1.00  0.00    -0.610 NA 
HETATM    5  H   UNL     1      -9.614  14.195  63.991  1.00  0.00     0.000 HD 
BRANCH   4   6
HETATM    6  C   UNL     1     -10.937  12.617  64.748  1.00  0.00    -0.302 C  
HETATM    7  C   UNL     1     -11.873  12.584  63.535  1.00  0.00    -0.616 C  
BRANCH   6   8
HETATM    8  C   UNL     1      -9.994  11.386  64.687  1.00  0.00    -0.315 C  
BRANCH   8   9
HETATM    9  C   UNL     1     -10.135  10.426  65.849  1.00  0.00    -0.326 A  
HETATM   10  C   UNL     1      -9.712   9.095  65.737  1.00  0.00    -0.299 A  
HETATM   11  C   UNL     1      -9.829   8.220  66.821  1.00  0.00    -0.333 A  
HETATM   12  C   UNL     1     -10.377   8.672  68.021  1.00  0.00    -0.223 A  
HETATM   13  C   UNL     1     -10.810   9.993  68.144  1.00  0.00    -0.303 A  
HETATM   14  I   UNL     1     -10.542   7.378  69.638  1.00  0.00    -0.195 I  
HETATM   15  C   UNL     1     -10.686  10.866  67.062  1.00  0.00    -0.323 A  
ENDBRANCH   8   9
ENDBRANCH   6   8
ENDBRANCH   4   6
ENDBRANCH   2   4
TORSDOF 4
ENDMDL
MODEL       58
REMARK 921   NORMALIZED FREE ENERGY PREDICTED BY IDOCK:   -3.83 KCAL/MOL
REMARK 922        TOTAL FREE ENERGY PREDICTED BY IDOCK:   -5.49 KCAL/MOL
REMARK 923 INTER-LIGAND FREE ENERGY PREDICTED BY IDOCK:   -4.90 KCAL/MOL
REMARK 924 INTRA-LIGAND FREE ENERGY PREDICTED BY IDOCK:   -0.59 KCAL/MOL
REMARK 927      BINDING AFFINITY PREDICTED BY RF-SCORE:    0.00 PKD
ROOT
HETATM    1  C   UNL     1      -9.427  15.534  69.142  1.00  0.00    -0.246 C  
HETATM    2  C   UNL     1     -10.462  16.650  69.295  1.00  0.00    -0.333 C  
HETATM    3  C   UNL     1     -10.757  17.272  67.927  1.00  0.00    -0.351 C  
ENDROOT
BRANCH   2   4
HETATM    4  N   UNL     1     -11.735  16.180  69.860  1.00  0.00    -0.341 NA 
HETATM    5  H   UNL     1     -12.635  16.517  69.518  1.00  0.00     0.000 HD 
BRANCH   4   6
HETATM    6  C   UNL     1     -11.635  15.190  70.950  1.00  0.00    -0.338 C  
HETATM    7  C   UNL     1     -11.868  15.843  72.317  1.00  0.00    -0.617 C  
BRANCH   6   8
HETATM    8  C   UNL     1     -12.671  14.051  70.756  1.00  0.00    -0.396 C  
BRANCH   8   9
HETATM    9  C   UNL     1     -12.143  12.840  70.016  1.00  0.00    -0.355 A  
HETATM   10  C   UNL     1     -11.913  11.632  70.688  1.00  0.00    -0.356 A  
HETATM   11  C   UNL     1     -11.444  10.513  69.995  1.00  0.00    -0.393 A  
HETATM   12  C   UNL     1     -11.197  10.599  68.624  1.00  0.00    -0.278 A  
HETATM   13  C   UNL     1     -11.414  11.799  67.945  1.00  0.00    -0.387 A  
HETATM   14  I   UNL     1     -10.510   8.935  67.588  1.00  0.00    -0.161 I  
HETATM   15  C   UNL     1     -11.888  12.912  68.639  1.00  0.00    -0.347 A  
ENDBRANCH   8   9
ENDBRANCH   6   8
ENDBRANCH   4   6
ENDBRANCH   2   4
TORSDOF 4
ENDMDL
MODEL       59
REMARK 921   NORMALIZED FREE ENERGY PREDICTED BY IDOCK:   -3.81 KCAL/MOL
REMARK 922        TOTAL FREE ENERGY PREDICTED BY IDOCK:   -5.46 KCAL/MOL
REMARK 923 INTER-LIGAND FREE ENERGY PREDICTED BY IDOCK:   -4.98 KCAL/MOL
REMARK 924 INTRA-LIGAND FREE ENERGY PREDICTED BY IDOCK:   -0.49 KCAL/MOL
REMARK 927      BINDING AFFINITY PREDICTED BY RF-SCORE:    0.00 PKD
ROOT
HETATM    1  C   UNL     1     -11.473  15.739  64.479  1.00  0.00    -0.292 C  
HETATM    2  C   UNL     1     -10.753  15.029  65.628  1.00  0.00    -0.354 C  
HETATM    3  C   UNL     1      -9.541  15.855  66.066  1.00  0.00    -0.385 C  
ENDROOT
BRANCH   2   4
HETATM    4  N   UNL     1     -11.611  14.828  66.805  1.00  0.00    -0.354 NA 
HETATM    5  H   UNL     1     -12.090  15.604  67.262  1.00  0.00     0.000 HD 
BRANCH   4   6
HETATM    6  C   UNL     1     -11.738  13.439  67.287  1.00  0.00    -0.380 C  
HETATM    7  C   UNL     1     -11.664  12.440  66.126  1.00  0.00    -0.460 C  
BRANCH   6   8
HETATM    8  C   UNL     1     -10.618  13.105  68.307  1.00  0.00    -0.260 C  
BRANCH   8   9
HETATM    9  C   UNL     1     -10.922  11.930  69.213  1.00  0.00    -0.208 A  
HETATM   10  C   UNL     1     -12.032  11.950  70.068  1.00  0.00    -0.409 A  
HETATM   11  C   UNL     1     -12.315  10.854  70.887  1.00  0.00    -0.501 A  
HETATM   12  C   UNL     1     -11.484   9.734  70.860  1.00  0.00    -0.369 A  
HETATM   13  C   UNL     1     -10.371   9.704  70.019  1.00  0.00    -0.298 A  
HETATM   14  I   UNL     1     -11.909   8.098  72.068  1.00  0.00    -0.481 I  
HETATM   15  C   UNL     1     -10.094  10.797  69.198  1.00  0.00    -0.224 A  
ENDBRANCH   8   9
ENDBRANCH   6   8
ENDBRANCH   4   6
ENDBRANCH   2   4
TORSDOF 4
ENDMDL
MODEL       60
REMARK 921   NORMALIZED FREE ENERGY PREDICTED BY IDOCK:   -3.79 KCAL/MOL
REMARK 922        TOTAL FREE ENERGY PREDICTED BY IDOCK:   -5.44 KCAL/MOL
REMARK 923 INTER-LIGAND FREE ENERGY PREDICTED BY IDOCK:   -4.91 KCAL/MOL
REMARK 924 INTRA-LIGAND FREE ENERGY PREDICTED BY IDOCK:   -0.53 KCAL/MOL
REMARK 927      BINDING AFFINITY PREDICTED BY RF-SCORE:    0.00 PKD
ROOT
HETATM    1  C   UNL     1     -11.028   6.360  68.529  1.00  0.00    -0.396 C  
HETATM    2  C   UNL     1     -10.993   6.069  70.031  1.00  0.00    -0.380 C  
HETATM    3  C   UNL     1      -9.988   4.950  70.317  1.00  0.00    -0.321 C  
ENDROOT
BRANCH   2   4
HETATM    4  N   UNL     1     -10.606   7.239  70.833  1.00  0.00    -0.218 NA 
HETATM    5  H   UNL     1      -9.723   7.275  71.343  1.00  0.00     0.000 HD 
BRANCH   4   6
HETATM    6  C   UNL     1     -11.568   8.358  70.856  1.00  0.00    -0.262 C  
HETATM    7  C   UNL     1     -12.478   8.283  72.087  1.00  0.00    -0.398 C  
BRANCH   6   8
HETATM    8  C   UNL     1     -10.827   9.721  70.863  1.00  0.00    -0.399 C  
BRANCH   8   9
HETATM    9  C   UNL     1     -11.116  10.601  69.666  1.00  0.00    -0.342 A  
HETATM   10  C   UNL     1     -11.694  11.867  69.827  1.00  0.00    -0.403 A  
HETATM   11  C   UNL     1     -11.940  12.681  68.718  1.00  0.00    -0.279 A  
HETATM   12  C   UNL     1     -11.614  12.228  67.439  1.00  0.00    -0.355 A  
HETATM   13  C   UNL     1     -11.045  10.966  67.264  1.00  0.00    -0.350 A  
HETATM   14  I   UNL     1     -11.968  13.439  65.789  1.00  0.00    -0.527 I  
HETATM   15  C   UNL     1     -10.795  10.158  68.373  1.00  0.00    -0.284 A  
ENDBRANCH   8   9
ENDBRANCH   6   8
ENDBRANCH   4   6
ENDBRANCH   2   4
TORSDOF 4
ENDMDL
MODEL       61
REMARK 921   NORMALIZED FREE ENERGY PREDICTED BY IDOCK:   -3.78 KCAL/MOL
REMARK 922        TOTAL FREE ENERGY PREDICTED BY IDOCK:   -5.43 KCAL/MOL
REMARK 923 INTER-LIGAND FREE ENERGY PREDICTED BY IDOCK:   -4.83 KCAL/MOL
REMARK 924 INTRA-LIGAND FREE ENERGY PREDICTED BY IDOCK:   -0.60 KCAL/MOL
REMARK 927      BINDING AFFINITY PREDICTED BY RF-SCORE:    0.00 PKD
ROOT
HETATM    1  C   UNL     1     -11.838  12.907  66.175  1.00  0.00    -0.487 C  
HETATM    2  C   UNL     1     -11.288  11.970  67.253  1.00  0.00    -0.330 C  
HETATM    3  C   UNL     1     -10.185  11.090  66.656  1.00  0.00    -0.280 C  
ENDROOT
BRANCH   2   4
HETATM    4  N   UNL     1     -10.719  12.689  68.402  1.00  0.00    -0.235 NA 
HETATM    5  H   UNL     1      -9.891  13.278  68.313  1.00  0.00     0.000 HD 
BRANCH   4   6
HETATM    6  C   UNL     1     -11.415  12.508  69.690  1.00  0.00    -0.185 C  
HETATM    7  C   UNL     1     -12.314  13.708  70.009  1.00  0.00    -0.342 C  
BRANCH   6   8
HETATM    8  C   UNL     1     -12.284  11.223  69.670  1.00  0.00    -0.340 C  
BRANCH   8   9
HETATM    9  C   UNL     1     -11.809  10.127  70.601  1.00  0.00    -0.431 A  
HETATM   10  C   UNL     1     -10.580   9.488  70.391  1.00  0.00    -0.333 A  
HETATM   11  C   UNL     1     -10.140   8.490  71.265  1.00  0.00    -0.286 A  
HETATM   12  C   UNL     1     -10.933   8.122  72.352  1.00  0.00    -0.345 A  
HETATM   13  C   UNL     1     -12.163   8.745  72.569  1.00  0.00    -0.347 A  
HETATM   14  I   UNL     1     -10.278   6.648  73.661  1.00  0.00    -0.378 I  
HETATM   15  C   UNL     1     -12.597   9.744  71.697  1.00  0.00    -0.509 A  
ENDBRANCH   8   9
ENDBRANCH   6   8
ENDBRANCH   4   6
ENDBRANCH   2   4
TORSDOF 4
ENDMDL
MODEL       62
REMARK 921   NORMALIZED FREE ENERGY PREDICTED BY IDOCK:   -3.76 KCAL/MOL
REMARK 922        TOTAL FREE ENERGY PREDICTED BY IDOCK:   -5.40 KCAL/MOL
REMARK 923 INTER-LIGAND FREE ENERGY PREDICTED BY IDOCK:   -4.47 KCAL/MOL
REMARK 924 INTRA-LIGAND FREE ENERGY PREDICTED BY IDOCK:   -0.93 KCAL/MOL
REMARK 927      BINDING AFFINITY PREDICTED BY RF-SCORE:    0.00 PKD
ROOT
HETATM    1  C   UNL     1     -11.062  14.761  64.945  1.00  0.00    -0.416 C  
HETATM    2  C   UNL     1     -12.342  14.063  65.411  1.00  0.00    -0.478 C  
HETATM    3  C   UNL     1     -12.313  12.593  64.984  1.00  0.00    -0.561 C  
ENDROOT
BRANCH   2   4
HETATM    4  N   UNL     1     -12.520  14.105  66.869  1.00  0.00    -0.549 NA 
HETATM    5  H   UNL     1     -13.413  13.882  67.310  1.00  0.00     0.000 HD 
BRANCH   4   6
HETATM    6  C   UNL     1     -11.333  14.488  67.658  1.00  0.00    -0.337 C  
HETATM    7  C   UNL     1     -11.616  15.721  68.524  1.00  0.00    -0.367 C  
BRANCH   6   8
HETATM    8  C   UNL     1     -10.884  13.323  68.578  1.00  0.00    -0.286 C  
BRANCH   8   9
HETATM    9  C   UNL     1     -10.278  12.142  67.848  1.00  0.00    -0.203 A  
HETATM   10  C   UNL     1     -10.886  10.880  67.893  1.00  0.00    -0.295 A  
HETATM   11  C   UNL     1     -10.331   9.800  67.201  1.00  0.00    -0.311 A  
HETATM   12  C   UNL     1      -9.160   9.977  66.464  1.00  0.00    -0.148 A  
HETATM   13  C   UNL     1      -8.540  11.226  66.417  1.00  0.00    -0.174 A  
HETATM   14  I   UNL     1      -8.339   8.377  65.425  1.00  0.00    -0.152 I  
HETATM   15  C   UNL     1      -9.100  12.303  67.104  1.00  0.00    -0.193 A  
ENDBRANCH   8   9
ENDBRANCH   6   8
ENDBRANCH   4   6
ENDBRANCH   2   4
TORSDOF 4
ENDMDL
MODEL       63
REMARK 921   NORMALIZED FREE ENERGY PREDICTED BY IDOCK:   -3.76 KCAL/MOL
REMARK 922        TOTAL FREE ENERGY PREDICTED BY IDOCK:   -5.40 KCAL/MOL
REMARK 923 INTER-LIGAND FREE ENERGY PREDICTED BY IDOCK:   -4.79 KCAL/MOL
REMARK 924 INTRA-LIGAND FREE ENERGY PREDICTED BY IDOCK:   -0.61 KCAL/MOL
REMARK 927      BINDING AFFINITY PREDICTED BY RF-SCORE:    0.00 PKD
ROOT
HETATM    1  C   UNL     1     -13.784   9.166  72.105  1.00  0.00    -0.531 C  
HETATM    2  C   UNL     1     -12.893  10.133  71.323  1.00  0.00    -0.410 C  
HETATM    3  C   UNL     1     -13.073  11.554  71.866  1.00  0.00    -0.492 C  
ENDROOT
BRANCH   2   4
HETATM    4  N   UNL     1     -11.465   9.795  71.409  1.00  0.00    -0.380 NA 
HETATM    5  H   UNL     1     -11.084   9.255  72.187  1.00  0.00     0.000 HD 
BRANCH   4   6
HETATM    6  C   UNL     1     -10.614  10.282  70.306  1.00  0.00    -0.204 C  
HETATM    7  C   UNL     1      -9.282   9.526  70.256  1.00  0.00    -0.303 C  
BRANCH   6   8
HETATM    8  C   UNL     1     -11.335  10.118  68.942  1.00  0.00    -0.176 C  
BRANCH   8   9
HETATM    9  C   UNL     1     -11.256  11.330  68.038  1.00  0.00    -0.351 A  
HETATM   10  C   UNL     1     -11.274  12.626  68.570  1.00  0.00    -0.315 A  
HETATM   11  C   UNL     1     -11.182  13.739  67.730  1.00  0.00    -0.312 A  
HETATM   12  C   UNL     1     -11.077  13.560  66.350  1.00  0.00    -0.302 A  
HETATM   13  C   UNL     1     -11.065  12.275  65.806  1.00  0.00    -0.362 A  
HETATM   14  I   UNL     1     -10.928  15.211  65.099  1.00  0.00    -0.397 I  
HETATM   15  C   UNL     1     -11.151  11.166  66.648  1.00  0.00    -0.255 A  
ENDBRANCH   8   9
ENDBRANCH   6   8
ENDBRANCH   4   6
ENDBRANCH   2   4
TORSDOF 4
ENDMDL
MODEL       64
REMARK 921   NORMALIZED FREE ENERGY PREDICTED BY IDOCK:   -3.75 KCAL/MOL
REMARK 922        TOTAL FREE ENERGY PREDICTED BY IDOCK:   -5.39 KCAL/MOL
REMARK 923 INTER-LIGAND FREE ENERGY PREDICTED BY IDOCK:   -4.75 KCAL/MOL
REMARK 924 INTRA-LIGAND FREE ENERGY PREDICTED BY IDOCK:   -0.64 KCAL/MOL
REMARK 927      BINDING AFFINITY PREDICTED BY RF-SCORE:    0.00 PKD
ROOT
HETATM    1  C   UNL     1      -9.252  16.149  69.213  1.00  0.00    -0.223 C  
HETATM    2  C   UNL     1     -10.271  17.277  69.389  1.00  0.00    -0.139 C  
HETATM    3  C   UNL     1     -10.596  17.896  68.026  1.00  0.00    -0.366 C  
ENDROOT
BRANCH   2   4
HETATM    4  N   UNL     1     -11.533  16.822  69.990  1.00  0.00    -0.208 NA 
HETATM    5  H   UNL     1     -12.408  17.330  69.857  1.00  0.00     0.000 HD 
BRANCH   4   6
HETATM    6  C   UNL     1     -11.460  15.588  70.796  1.00  0.00    -0.367 C  
HETATM    7  C   UNL     1     -11.795  15.864  72.266  1.00  0.00    -0.617 C  
BRANCH   6   8
HETATM    8  C   UNL     1     -12.440  14.516  70.251  1.00  0.00    -0.405 C  
BRANCH   8   9
HETATM    9  C   UNL     1     -11.952  13.785  69.018  1.00  0.00    -0.399 A  
HETATM   10  C   UNL     1     -12.021  14.383  67.753  1.00  0.00    -0.368 A  
HETATM   11  C   UNL     1     -11.551  13.708  66.623  1.00  0.00    -0.391 A  
HETATM   12  C   UNL     1     -11.014  12.427  66.754  1.00  0.00    -0.263 A  
HETATM   13  C   UNL     1     -10.947  11.816  68.006  1.00  0.00    -0.274 A  
HETATM   14  I   UNL     1     -10.304  11.426  65.078  1.00  0.00    -0.364 I  
HETATM   15  C   UNL     1     -11.411  12.495  69.133  1.00  0.00    -0.361 A  
ENDBRANCH   8   9
ENDBRANCH   6   8
ENDBRANCH   4   6
ENDBRANCH   2   4
TORSDOF 4
ENDMDL
MODEL       65
REMARK 921   NORMALIZED FREE ENERGY PREDICTED BY IDOCK:   -3.75 KCAL/MOL
REMARK 922        TOTAL FREE ENERGY PREDICTED BY IDOCK:   -5.39 KCAL/MOL
REMARK 923 INTER-LIGAND FREE ENERGY PREDICTED BY IDOCK:   -5.54 KCAL/MOL
REMARK 924 INTRA-LIGAND FREE ENERGY PREDICTED BY IDOCK:    0.15 KCAL/MOL
REMARK 927      BINDING AFFINITY PREDICTED BY RF-SCORE:    0.00 PKD
ROOT
HETATM    1  C   UNL     1     -10.714   5.852  68.501  1.00  0.00    -0.327 C  
HETATM    2  C   UNL     1     -11.410   6.202  69.818  1.00  0.00    -0.382 C  
HETATM    3  C   UNL     1     -10.554   5.726  70.995  1.00  0.00    -0.318 C  
ENDROOT
BRANCH   2   4
HETATM    4  N   UNL     1     -11.637   7.645  69.981  1.00  0.00    -0.480 NA 
HETATM    5  H   UNL     1     -11.521   8.300  69.207  1.00  0.00     0.000 HD 
BRANCH   4   6
HETATM    6  C   UNL     1     -12.042   8.090  71.328  1.00  0.00    -0.291 C  
HETATM    7  C   UNL     1     -10.905   8.840  72.032  1.00  0.00    -0.428 C  
BRANCH   6   8
HETATM    8  C   UNL     1     -13.282   9.020  71.251  1.00  0.00    -0.262 C  
BRANCH   8   9
HETATM    9  C   UNL     1     -12.956  10.491  71.096  1.00  0.00    -0.506 A  
HETATM   10  C   UNL     1     -12.226  10.954  69.994  1.00  0.00    -0.422 A  
HETATM   11  C   UNL     1     -11.946  12.315  69.849  1.00  0.00    -0.377 A  
HETATM   12  C   UNL     1     -12.391  13.221  70.812  1.00  0.00    -0.344 A  
HETATM   13  C   UNL     1     -13.112  12.773  71.919  1.00  0.00    -0.474 A  
HETATM   14  I   UNL     1     -11.987  15.247  70.595  1.00  0.00    -0.541 I  
HETATM   15  C   UNL     1     -13.396  11.414  72.058  1.00  0.00    -0.388 A  
ENDBRANCH   8   9
ENDBRANCH   6   8
ENDBRANCH   4   6
ENDBRANCH   2   4
TORSDOF 4
ENDMDL
MODEL       66
REMARK 921   NORMALIZED FREE ENERGY PREDICTED BY IDOCK:   -3.73 KCAL/MOL
REMARK 922        TOTAL FREE ENERGY PREDICTED BY IDOCK:   -5.37 KCAL/MOL
REMARK 923 INTER-LIGAND FREE ENERGY PREDICTED BY IDOCK:   -4.93 KCAL/MOL
REMARK 924 INTRA-LIGAND FREE ENERGY PREDICTED BY IDOCK:   -0.45 KCAL/MOL
REMARK 927      BINDING AFFINITY PREDICTED BY RF-SCORE:    0.00 PKD
ROOT
HETATM    1  C   UNL     1      -8.888   7.996  67.409  1.00  0.00    -0.134 C  
HETATM    2  C   UNL     1     -10.328   7.786  67.883  1.00  0.00    -0.217 C  
HETATM    3  C   UNL     1     -10.921   6.551  67.198  1.00  0.00    -0.480 C  
ENDROOT
BRANCH   2   4
HETATM    4  N   UNL     1     -10.432   7.589  69.336  1.00  0.00    -0.220 NA 
HETATM    5  H   UNL     1     -10.306   6.673  69.766  1.00  0.00     0.000 HD 
BRANCH   4   6
HETATM    6  C   UNL     1     -10.727   8.794  70.135  1.00  0.00    -0.224 C  
HETATM    7  C   UNL     1      -9.475   9.300  70.861  1.00  0.00    -0.330 C  
BRANCH   6   8
HETATM    8  C   UNL     1     -11.277   9.931  69.233  1.00  0.00    -0.174 C  
BRANCH   8   9
HETATM    9  C   UNL     1     -11.807  11.132  69.988  1.00  0.00    -0.441 A  
HETATM   10  C   UNL     1     -11.510  12.435  69.565  1.00  0.00    -0.309 A  
HETATM   11  C   UNL     1     -12.019  13.538  70.256  1.00  0.00    -0.386 A  
HETATM   12  C   UNL     1     -12.823  13.342  71.379  1.00  0.00    -0.333 A  
HETATM   13  C   UNL     1     -13.120  12.050  71.815  1.00  0.00    -0.460 A  
HETATM   14  I   UNL     1     -13.591  14.979  72.402  1.00  0.00    -0.687 I  
HETATM   15  C   UNL     1     -12.616  10.951  71.120  1.00  0.00    -0.532 A  
ENDBRANCH   8   9
ENDBRANCH   6   8
ENDBRANCH   4   6
ENDBRANCH   2   4
TORSDOF 4
ENDMDL
MODEL       67
REMARK 921   NORMALIZED FREE ENERGY PREDICTED BY IDOCK:   -3.72 KCAL/MOL
REMARK 922        TOTAL FREE ENERGY PREDICTED BY IDOCK:   -5.35 KCAL/MOL
REMARK 923 INTER-LIGAND FREE ENERGY PREDICTED BY IDOCK:   -4.77 KCAL/MOL
REMARK 924 INTRA-LIGAND FREE ENERGY PREDICTED BY IDOCK:   -0.58 KCAL/MOL
REMARK 927      BINDING AFFINITY PREDICTED BY RF-SCORE:    0.00 PKD
ROOT
HETATM    1  C   UNL     1     -11.154  15.630  64.707  1.00  0.00    -0.426 C  
HETATM    2  C   UNL     1     -11.079  14.479  65.714  1.00  0.00    -0.324 C  
HETATM    3  C   UNL     1     -12.408  13.719  65.726  1.00  0.00    -0.523 C  
ENDROOT
BRANCH   2   4
HETATM    4  N   UNL     1     -10.012  13.516  65.407  1.00  0.00    -0.488 NA 
HETATM    5  H   UNL     1      -9.264  13.732  64.747  1.00  0.00     0.000 HD 
BRANCH   4   6
HETATM    6  C   UNL     1     -10.085  12.220  66.109  1.00  0.00    -0.245 C  
HETATM    7  C   UNL     1      -9.293  11.140  65.365  1.00  0.00    -0.243 C  
BRANCH   6   8
HETATM    8  C   UNL     1      -9.529  12.345  67.552  1.00  0.00    -0.187 C  
BRANCH   8   9
HETATM    9  C   UNL     1     -10.323  11.592  68.599  1.00  0.00    -0.226 A  
HETATM   10  C   UNL     1      -9.859  10.374  69.114  1.00  0.00    -0.237 A  
HETATM   11  C   UNL     1     -10.589   9.695  70.094  1.00  0.00    -0.320 A  
HETATM   12  C   UNL     1     -11.790  10.229  70.559  1.00  0.00    -0.329 A  
HETATM   13  C   UNL     1     -12.267  11.437  70.049  1.00  0.00    -0.377 A  
HETATM   14  I   UNL     1     -12.871   9.228  72.024  1.00  0.00    -0.495 I  
HETATM   15  C   UNL     1     -11.534  12.116  69.076  1.00  0.00    -0.351 A  
ENDBRANCH   8   9
ENDBRANCH   6   8
ENDBRANCH   4   6
ENDBRANCH   2   4
TORSDOF 4
ENDMDL
MODEL       68
REMARK 921   NORMALIZED FREE ENERGY PREDICTED BY IDOCK:   -3.66 KCAL/MOL
REMARK 922        TOTAL FREE ENERGY PREDICTED BY IDOCK:   -5.29 KCAL/MOL
REMARK 923 INTER-LIGAND FREE ENERGY PREDICTED BY IDOCK:   -4.83 KCAL/MOL
REMARK 924 INTRA-LIGAND FREE ENERGY PREDICTED BY IDOCK:   -0.46 KCAL/MOL
REMARK 927      BINDING AFFINITY PREDICTED BY RF-SCORE:    0.00 PKD
ROOT
HETATM    1  C   UNL     1      -8.528   7.668  70.156  1.00  0.00    -0.138 C  
HETATM    2  C   UNL     1      -8.484   9.082  70.741  1.00  0.00    -0.200 C  
HETATM    3  C   UNL     1      -8.250  10.097  69.618  1.00  0.00    -0.176 C  
ENDROOT
BRANCH   2   4
HETATM    4  N   UNL     1      -9.725   9.455  71.434  1.00  0.00    -0.232 NA 
HETATM    5  H   UNL     1      -9.808  10.325  71.962  1.00  0.00     0.000 HD 
BRANCH   4   6
HETATM    6  C   UNL     1     -10.844   8.500  71.322  1.00  0.00    -0.251 C  
HETATM    7  C   UNL     1     -11.398   8.127  72.702  1.00  0.00    -0.450 C  
BRANCH   6   8
HETATM    8  C   UNL     1     -11.993   9.096  70.466  1.00  0.00    -0.081 C  
BRANCH   8   9
HETATM    9  C   UNL     1     -12.276  10.561  70.726  1.00  0.00    -0.468 A  
HETATM   10  C   UNL     1     -13.042  10.960  71.829  1.00  0.00    -0.564 A  
HETATM   11  C   UNL     1     -13.284  12.314  72.072  1.00  0.00    -0.508 A  
HETATM   12  C   UNL     1     -12.764  13.278  71.208  1.00  0.00    -0.323 A  
HETATM   13  C   UNL     1     -12.006  12.894  70.101  1.00  0.00    -0.373 A  
HETATM   14  I   UNL     1     -13.111  15.293  71.572  1.00  0.00    -0.641 I  
HETATM   15  C   UNL     1     -11.762  11.541  69.864  1.00  0.00    -0.420 A  
ENDBRANCH   8   9
ENDBRANCH   6   8
ENDBRANCH   4   6
ENDBRANCH   2   4
TORSDOF 4
ENDMDL
MODEL       69
REMARK 921   NORMALIZED FREE ENERGY PREDICTED BY IDOCK:   -3.65 KCAL/MOL
REMARK 922        TOTAL FREE ENERGY PREDICTED BY IDOCK:   -5.27 KCAL/MOL
REMARK 923 INTER-LIGAND FREE ENERGY PREDICTED BY IDOCK:   -4.84 KCAL/MOL
REMARK 924 INTRA-LIGAND FREE ENERGY PREDICTED BY IDOCK:   -0.43 KCAL/MOL
REMARK 927      BINDING AFFINITY PREDICTED BY RF-SCORE:    0.00 PKD
ROOT
HETATM    1  C   UNL     1     -10.485   8.881  69.316  1.00  0.00    -0.234 C  
HETATM    2  C   UNL     1     -11.231  10.188  69.593  1.00  0.00    -0.261 C  
HETATM    3  C   UNL     1     -11.788  10.171  71.020  1.00  0.00    -0.475 C  
ENDROOT
BRANCH   2   4
HETATM    4  N   UNL     1     -10.377  11.377  69.457  1.00  0.00    -0.438 NA 
HETATM    5  H   UNL     1      -9.654  11.602  70.140  1.00  0.00     0.000 HD 
BRANCH   4   6
HETATM    6  C   UNL     1     -10.628  12.224  68.275  1.00  0.00    -0.227 C  
HETATM    7  C   UNL     1     -10.759  11.378  67.003  1.00  0.00    -0.304 C  
BRANCH   6   8
HETATM    8  C   UNL     1     -11.925  13.055  68.458  1.00  0.00    -0.296 C  
BRANCH   8   9
HETATM    9  C   UNL     1     -12.037  13.760  69.794  1.00  0.00    -0.400 A  
HETATM   10  C   UNL     1     -11.165  14.803  70.131  1.00  0.00    -0.256 A  
HETATM   11  C   UNL     1     -11.287  15.461  71.358  1.00  0.00    -0.449 A  
HETATM   12  C   UNL     1     -12.281  15.072  72.258  1.00  0.00    -0.357 A  
HETATM   13  C   UNL     1     -13.150  14.029  71.938  1.00  0.00    -0.467 A  
HETATM   14  I   UNL     1     -12.472  16.054  74.078  1.00  0.00    -0.541 I  
HETATM   15  C   UNL     1     -13.030  13.379  70.710  1.00  0.00    -0.131 A  
ENDBRANCH   8   9
ENDBRANCH   6   8
ENDBRANCH   4   6
ENDBRANCH   2   4
TORSDOF 4
ENDMDL
MODEL       70
REMARK 921   NORMALIZED FREE ENERGY PREDICTED BY IDOCK:   -3.64 KCAL/MOL
REMARK 922        TOTAL FREE ENERGY PREDICTED BY IDOCK:   -5.26 KCAL/MOL
REMARK 923 INTER-LIGAND FREE ENERGY PREDICTED BY IDOCK:   -5.11 KCAL/MOL
REMARK 924 INTRA-LIGAND FREE ENERGY PREDICTED BY IDOCK:   -0.15 KCAL/MOL
REMARK 927      BINDING AFFINITY PREDICTED BY RF-SCORE:    0.00 PKD
ROOT
HETATM    1  C   UNL     1     -12.316  16.179  72.653  1.00  0.00    -0.574 C  
HETATM    2  C   UNL     1     -12.500  14.989  71.709  1.00  0.00    -0.339 C  
HETATM    3  C   UNL     1     -13.561  14.042  72.275  1.00  0.00    -0.622 C  
ENDROOT
BRANCH   2   4
HETATM    4  N   UNL     1     -12.923  15.386  70.359  1.00  0.00    -0.665 NA 
HETATM    5  H   UNL     1     -13.896  15.606  70.142  1.00  0.00     0.000 HD 
BRANCH   4   6
HETATM    6  C   UNL     1     -11.860  15.449  69.337  1.00  0.00    -0.351 C  
HETATM    7  C   UNL     1     -10.469  15.374  69.977  1.00  0.00    -0.301 C  
BRANCH   6   8
HETATM    8  C   UNL     1     -12.007  14.288  68.319  1.00  0.00    -0.346 C  
BRANCH   8   9
HETATM    9  C   UNL     1     -11.361  12.988  68.750  1.00  0.00    -0.332 A  
HETATM   10  C   UNL     1     -11.970  12.165  69.707  1.00  0.00    -0.372 A  
HETATM   11  C   UNL     1     -11.377  10.958  70.085  1.00  0.00    -0.367 A  
HETATM   12  C   UNL     1     -10.166  10.570  69.511  1.00  0.00    -0.200 A  
HETATM   13  C   UNL     1      -9.545  11.384  68.563  1.00  0.00    -0.190 A  
HETATM   14  I   UNL     1      -9.287   8.771  70.063  1.00  0.00    -0.225 I  
HETATM   15  C   UNL     1     -10.142  12.585  68.183  1.00  0.00    -0.225 A  
ENDBRANCH   8   9
ENDBRANCH   6   8
ENDBRANCH   4   6
ENDBRANCH   2   4
TORSDOF 4
ENDMDL
MODEL       71
REMARK 921   NORMALIZED FREE ENERGY PREDICTED BY IDOCK:   -3.64 KCAL/MOL
REMARK 922        TOTAL FREE ENERGY PREDICTED BY IDOCK:   -5.25 KCAL/MOL
REMARK 923 INTER-LIGAND FREE ENERGY PREDICTED BY IDOCK:   -4.52 KCAL/MOL
REMARK 924 INTRA-LIGAND FREE ENERGY PREDICTED BY IDOCK:   -0.73 KCAL/MOL
REMARK 927      BINDING AFFINITY PREDICTED BY RF-SCORE:    0.00 PKD
ROOT
HETATM    1  C   UNL     1      -8.541  15.485  68.583  1.00  0.00    -0.179 C  
HETATM    2  C   UNL     1      -9.476  16.462  67.868  1.00  0.00    -0.223 C  
HETATM    3  C   UNL     1      -9.049  16.607  66.404  1.00  0.00    -0.325 C  
ENDROOT
BRANCH   2   4
HETATM    4  N   UNL     1     -10.881  16.030  67.887  1.00  0.00    -0.326 NA 
HETATM    5  H   UNL     1     -11.594  16.488  67.319  1.00  0.00     0.000 HD 
BRANCH   4   6
HETATM    6  C   UNL     1     -11.199  14.894  68.774  1.00  0.00    -0.275 C  
HETATM    7  C   UNL     1     -11.849  15.372  70.077  1.00  0.00    -0.368 C  
BRANCH   6   8
HETATM    8  C   UNL     1     -12.159  13.899  68.071  1.00  0.00    -0.318 C  
BRANCH   8   9
HETATM    9  C   UNL     1     -11.555  13.170  66.889  1.00  0.00    -0.417 A  
HETATM   10  C   UNL     1     -12.187  13.183  65.638  1.00  0.00    -0.521 A  
HETATM   11  C   UNL     1     -11.614  12.523  64.548  1.00  0.00    -0.406 A  
HETATM   12  C   UNL     1     -10.406  11.842  64.705  1.00  0.00    -0.281 A  
HETATM   13  C   UNL     1      -9.770  11.816  65.947  1.00  0.00    -0.259 A  
HETATM   14  I   UNL     1      -9.545  10.871  63.084  1.00  0.00    -0.389 I  
HETATM   15  C   UNL     1     -10.342  12.480  67.032  1.00  0.00    -0.236 A  
ENDBRANCH   8   9
ENDBRANCH   6   8
ENDBRANCH   4   6
ENDBRANCH   2   4
TORSDOF 4
ENDMDL
MODEL       72
REMARK 921   NORMALIZED FREE ENERGY PREDICTED BY IDOCK:   -3.62 KCAL/MOL
REMARK 922        TOTAL FREE ENERGY PREDICTED BY IDOCK:   -5.23 KCAL/MOL
REMARK 923 INTER-LIGAND FREE ENERGY PREDICTED BY IDOCK:   -4.62 KCAL/MOL
REMARK 924 INTRA-LIGAND FREE ENERGY PREDICTED BY IDOCK:   -0.61 KCAL/MOL
REMARK 927      BINDING AFFINITY PREDICTED BY RF-SCORE:    0.00 PKD
ROOT
HETATM    1  C   UNL     1     -12.342  13.768  70.880  1.00  0.00    -0.456 C  
HETATM    2  C   UNL     1     -11.862  14.124  69.471  1.00  0.00    -0.322 C  
HETATM    3  C   UNL     1     -12.020  15.629  69.237  1.00  0.00    -0.338 C  
ENDROOT
BRANCH   2   4
HETATM    4  N   UNL     1     -10.452  13.778  69.240  1.00  0.00    -0.436 NA 
HETATM    5  H   UNL     1      -9.698  14.186  69.793  1.00  0.00     0.000 HD 
BRANCH   4   6
HETATM    6  C   UNL     1     -10.190  12.804  68.162  1.00  0.00    -0.241 C  
HETATM    7  C   UNL     1     -11.492  12.370  67.478  1.00  0.00    -0.410 C  
BRANCH   6   8
HETATM    8  C   UNL     1      -9.240  13.408  67.094  1.00  0.00    -0.240 C  
BRANCH   8   9
HETATM    9  C   UNL     1      -9.405  14.897  66.875  1.00  0.00    -0.258 A  
HETATM   10  C   UNL     1     -10.332  15.388  65.946  1.00  0.00    -0.359 A  
HETATM   11  C   UNL     1     -10.492  16.764  65.762  1.00  0.00    -0.305 A  
HETATM   12  C   UNL     1      -9.719  17.657  66.505  1.00  0.00    -0.304 A  
HETATM   13  C   UNL     1      -8.786  17.181  67.428  1.00  0.00    -0.218 A  
HETATM   14  I   UNL     1      -9.961  19.703  66.244  1.00  0.00    -0.563 I  
HETATM   15  C   UNL     1      -8.634  15.807  67.613  1.00  0.00    -0.173 A  
ENDBRANCH   8   9
ENDBRANCH   6   8
ENDBRANCH   4   6
ENDBRANCH   2   4
TORSDOF 4
ENDMDL
MODEL       73
REMARK 921   NORMALIZED FREE ENERGY PREDICTED BY IDOCK:   -3.61 KCAL/MOL
REMARK 922        TOTAL FREE ENERGY PREDICTED BY IDOCK:   -5.22 KCAL/MOL
REMARK 923 INTER-LIGAND FREE ENERGY PREDICTED BY IDOCK:   -4.76 KCAL/MOL
REMARK 924 INTRA-LIGAND FREE ENERGY PREDICTED BY IDOCK:   -0.46 KCAL/MOL
REMARK 927      BINDING AFFINITY PREDICTED BY RF-SCORE:    0.00 PKD
ROOT
HETATM    1  C   UNL     1      -8.369  12.661  68.140  1.00  0.00    -0.175 C  
HETATM    2  C   UNL     1      -7.948  11.243  68.533  1.00  0.00    -0.145 C  
HETATM    3  C   UNL     1      -6.653  11.296  69.347  1.00  0.00    -0.116 C  
ENDROOT
BRANCH   2   4
HETATM    4  N   UNL     1      -8.960  10.547  69.340  1.00  0.00    -0.355 NA 
HETATM    5  H   UNL     1      -8.799  10.310  70.320  1.00  0.00     0.000 HD 
BRANCH   4   6
HETATM    6  C   UNL     1     -10.221  10.210  68.652  1.00  0.00    -0.176 C  
HETATM    7  C   UNL     1     -10.063   8.959  67.782  1.00  0.00    -0.263 C  
BRANCH   6   8
HETATM    8  C   UNL     1     -11.359   9.966  69.678  1.00  0.00    -0.212 C  
BRANCH   8   9
HETATM    9  C   UNL     1     -11.957  11.227  70.267  1.00  0.00    -0.466 A  
HETATM   10  C   UNL     1     -12.725  11.179  71.438  1.00  0.00    -0.524 A  
HETATM   11  C   UNL     1     -13.258  12.349  71.985  1.00  0.00    -0.514 A  
HETATM   12  C   UNL     1     -13.029  13.575  71.359  1.00  0.00    -0.339 A  
HETATM   13  C   UNL     1     -12.272  13.636  70.188  1.00  0.00    -0.413 A  
HETATM   14  I   UNL     1     -13.809  15.318  72.175  1.00  0.00    -0.681 I  
HETATM   15  C   UNL     1     -11.737  12.466  69.647  1.00  0.00    -0.377 A  
ENDBRANCH   8   9
ENDBRANCH   6   8
ENDBRANCH   4   6
ENDBRANCH   2   4
TORSDOF 4
ENDMDL
MODEL       74
REMARK 921   NORMALIZED FREE ENERGY PREDICTED BY IDOCK:   -3.61 KCAL/MOL
REMARK 922        TOTAL FREE ENERGY PREDICTED BY IDOCK:   -5.22 KCAL/MOL
REMARK 923 INTER-LIGAND FREE ENERGY PREDICTED BY IDOCK:   -4.52 KCAL/MOL
REMARK 924 INTRA-LIGAND FREE ENERGY PREDICTED BY IDOCK:   -0.70 KCAL/MOL
REMARK 927      BINDING AFFINITY PREDICTED BY RF-SCORE:    0.00 PKD
ROOT
HETATM    1  C   UNL     1      -9.049   7.860  69.669  1.00  0.00    -0.153 C  
HETATM    2  C   UNL     1      -8.534   9.084  70.430  1.00  0.00    -0.182 C  
HETATM    3  C   UNL     1      -7.936  10.091  69.442  1.00  0.00    -0.145 C  
ENDROOT
BRANCH   2   4
HETATM    4  N   UNL     1      -9.586   9.771  71.192  1.00  0.00    -0.269 NA 
HETATM    5  H   UNL     1      -9.383  10.571  71.792  1.00  0.00     0.000 HD 
BRANCH   4   6
HETATM    6  C   UNL     1     -10.953   9.236  71.039  1.00  0.00    -0.320 C  
HETATM    7  C   UNL     1     -11.363   8.403  72.258  1.00  0.00    -0.448 C  
BRANCH   6   8
HETATM    8  C   UNL     1     -11.976  10.388  70.852  1.00  0.00    -0.478 C  
BRANCH   8   9
HETATM    9  C   UNL     1     -11.734  11.253  69.633  1.00  0.00    -0.420 A  
HETATM   10  C   UNL     1     -11.826  12.648  69.712  1.00  0.00    -0.379 A  
HETATM   11  C   UNL     1     -11.583  13.441  68.587  1.00  0.00    -0.362 A  
HETATM   12  C   UNL     1     -11.253  12.838  67.373  1.00  0.00    -0.294 A  
HETATM   13  C   UNL     1     -11.166  11.448  67.278  1.00  0.00    -0.370 A  
HETATM   14  I   UNL     1     -10.880  14.012  65.700  1.00  0.00    -0.353 I  
HETATM   15  C   UNL     1     -11.403  10.661  68.404  1.00  0.00    -0.348 A  
ENDBRANCH   8   9
ENDBRANCH   6   8
ENDBRANCH   4   6
ENDBRANCH   2   4
TORSDOF 4
ENDMDL
MODEL       75
REMARK 921   NORMALIZED FREE ENERGY PREDICTED BY IDOCK:   -3.59 KCAL/MOL
REMARK 922        TOTAL FREE ENERGY PREDICTED BY IDOCK:   -5.19 KCAL/MOL
REMARK 923 INTER-LIGAND FREE ENERGY PREDICTED BY IDOCK:   -4.57 KCAL/MOL
REMARK 924 INTRA-LIGAND FREE ENERGY PREDICTED BY IDOCK:   -0.63 KCAL/MOL
REMARK 927      BINDING AFFINITY PREDICTED BY RF-SCORE:    0.00 PKD
ROOT
HETATM    1  C   UNL     1      -9.809   9.543  70.365  1.00  0.00    -0.329 C  
HETATM    2  C   UNL     1     -11.006  10.463  70.115  1.00  0.00    -0.300 C  
HETATM    3  C   UNL     1     -10.926  11.040  68.699  1.00  0.00    -0.271 C  
ENDROOT
BRANCH   2   4
HETATM    4  N   UNL     1     -12.297   9.774  70.249  1.00  0.00    -0.486 NA 
HETATM    5  H   UNL     1     -12.990   9.777  69.500  1.00  0.00     0.000 HD 
BRANCH   4   6
HETATM    6  C   UNL     1     -12.532   9.077  71.529  1.00  0.00    -0.331 C  
HETATM    7  C   UNL     1     -13.568   9.817  72.383  1.00  0.00    -0.328 C  
BRANCH   6   8
HETATM    8  C   UNL     1     -13.028   7.628  71.283  1.00  0.00    -0.287 C  
BRANCH   8   9
HETATM    9  C   UNL     1     -11.925   6.599  71.142  1.00  0.00    -0.412 A  
HETATM   10  C   UNL     1     -11.373   6.306  69.888  1.00  0.00    -0.504 A  
HETATM   11  C   UNL     1     -10.343   5.369  69.769  1.00  0.00    -0.375 A  
HETATM   12  C   UNL     1      -9.864   4.716  70.906  1.00  0.00    -0.202 A  
HETATM   13  C   UNL     1     -10.411   4.994  72.159  1.00  0.00    -0.276 A  
HETATM   14  I   UNL     1      -8.325   3.332  70.735  1.00  0.00    -0.114 I  
HETATM   15  C   UNL     1     -11.435   5.934  72.275  1.00  0.00    -0.351 A  
ENDBRANCH   8   9
ENDBRANCH   6   8
ENDBRANCH   4   6
ENDBRANCH   2   4
TORSDOF 4
ENDMDL
MODEL       76
REMARK 921   NORMALIZED FREE ENERGY PREDICTED BY IDOCK:   -3.59 KCAL/MOL
REMARK 922        TOTAL FREE ENERGY PREDICTED BY IDOCK:   -5.19 KCAL/MOL
REMARK 923 INTER-LIGAND FREE ENERGY PREDICTED BY IDOCK:   -4.59 KCAL/MOL
REMARK 924 INTRA-LIGAND FREE ENERGY PREDICTED BY IDOCK:   -0.60 KCAL/MOL
REMARK 927      BINDING AFFINITY PREDICTED BY RF-SCORE:    0.00 PKD
ROOT
HETATM    1  C   UNL     1      -9.678   7.952  66.804  1.00  0.00    -0.303 C  
HETATM    2  C   UNL     1      -9.935   9.419  66.455  1.00  0.00    -0.276 C  
HETATM    3  C   UNL     1      -8.735  10.268  66.884  1.00  0.00    -0.131 C  
ENDROOT
BRANCH   2   4
HETATM    4  N   UNL     1     -10.151   9.638  65.018  1.00  0.00    -0.296 NA 
HETATM    5  H   UNL     1     -10.436   8.883  64.394  1.00  0.00     0.000 HD 
BRANCH   4   6
HETATM    6  C   UNL     1      -9.932  11.014  64.530  1.00  0.00    -0.310 C  
HETATM    7  C   UNL     1      -9.528  11.021  63.051  1.00  0.00    -0.379 C  
BRANCH   6   8
HETATM    8  C   UNL     1     -11.214  11.869  64.703  1.00  0.00    -0.364 C  
BRANCH   8   9
HETATM    9  C   UNL     1     -11.026  13.126  65.528  1.00  0.00    -0.296 A  
HETATM   10  C   UNL     1     -10.324  14.224  65.014  1.00  0.00    -0.448 A  
HETATM   11  C   UNL     1     -10.171  15.387  65.774  1.00  0.00    -0.378 A  
HETATM   12  C   UNL     1     -10.716  15.453  67.057  1.00  0.00    -0.321 A  
HETATM   13  C   UNL     1     -11.411  14.364  67.584  1.00  0.00    -0.348 A  
HETATM   14  I   UNL     1     -10.501  17.183  68.186  1.00  0.00    -0.332 I  
HETATM   15  C   UNL     1     -11.567  13.207  66.820  1.00  0.00    -0.414 A  
ENDBRANCH   8   9
ENDBRANCH   6   8
ENDBRANCH   4   6
ENDBRANCH   2   4
TORSDOF 4
ENDMDL
MODEL       77
REMARK 921   NORMALIZED FREE ENERGY PREDICTED BY IDOCK:   -3.58 KCAL/MOL
REMARK 922        TOTAL FREE ENERGY PREDICTED BY IDOCK:   -5.18 KCAL/MOL
REMARK 923 INTER-LIGAND FREE ENERGY PREDICTED BY IDOCK:   -4.73 KCAL/MOL
REMARK 924 INTRA-LIGAND FREE ENERGY PREDICTED BY IDOCK:   -0.45 KCAL/MOL
REMARK 927      BINDING AFFINITY PREDICTED BY RF-SCORE:    0.00 PKD
ROOT
HETATM    1  C   UNL     1      -6.226  17.599  68.490  1.00  0.00    -0.182 C  
HETATM    2  C   UNL     1      -7.241  18.742  68.584  1.00  0.00    -0.303 C  
HETATM    3  C   UNL     1      -6.531  20.027  69.017  1.00  0.00    -0.358 C  
ENDROOT
BRANCH   2   4
HETATM    4  N   UNL     1      -7.922  19.011  67.310  1.00  0.00    -0.252 NA 
HETATM    5  H   UNL     1      -7.413  19.072  66.428  1.00  0.00     0.000 HD 
BRANCH   4   6
HETATM    6  C   UNL     1      -9.386  19.186  67.381  1.00  0.00    -0.304 C  
HETATM    7  C   UNL     1      -9.773  20.667  67.289  1.00  0.00    -0.562 C  
BRANCH   6   8
HETATM    8  C   UNL     1     -10.089  18.412  66.234  1.00  0.00    -0.409 C  
BRANCH   8   9
HETATM    9  C   UNL     1     -10.365  16.954  66.536  1.00  0.00    -0.299 A  
HETATM   10  C   UNL     1     -10.105  15.962  65.582  1.00  0.00    -0.388 A  
HETATM   11  C   UNL     1     -10.346  14.616  65.875  1.00  0.00    -0.334 A  
HETATM   12  C   UNL     1     -10.853  14.258  67.124  1.00  0.00    -0.296 A  
HETATM   13  C   UNL     1     -11.124  15.238  68.080  1.00  0.00    -0.309 A  
HETATM   14  I   UNL     1     -11.201  12.259  67.567  1.00  0.00    -0.428 I  
HETATM   15  C   UNL     1     -10.878  16.579  67.787  1.00  0.00    -0.304 A  
ENDBRANCH   8   9
ENDBRANCH   6   8
ENDBRANCH   4   6
ENDBRANCH   2   4
TORSDOF 4
ENDMDL
MODEL       78
REMARK 921   NORMALIZED FREE ENERGY PREDICTED BY IDOCK:   -3.57 KCAL/MOL
REMARK 922        TOTAL FREE ENERGY PREDICTED BY IDOCK:   -5.17 KCAL/MOL
REMARK 923 INTER-LIGAND FREE ENERGY PREDICTED BY IDOCK:   -4.73 KCAL/MOL
REMARK 924 INTRA-LIGAND FREE ENERGY PREDICTED BY IDOCK:   -0.44 KCAL/MOL
REMARK 927      BINDING AFFINITY PREDICTED BY RF-SCORE:    0.00 PKD
ROOT
HETATM    1  C   UNL     1      -6.614  16.281  67.054  1.00  0.00    -0.193 C  
HETATM    2  C   UNL     1      -7.223  17.603  66.582  1.00  0.00    -0.229 C  
HETATM    3  C   UNL     1      -6.331  18.226  65.505  1.00  0.00    -0.285 C  
ENDROOT
BRANCH   2   4
HETATM    4  N   UNL     1      -8.570  17.445  66.016  1.00  0.00    -0.534 NA 
HETATM    5  H   UNL     1      -8.726  16.995  65.114  1.00  0.00     0.000 HD 
BRANCH   4   6
HETATM    6  C   UNL     1      -9.682  17.975  66.828  1.00  0.00    -0.323 C  
HETATM    7  C   UNL     1     -10.522  18.980  66.032  1.00  0.00    -0.530 C  
BRANCH   6   8
HETATM    8  C   UNL     1     -10.605  16.825  67.314  1.00  0.00    -0.275 C  
BRANCH   8   9
HETATM    9  C   UNL     1     -10.551  15.573  66.464  1.00  0.00    -0.307 A  
HETATM   10  C   UNL     1     -11.250  15.497  65.252  1.00  0.00    -0.278 A  
HETATM   11  C   UNL     1     -11.181  14.345  64.464  1.00  0.00    -0.314 A  
HETATM   12  C   UNL     1     -10.415  13.259  64.889  1.00  0.00    -0.371 A  
HETATM   13  C   UNL     1      -9.720  13.319  66.098  1.00  0.00    -0.258 A  
HETATM   14  I   UNL     1     -10.300  11.549  63.716  1.00  0.00    -0.570 I  
HETATM   15  C   UNL     1      -9.787  14.472  66.879  1.00  0.00    -0.265 A  
ENDBRANCH   8   9
ENDBRANCH   6   8
ENDBRANCH   4   6
ENDBRANCH   2   4
TORSDOF 4
ENDMDL
MODEL       79
REMARK 921   NORMALIZED FREE ENERGY PREDICTED BY IDOCK:   -3.57 KCAL/MOL
REMARK 922        TOTAL FREE ENERGY PREDICTED BY IDOCK:   -5.17 KCAL/MOL
REMARK 923 INTER-LIGAND FREE ENERGY PREDICTED BY IDOCK:   -4.78 KCAL/MOL
REMARK 924 INTRA-LIGAND FREE ENERGY PREDICTED BY IDOCK:   -0.38 KCAL/MOL
REMARK 927      BINDING AFFINITY PREDICTED BY RF-SCORE:    0.00 PKD
ROOT
HETATM    1  C   UNL     1     -12.125  14.459  64.336  1.00  0.00    -0.491 C  
HETATM    2  C   UNL     1     -12.182  12.997  64.786  1.00  0.00    -0.435 C  
HETATM    3  C   UNL     1     -12.440  12.095  63.577  1.00  0.00    -0.666 C  
ENDROOT
BRANCH   2   4
HETATM    4  N   UNL     1     -10.939  12.546  65.428  1.00  0.00    -0.286 NA 
HETATM    5  H   UNL     1     -10.026  12.909  65.153  1.00  0.00     0.000 HD 
BRANCH   4   6
HETATM    6  C   UNL     1     -11.089  11.537  66.495  1.00  0.00    -0.282 C  
HETATM    7  C   UNL     1     -10.234  10.296  66.210  1.00  0.00    -0.287 C  
BRANCH   6   8
HETATM    8  C   UNL     1     -10.676  12.124  67.870  1.00  0.00    -0.237 C  
BRANCH   8   9
HETATM    9  C   UNL     1     -10.544  13.633  67.896  1.00  0.00    -0.255 A  
HETATM   10  C   UNL     1      -9.357  14.257  67.490  1.00  0.00    -0.199 A  
HETATM   11  C   UNL     1      -9.250  15.651  67.499  1.00  0.00    -0.203 A  
HETATM   12  C   UNL     1     -10.330  16.426  67.922  1.00  0.00    -0.286 A  
HETATM   13  C   UNL     1     -11.515  15.817  68.337  1.00  0.00    -0.367 A  
HETATM   14  I   UNL     1     -10.179  18.498  67.926  1.00  0.00    -0.430 I  
HETATM   15  C   UNL     1     -11.620  14.426  68.320  1.00  0.00    -0.359 A  
ENDBRANCH   8   9
ENDBRANCH   6   8
ENDBRANCH   4   6
ENDBRANCH   2   4
TORSDOF 4
ENDMDL
MODEL       80
REMARK 921   NORMALIZED FREE ENERGY PREDICTED BY IDOCK:   -3.57 KCAL/MOL
REMARK 922        TOTAL FREE ENERGY PREDICTED BY IDOCK:   -5.16 KCAL/MOL
REMARK 923 INTER-LIGAND FREE ENERGY PREDICTED BY IDOCK:   -4.61 KCAL/MOL
REMARK 924 INTRA-LIGAND FREE ENERGY PREDICTED BY IDOCK:   -0.55 KCAL/MOL
REMARK 927      BINDING AFFINITY PREDICTED BY RF-SCORE:    0.00 PKD
ROOT
HETATM    1  C   UNL     1     -13.116  10.023  71.933  1.00  0.00    -0.563 C  
HETATM    2  C   UNL     1     -11.968   9.551  71.039  1.00  0.00    -0.328 C  
HETATM    3  C   UNL     1     -11.511  10.701  70.136  1.00  0.00    -0.411 C  
ENDROOT
BRANCH   2   4
HETATM    4  N   UNL     1     -10.800   9.085  71.801  1.00  0.00    -0.357 NA 
HETATM    5  H   UNL     1     -10.151   9.736  72.244  1.00  0.00     0.000 HD 
BRANCH   4   6
HETATM    6  C   UNL     1     -10.623   7.623  71.887  1.00  0.00    -0.218 C  
HETATM    7  C   UNL     1     -10.811   7.124  73.324  1.00  0.00    -0.378 C  
BRANCH   6   8
HETATM    8  C   UNL     1     -11.634   6.890  70.966  1.00  0.00    -0.374 C  
BRANCH   8   9
HETATM    9  C   UNL     1     -11.015   6.227  69.754  1.00  0.00    -0.444 A  
HETATM   10  C   UNL     1     -11.268   6.709  68.463  1.00  0.00    -0.227 A  
HETATM   11  C   UNL     1     -10.678   6.102  67.351  1.00  0.00    -0.403 A  
HETATM   12  C   UNL     1      -9.836   5.004  67.525  1.00  0.00    -0.165 A  
HETATM   13  C   UNL     1      -9.582   4.508  68.805  1.00  0.00    -0.227 A  
HETATM   14  I   UNL     1      -8.948   4.106  65.876  1.00  0.00    -0.155 I  
HETATM   15  C   UNL     1     -10.168   5.120  69.913  1.00  0.00    -0.361 A  
ENDBRANCH   8   9
ENDBRANCH   6   8
ENDBRANCH   4   6
ENDBRANCH   2   4
TORSDOF 4
ENDMDL
MODEL       81
REMARK 921   NORMALIZED FREE ENERGY PREDICTED BY IDOCK:   -3.56 KCAL/MOL
REMARK 922        TOTAL FREE ENERGY PREDICTED BY IDOCK:   -5.15 KCAL/MOL
REMARK 923 INTER-LIGAND FREE ENERGY PREDICTED BY IDOCK:   -5.08 KCAL/MOL
REMARK 924 INTRA-LIGAND FREE ENERGY PREDICTED BY IDOCK:   -0.08 KCAL/MOL
REMARK 927      BINDING AFFINITY PREDICTED BY RF-SCORE:    0.00 PKD
ROOT
HETATM    1  C   UNL     1     -11.673  14.209  69.843  1.00  0.00    -0.372 C  
HETATM    2  C   UNL     1     -11.551  13.470  68.508  1.00  0.00    -0.333 C  
HETATM    3  C   UNL     1     -11.989  12.013  68.683  1.00  0.00    -0.290 C  
ENDROOT
BRANCH   2   4
HETATM    4  N   UNL     1     -12.376  14.064  67.446  1.00  0.00    -0.529 NA 
HETATM    5  H   UNL     1     -13.317  14.413  67.626  1.00  0.00     0.000 HD 
BRANCH   4   6
HETATM    6  C   UNL     1     -11.761  14.127  66.106  1.00  0.00    -0.393 C  
HETATM    7  C   UNL     1     -10.234  14.031  66.190  1.00  0.00    -0.308 C  
BRANCH   6   8
HETATM    8  C   UNL     1     -12.286  12.977  65.206  1.00  0.00    -0.537 C  
BRANCH   8   9
HETATM    9  C   UNL     1     -11.230  11.981  64.776  1.00  0.00    -0.373 A  
HETATM   10  C   UNL     1     -10.683  12.025  63.487  1.00  0.00    -0.513 A  
HETATM   11  C   UNL     1      -9.695  11.113  63.104  1.00  0.00    -0.401 A  
HETATM   12  C   UNL     1      -9.252  10.149  64.010  1.00  0.00    -0.272 A  
HETATM   13  C   UNL     1      -9.794  10.090  65.295  1.00  0.00    -0.388 A  
HETATM   14  I   UNL     1      -7.775   8.801  63.449  1.00  0.00    -0.152 I  
HETATM   15  C   UNL     1     -10.776  11.005  65.675  1.00  0.00    -0.217 A  
ENDBRANCH   8   9
ENDBRANCH   6   8
ENDBRANCH   4   6
ENDBRANCH   2   4
TORSDOF 4
ENDMDL
MODEL       82
REMARK 921   NORMALIZED FREE ENERGY PREDICTED BY IDOCK:   -3.54 KCAL/MOL
REMARK 922        TOTAL FREE ENERGY PREDICTED BY IDOCK:   -5.13 KCAL/MOL
REMARK 923 INTER-LIGAND FREE ENERGY PREDICTED BY IDOCK:   -4.83 KCAL/MOL
REMARK 924 INTRA-LIGAND FREE ENERGY PREDICTED BY IDOCK:   -0.30 KCAL/MOL
REMARK 927      BINDING AFFINITY PREDICTED BY RF-SCORE:    0.00 PKD
ROOT
HETATM    1  C   UNL     1     -12.221  15.593  71.324  1.00  0.00    -0.470 C  
HETATM    2  C   UNL     1     -12.015  14.301  70.530  1.00  0.00    -0.331 C  
HETATM    3  C   UNL     1     -12.737  13.146  71.231  1.00  0.00    -0.396 C  
ENDROOT
BRANCH   2   4
HETATM    4  N   UNL     1     -12.527  14.384  69.155  1.00  0.00    -0.545 NA 
HETATM    5  H   UNL     1     -13.373  14.906  68.925  1.00  0.00     0.000 HD 
BRANCH   4   6
HETATM    6  C   UNL     1     -11.745  13.670  68.127  1.00  0.00    -0.357 C  
HETATM    7  C   UNL     1     -12.112  14.150  66.718  1.00  0.00    -0.474 C  
BRANCH   6   8
HETATM    8  C   UNL     1     -10.224  13.881  68.348  1.00  0.00    -0.243 C  
BRANCH   8   9
HETATM    9  C   UNL     1      -9.699  15.220  67.874  1.00  0.00    -0.211 A  
HETATM   10  C   UNL     1      -9.867  16.373  68.652  1.00  0.00    -0.234 A  
HETATM   11  C   UNL     1      -9.363  17.602  68.217  1.00  0.00    -0.290 A  
HETATM   12  C   UNL     1      -8.693  17.683  66.996  1.00  0.00    -0.242 A  
HETATM   13  C   UNL     1      -8.526  16.544  66.207  1.00  0.00    -0.363 A  
HETATM   14  I   UNL     1      -7.932  19.505  66.350  1.00  0.00    -0.346 I  
HETATM   15  C   UNL     1      -9.025  15.318  66.648  1.00  0.00    -0.324 A  
ENDBRANCH   8   9
ENDBRANCH   6   8
ENDBRANCH   4   6
ENDBRANCH   2   4
TORSDOF 4
ENDMDL
MODEL       83
REMARK 921   NORMALIZED FREE ENERGY PREDICTED BY IDOCK:   -3.54 KCAL/MOL
REMARK 922        TOTAL FREE ENERGY PREDICTED BY IDOCK:   -5.13 KCAL/MOL
REMARK 923 INTER-LIGAND FREE ENERGY PREDICTED BY IDOCK:   -4.62 KCAL/MOL
REMARK 924 INTRA-LIGAND FREE ENERGY PREDICTED BY IDOCK:   -0.51 KCAL/MOL
REMARK 927      BINDING AFFINITY PREDICTED BY RF-SCORE:    0.00 PKD
ROOT
HETATM    1  C   UNL     1      -6.831  17.512  67.563  1.00  0.00    -0.176 C  
HETATM    2  C   UNL     1      -7.109  18.774  66.743  1.00  0.00    -0.213 C  
HETATM    3  C   UNL     1      -5.897  19.094  65.863  1.00  0.00    -0.190 C  
ENDROOT
BRANCH   2   4
HETATM    4  N   UNL     1      -8.281  18.642  65.867  1.00  0.00    -0.477 NA 
HETATM    5  H   UNL     1      -8.202  18.684  64.850  1.00  0.00     0.000 HD 
BRANCH   4   6
HETATM    6  C   UNL     1      -9.578  18.446  66.542  1.00  0.00    -0.327 C  
HETATM    7  C   UNL     1     -10.595  19.510  66.114  1.00  0.00    -0.585 C  
BRANCH   6   8
HETATM    8  C   UNL     1     -10.158  17.042  66.222  1.00  0.00    -0.330 C  
BRANCH   8   9
HETATM    9  C   UNL     1     -10.737  16.313  67.417  1.00  0.00    -0.287 A  
HETATM   10  C   UNL     1     -10.620  16.844  68.708  1.00  0.00    -0.355 A  
HETATM   11  C   UNL     1     -11.174  16.174  69.803  1.00  0.00    -0.343 A  
HETATM   12  C   UNL     1     -11.843  14.965  69.610  1.00  0.00    -0.318 A  
HETATM   13  C   UNL     1     -11.960  14.422  68.330  1.00  0.00    -0.328 A  
HETATM   14  I   UNL     1     -12.677  13.972  71.233  1.00  0.00    -0.410 I  
HETATM   15  C   UNL     1     -11.411  15.096  67.239  1.00  0.00    -0.284 A  
ENDBRANCH   8   9
ENDBRANCH   6   8
ENDBRANCH   4   6
ENDBRANCH   2   4
TORSDOF 4
ENDMDL
MODEL       84
REMARK 921   NORMALIZED FREE ENERGY PREDICTED BY IDOCK:   -3.53 KCAL/MOL
REMARK 922        TOTAL FREE ENERGY PREDICTED BY IDOCK:   -5.13 KCAL/MOL
REMARK 923 INTER-LIGAND FREE ENERGY PREDICTED BY IDOCK:   -4.54 KCAL/MOL
REMARK 924 INTRA-LIGAND FREE ENERGY PREDICTED BY IDOCK:   -0.59 KCAL/MOL
REMARK 927      BINDING AFFINITY PREDICTED BY RF-SCORE:    0.00 PKD
ROOT
HETATM    1  C   UNL     1     -10.656   8.734  68.334  1.00  0.00    -0.185 C  
HETATM    2  C   UNL     1      -9.664   9.214  69.396  1.00  0.00    -0.170 C  
HETATM    3  C   UNL     1      -8.363   9.658  68.722  1.00  0.00    -0.111 C  
ENDROOT
BRANCH   2   4
HETATM    4  N   UNL     1     -10.172  10.345  70.186  1.00  0.00    -0.433 NA 
HETATM    5  H   UNL     1      -9.548  11.048  70.584  1.00  0.00     0.000 HD 
BRANCH   4   6
HETATM    6  C   UNL     1     -11.635  10.405  70.368  1.00  0.00    -0.337 C  
HETATM    7  C   UNL     1     -12.066   9.678  71.646  1.00  0.00    -0.481 C  
BRANCH   6   8
HETATM    8  C   UNL     1     -12.120  11.877  70.441  1.00  0.00    -0.421 C  
BRANCH   8   9
HETATM    9  C   UNL     1     -11.741  12.725  69.246  1.00  0.00    -0.376 A  
HETATM   10  C   UNL     1     -11.894  12.238  67.941  1.00  0.00    -0.358 A  
HETATM   11  C   UNL     1     -11.559  13.034  66.842  1.00  0.00    -0.419 A  
HETATM   12  C   UNL     1     -11.063  14.322  67.045  1.00  0.00    -0.312 A  
HETATM   13  C   UNL     1     -10.898  14.817  68.339  1.00  0.00    -0.248 A  
HETATM   14  I   UNL     1     -10.575  15.513  65.414  1.00  0.00    -0.402 I  
HETATM   15  C   UNL     1     -11.239  14.022  69.433  1.00  0.00    -0.283 A  
ENDBRANCH   8   9
ENDBRANCH   6   8
ENDBRANCH   4   6
ENDBRANCH   2   4
TORSDOF 4
ENDMDL
MODEL       85
REMARK 921   NORMALIZED FREE ENERGY PREDICTED BY IDOCK:   -3.53 KCAL/MOL
REMARK 922        TOTAL FREE ENERGY PREDICTED BY IDOCK:   -5.12 KCAL/MOL
REMARK 923 INTER-LIGAND FREE ENERGY PREDICTED BY IDOCK:   -4.54 KCAL/MOL
REMARK 924 INTRA-LIGAND FREE ENERGY PREDICTED BY IDOCK:   -0.58 KCAL/MOL
REMARK 927      BINDING AFFINITY PREDICTED BY RF-SCORE:    0.00 PKD
ROOT
HETATM    1  C   UNL     1      -9.439   7.425  68.536  1.00  0.00    -0.144 C  
HETATM    2  C   UNL     1      -9.683   8.874  68.963  1.00  0.00    -0.171 C  
HETATM    3  C   UNL     1      -9.080   9.111  70.351  1.00  0.00    -0.270 C  
ENDROOT
BRANCH   2   4
HETATM    4  N   UNL     1      -9.088   9.853  68.041  1.00  0.00    -0.121 NA 
HETATM    5  H   UNL     1      -8.119   9.781  67.730  1.00  0.00     0.000 HD 
BRANCH   4   6
HETATM    6  C   UNL     1      -9.974  10.944  67.593  1.00  0.00    -0.173 C  
HETATM    7  C   UNL     1     -10.052  11.003  66.063  1.00  0.00    -0.297 C  
BRANCH   6   8
HETATM    8  C   UNL     1     -11.407  10.758  68.160  1.00  0.00    -0.377 C  
BRANCH   8   9
HETATM    9  C   UNL     1     -11.822  11.802  69.175  1.00  0.00    -0.389 A  
HETATM   10  C   UNL     1     -11.816  13.164  68.848  1.00  0.00    -0.361 A  
HETATM   11  C   UNL     1     -12.219  14.120  69.785  1.00  0.00    -0.397 A  
HETATM   12  C   UNL     1     -12.624  13.716  71.057  1.00  0.00    -0.363 A  
HETATM   13  C   UNL     1     -12.627  12.363  71.399  1.00  0.00    -0.299 A  
HETATM   14  I   UNL     1     -13.234  15.133  72.449  1.00  0.00    -0.704 I  
HETATM   15  C   UNL     1     -12.230  11.411  70.459  1.00  0.00    -0.478 A  
ENDBRANCH   8   9
ENDBRANCH   6   8
ENDBRANCH   4   6
ENDBRANCH   2   4
TORSDOF 4
ENDMDL
MODEL       86
REMARK 921   NORMALIZED FREE ENERGY PREDICTED BY IDOCK:   -3.52 KCAL/MOL
REMARK 922        TOTAL FREE ENERGY PREDICTED BY IDOCK:   -5.11 KCAL/MOL
REMARK 923 INTER-LIGAND FREE ENERGY PREDICTED BY IDOCK:   -4.52 KCAL/MOL
REMARK 924 INTRA-LIGAND FREE ENERGY PREDICTED BY IDOCK:   -0.58 KCAL/MOL
REMARK 927      BINDING AFFINITY PREDICTED BY RF-SCORE:    0.00 PKD
ROOT
HETATM    1  C   UNL     1      -7.056  18.804  67.497  1.00  0.00    -0.216 C  
HETATM    2  C   UNL     1      -7.245  17.781  66.375  1.00  0.00    -0.273 C  
HETATM    3  C   UNL     1      -6.930  16.377  66.900  1.00  0.00    -0.247 C  
ENDROOT
BRANCH   2   4
HETATM    4  N   UNL     1      -8.613  17.765  65.838  1.00  0.00    -0.516 NA 
HETATM    5  H   UNL     1      -8.889  18.349  65.049  1.00  0.00     0.000 HD 
BRANCH   4   6
HETATM    6  C   UNL     1      -9.562  16.853  66.506  1.00  0.00    -0.278 C  
HETATM    7  C   UNL     1     -10.533  17.626  67.407  1.00  0.00    -0.356 C  
BRANCH   6   8
HETATM    8  C   UNL     1     -10.380  16.049  65.462  1.00  0.00    -0.415 C  
BRANCH   8   9
HETATM    9  C   UNL     1     -10.177  14.550  65.522  1.00  0.00    -0.394 A  
HETATM   10  C   UNL     1      -9.540  13.955  66.619  1.00  0.00    -0.297 A  
HETATM   11  C   UNL     1      -9.372  12.568  66.676  1.00  0.00    -0.236 A  
HETATM   12  C   UNL     1      -9.837  11.770  65.630  1.00  0.00    -0.237 A  
HETATM   13  C   UNL     1     -10.465  12.351  64.528  1.00  0.00    -0.352 A  
HETATM   14  I   UNL     1      -9.600   9.708  65.716  1.00  0.00    -0.301 I  
HETATM   15  C   UNL     1     -10.636  13.734  64.477  1.00  0.00    -0.405 A  
ENDBRANCH   8   9
ENDBRANCH   6   8
ENDBRANCH   4   6
ENDBRANCH   2   4
TORSDOF 4
ENDMDL
MODEL       87
REMARK 921   NORMALIZED FREE ENERGY PREDICTED BY IDOCK:   -3.50 KCAL/MOL
REMARK 922        TOTAL FREE ENERGY PREDICTED BY IDOCK:   -5.08 KCAL/MOL
REMARK 923 INTER-LIGAND FREE ENERGY PREDICTED BY IDOCK:   -4.59 KCAL/MOL
REMARK 924 INTRA-LIGAND FREE ENERGY PREDICTED BY IDOCK:   -0.49 KCAL/MOL
REMARK 927      BINDING AFFINITY PREDICTED BY RF-SCORE:    0.00 PKD
ROOT
HETATM    1  C   UNL     1     -10.182  17.136  67.492  1.00  0.00    -0.323 C  
HETATM    2  C   UNL     1     -10.488  15.636  67.495  1.00  0.00    -0.285 C  
HETATM    3  C   UNL     1     -11.648  15.348  68.452  1.00  0.00    -0.368 C  
ENDROOT
BRANCH   2   4
HETATM    4  N   UNL     1     -10.860  15.123  66.169  1.00  0.00    -0.326 NA 
HETATM    5  H   UNL     1     -10.772  15.692  65.327  1.00  0.00     0.000 HD 
BRANCH   4   6
HETATM    6  C   UNL     1     -11.367  13.738  66.127  1.00  0.00    -0.314 C  
HETATM    7  C   UNL     1     -12.633  13.636  65.269  1.00  0.00    -0.512 C  
BRANCH   6   8
HETATM    8  C   UNL     1     -10.293  12.776  65.554  1.00  0.00    -0.301 C  
BRANCH   8   9
HETATM    9  C   UNL     1     -10.326  11.378  66.134  1.00  0.00    -0.294 A  
HETATM   10  C   UNL     1     -10.845  11.143  67.414  1.00  0.00    -0.317 A  
HETATM   11  C   UNL     1     -10.889   9.847  67.935  1.00  0.00    -0.312 A  
HETATM   12  C   UNL     1     -10.407   8.779  67.178  1.00  0.00    -0.293 A  
HETATM   13  C   UNL     1      -9.881   9.000  65.905  1.00  0.00    -0.257 A  
HETATM   14  I   UNL     1     -10.481   6.849  67.944  1.00  0.00    -0.327 I  
HETATM   15  C   UNL     1      -9.844  10.294  65.386  1.00  0.00    -0.362 A  
ENDBRANCH   8   9
ENDBRANCH   6   8
ENDBRANCH   4   6
ENDBRANCH   2   4
TORSDOF 4
ENDMDL
MODEL       88
REMARK 921   NORMALIZED FREE ENERGY PREDICTED BY IDOCK:   -3.50 KCAL/MOL
REMARK 922        TOTAL FREE ENERGY PREDICTED BY IDOCK:   -5.08 KCAL/MOL
REMARK 923 INTER-LIGAND FREE ENERGY PREDICTED BY IDOCK:   -5.03 KCAL/MOL
REMARK 924 INTRA-LIGAND FREE ENERGY PREDICTED BY IDOCK:   -0.04 KCAL/MOL
REMARK 927      BINDING AFFINITY PREDICTED BY RF-SCORE:    0.00 PKD
ROOT
HETATM    1  C   UNL     1     -10.623   6.988  67.300  1.00  0.00    -0.395 C  
HETATM    2  C   UNL     1     -10.805   6.668  68.785  1.00  0.00    -0.267 C  
HETATM    3  C   UNL     1     -10.038   5.390  69.135  1.00  0.00    -0.293 C  
ENDROOT
BRANCH   2   4
HETATM    4  N   UNL     1     -10.322   7.740  69.667  1.00  0.00    -0.208 NA 
HETATM    5  H   UNL     1      -9.663   8.449  69.343  1.00  0.00     0.000 HD 
BRANCH   4   6
HETATM    6  C   UNL     1     -10.845   7.730  71.047  1.00  0.00    -0.239 C  
HETATM    7  C   UNL     1      -9.952   8.551  71.985  1.00  0.00    -0.383 C  
BRANCH   6   8
HETATM    8  C   UNL     1     -12.284   8.307  71.094  1.00  0.00    -0.253 C  
BRANCH   8   9
HETATM    9  C   UNL     1     -12.361   9.817  71.001  1.00  0.00    -0.422 A  
HETATM   10  C   UNL     1     -13.081  10.559  71.947  1.00  0.00    -0.567 A  
HETATM   11  C   UNL     1     -13.131  11.954  71.865  1.00  0.00    -0.474 A  
HETATM   12  C   UNL     1     -12.464  12.612  70.831  1.00  0.00    -0.278 A  
HETATM   13  C   UNL     1     -11.750  11.884  69.878  1.00  0.00    -0.383 A  
HETATM   14  I   UNL     1     -12.527  14.685  70.712  1.00  0.00    -0.478 I  
HETATM   15  C   UNL     1     -11.697  10.493  69.966  1.00  0.00    -0.394 A  
ENDBRANCH   8   9
ENDBRANCH   6   8
ENDBRANCH   4   6
ENDBRANCH   2   4
TORSDOF 4
ENDMDL
MODEL       89
REMARK 921   NORMALIZED FREE ENERGY PREDICTED BY IDOCK:   -3.49 KCAL/MOL
REMARK 922        TOTAL FREE ENERGY PREDICTED BY IDOCK:   -5.07 KCAL/MOL
REMARK 923 INTER-LIGAND FREE ENERGY PREDICTED BY IDOCK:   -4.46 KCAL/MOL
REMARK 924 INTRA-LIGAND FREE ENERGY PREDICTED BY IDOCK:   -0.61 KCAL/MOL
REMARK 927      BINDING AFFINITY PREDICTED BY RF-SCORE:    0.00 PKD
ROOT
HETATM    1  C   UNL     1     -13.989   8.872  72.330  1.00  0.00    -0.516 C  
HETATM    2  C   UNL     1     -12.846   9.344  71.429  1.00  0.00    -0.345 C  
HETATM    3  C   UNL     1     -13.016  10.834  71.119  1.00  0.00    -0.467 C  
ENDROOT
BRANCH   2   4
HETATM    4  N   UNL     1     -11.521   9.158  72.037  1.00  0.00    -0.344 NA 
HETATM    5  H   UNL     1     -11.399   9.063  73.046  1.00  0.00     0.000 HD 
BRANCH   4   6
HETATM    6  C   UNL     1     -10.379   9.115  71.104  1.00  0.00    -0.317 C  
HETATM    7  C   UNL     1      -9.106   8.626  71.806  1.00  0.00    -0.317 C  
BRANCH   6   8
HETATM    8  C   UNL     1     -10.681   8.177  69.906  1.00  0.00    -0.241 C  
BRANCH   8   9
HETATM    9  C   UNL     1     -10.390   8.778  68.547  1.00  0.00    -0.231 A  
HETATM   10  C   UNL     1      -9.544   8.127  67.640  1.00  0.00    -0.186 A  
HETATM   11  C   UNL     1      -9.295   8.679  66.380  1.00  0.00    -0.271 A  
HETATM   12  C   UNL     1      -9.887   9.891  66.025  1.00  0.00    -0.264 A  
HETATM   13  C   UNL     1     -10.725  10.554  66.922  1.00  0.00    -0.281 A  
HETATM   14  I   UNL     1      -9.528  10.709  64.150  1.00  0.00    -0.391 I  
HETATM   15  C   UNL     1     -10.977   9.997  68.176  1.00  0.00    -0.289 A  
ENDBRANCH   8   9
ENDBRANCH   6   8
ENDBRANCH   4   6
ENDBRANCH   2   4
TORSDOF 4
ENDMDL
MODEL       90
REMARK 921   NORMALIZED FREE ENERGY PREDICTED BY IDOCK:   -3.48 KCAL/MOL
REMARK 922        TOTAL FREE ENERGY PREDICTED BY IDOCK:   -5.05 KCAL/MOL
REMARK 923 INTER-LIGAND FREE ENERGY PREDICTED BY IDOCK:   -4.68 KCAL/MOL
REMARK 924 INTRA-LIGAND FREE ENERGY PREDICTED BY IDOCK:   -0.37 KCAL/MOL
REMARK 927      BINDING AFFINITY PREDICTED BY RF-SCORE:    0.00 PKD
ROOT
HETATM    1  C   UNL     1      -9.647  11.008  62.929  1.00  0.00    -0.369 C  
HETATM    2  C   UNL     1     -10.227  11.426  64.282  1.00  0.00    -0.315 C  
HETATM    3  C   UNL     1      -9.668  10.522  65.384  1.00  0.00    -0.315 C  
ENDROOT
BRANCH   2   4
HETATM    4  N   UNL     1      -9.912  12.817  64.636  1.00  0.00    -0.538 NA 
HETATM    5  H   UNL     1      -8.988  13.219  64.475  1.00  0.00     0.000 HD 
BRANCH   4   6
HETATM    6  C   UNL     1     -11.010  13.599  65.237  1.00  0.00    -0.310 C  
HETATM    7  C   UNL     1     -12.352  12.869  65.099  1.00  0.00    -0.547 C  
BRANCH   6   8
HETATM    8  C   UNL     1     -10.737  13.865  66.741  1.00  0.00    -0.281 C  
BRANCH   8   9
HETATM    9  C   UNL     1     -10.057  15.186  67.033  1.00  0.00    -0.244 A  
HETATM   10  C   UNL     1     -10.764  16.244  67.619  1.00  0.00    -0.311 A  
HETATM   11  C   UNL     1     -10.124  17.454  67.902  1.00  0.00    -0.326 A  
HETATM   12  C   UNL     1      -8.773  17.612  67.594  1.00  0.00    -0.232 A  
HETATM   13  C   UNL     1      -8.059  16.569  67.003  1.00  0.00    -0.235 A  
HETATM   14  I   UNL     1      -7.815  19.405  68.024  1.00  0.00    -0.359 I  
HETATM   15  C   UNL     1      -8.699  15.361  66.727  1.00  0.00    -0.304 A  
ENDBRANCH   8   9
ENDBRANCH   6   8
ENDBRANCH   4   6
ENDBRANCH   2   4
TORSDOF 4
ENDMDL
MODEL       91
REMARK 921   NORMALIZED FREE ENERGY PREDICTED BY IDOCK:   -3.47 KCAL/MOL
REMARK 922        TOTAL FREE ENERGY PREDICTED BY IDOCK:   -5.05 KCAL/MOL
REMARK 923 INTER-LIGAND FREE ENERGY PREDICTED BY IDOCK:   -4.47 KCAL/MOL
REMARK 924 INTRA-LIGAND FREE ENERGY PREDICTED BY IDOCK:   -0.58 KCAL/MOL
REMARK 927      BINDING AFFINITY PREDICTED BY RF-SCORE:    0.00 PKD
ROOT
HETATM    1  C   UNL     1     -10.332  18.522  66.078  1.00  0.00    -0.423 C  
HETATM    2  C   UNL     1     -10.128  17.006  66.107  1.00  0.00    -0.319 C  
HETATM    3  C   UNL     1     -10.774  16.423  67.367  1.00  0.00    -0.278 C  
ENDROOT
BRANCH   2   4
HETATM    4  N   UNL     1     -10.715  16.325  64.944  1.00  0.00    -0.685 NA 
HETATM    5  H   UNL     1     -10.707  16.743  64.013  1.00  0.00     0.000 HD 
BRANCH   4   6
HETATM    6  C   UNL     1     -11.315  15.001  65.201  1.00  0.00    -0.372 C  
HETATM    7  C   UNL     1     -12.562  14.780  64.338  1.00  0.00    -0.105 C  
BRANCH   6   8
HETATM    8  C   UNL     1     -10.296  13.869  64.909  1.00  0.00    -0.430 C  
BRANCH   8   9
HETATM    9  C   UNL     1     -10.139  12.859  66.026  1.00  0.00    -0.290 A  
HETATM   10  C   UNL     1      -9.129  13.001  66.986  1.00  0.00    -0.230 A  
HETATM   11  C   UNL     1      -9.003  12.075  68.025  1.00  0.00    -0.187 A  
HETATM   12  C   UNL     1      -9.885  10.997  68.104  1.00  0.00    -0.176 A  
HETATM   13  C   UNL     1     -10.890  10.839  67.150  1.00  0.00    -0.335 A  
HETATM   14  I   UNL     1      -9.708   9.624  69.654  1.00  0.00    -0.283 I  
HETATM   15  C   UNL     1     -11.018  11.769  66.118  1.00  0.00    -0.355 A  
ENDBRANCH   8   9
ENDBRANCH   6   8
ENDBRANCH   4   6
ENDBRANCH   2   4
TORSDOF 4
ENDMDL
MODEL       92
REMARK 921   NORMALIZED FREE ENERGY PREDICTED BY IDOCK:   -3.47 KCAL/MOL
REMARK 922        TOTAL FREE ENERGY PREDICTED BY IDOCK:   -5.04 KCAL/MOL
REMARK 923 INTER-LIGAND FREE ENERGY PREDICTED BY IDOCK:   -4.52 KCAL/MOL
REMARK 924 INTRA-LIGAND FREE ENERGY PREDICTED BY IDOCK:   -0.52 KCAL/MOL
REMARK 927      BINDING AFFINITY PREDICTED BY RF-SCORE:    0.00 PKD
ROOT
HETATM    1  C   UNL     1     -11.371  12.757  69.295  1.00  0.00    -0.307 C  
HETATM    2  C   UNL     1     -12.007  11.608  68.510  1.00  0.00    -0.217 C  
HETATM    3  C   UNL     1     -11.112  11.236  67.324  1.00  0.00    -0.367 C  
ENDROOT
BRANCH   2   4
HETATM    4  N   UNL     1     -12.205  10.399  69.322  1.00  0.00    -0.653 NA 
HETATM    5  H   UNL     1     -12.551   9.528  68.918  1.00  0.00     0.000 HD 
BRANCH   4   6
HETATM    6  C   UNL     1     -11.873  10.518  70.755  1.00  0.00    -0.365 C  
HETATM    7  C   UNL     1     -13.105  10.272  71.633  1.00  0.00    -0.553 C  
BRANCH   6   8
HETATM    8  C   UNL     1     -10.767   9.504  71.150  1.00  0.00    -0.408 C  
BRANCH   8   9
HETATM    9  C   UNL     1     -10.537   8.398  70.140  1.00  0.00    -0.235 A  
HETATM   10  C   UNL     1      -9.560   8.526  69.144  1.00  0.00    -0.167 A  
HETATM   11  C   UNL     1      -9.342   7.494  68.228  1.00  0.00    -0.141 A  
HETATM   12  C   UNL     1     -10.106   6.329  68.301  1.00  0.00    -0.153 A  
HETATM   13  C   UNL     1     -11.088   6.192  69.283  1.00  0.00    -0.463 A  
HETATM   14  I   UNL     1      -9.777   4.787  66.948  1.00  0.00    -0.254 I  
HETATM   15  C   UNL     1     -11.299   7.222  70.199  1.00  0.00    -0.236 A  
ENDBRANCH   8   9
ENDBRANCH   6   8
ENDBRANCH   4   6
ENDBRANCH   2   4
TORSDOF 4
ENDMDL
MODEL       93
REMARK 921   NORMALIZED FREE ENERGY PREDICTED BY IDOCK:   -3.46 KCAL/MOL
REMARK 922        TOTAL FREE ENERGY PREDICTED BY IDOCK:   -5.03 KCAL/MOL
REMARK 923 INTER-LIGAND FREE ENERGY PREDICTED BY IDOCK:   -4.50 KCAL/MOL
REMARK 924 INTRA-LIGAND FREE ENERGY PREDICTED BY IDOCK:   -0.53 KCAL/MOL
REMARK 927      BINDING AFFINITY PREDICTED BY RF-SCORE:    0.00 PKD
ROOT
HETATM    1  C   UNL     1      -8.357  19.079  68.254  1.00  0.00    -0.369 C  
HETATM    2  C   UNL     1      -8.055  17.708  67.645  1.00  0.00    -0.216 C  
HETATM    3  C   UNL     1      -8.521  16.605  68.599  1.00  0.00    -0.253 C  
ENDROOT
BRANCH   2   4
HETATM    4  N   UNL     1      -8.720  17.496  66.351  1.00  0.00    -0.361 NA 
HETATM    5  H   UNL     1      -8.192  17.355  65.490  1.00  0.00     0.000 HD 
BRANCH   4   6
HETATM    6  C   UNL     1     -10.196  17.497  66.373  1.00  0.00    -0.354 C  
HETATM    7  C   UNL     1     -10.757  18.845  65.906  1.00  0.00    -0.366 C  
BRANCH   6   8
HETATM    8  C   UNL     1     -10.761  16.377  65.460  1.00  0.00    -0.300 C  
BRANCH   8   9
HETATM    9  C   UNL     1     -10.809  15.006  66.102  1.00  0.00    -0.329 A  
HETATM   10  C   UNL     1     -10.147  13.917  65.522  1.00  0.00    -0.319 A  
HETATM   11  C   UNL     1     -10.182  12.659  66.131  1.00  0.00    -0.272 A  
HETATM   12  C   UNL     1     -10.886  12.485  67.322  1.00  0.00    -0.245 A  
HETATM   13  C   UNL     1     -11.556  13.560  67.907  1.00  0.00    -0.377 A  
HETATM   14  I   UNL     1     -10.930  10.620  68.237  1.00  0.00    -0.359 I  
HETATM   15  C   UNL     1     -11.515  14.815  67.300  1.00  0.00    -0.378 A  
ENDBRANCH   8   9
ENDBRANCH   6   8
ENDBRANCH   4   6
ENDBRANCH   2   4
TORSDOF 4
ENDMDL
MODEL       94
REMARK 921   NORMALIZED FREE ENERGY PREDICTED BY IDOCK:   -3.45 KCAL/MOL
REMARK 922        TOTAL FREE ENERGY PREDICTED BY IDOCK:   -5.02 KCAL/MOL
REMARK 923 INTER-LIGAND FREE ENERGY PREDICTED BY IDOCK:   -4.51 KCAL/MOL
REMARK 924 INTRA-LIGAND FREE ENERGY PREDICTED BY IDOCK:   -0.51 KCAL/MOL
REMARK 927      BINDING AFFINITY PREDICTED BY RF-SCORE:    0.00 PKD
ROOT
HETATM    1  C   UNL     1     -11.815   8.515  71.968  1.00  0.00    -0.429 C  
HETATM    2  C   UNL     1     -12.571   7.248  71.561  1.00  0.00    -0.379 C  
HETATM    3  C   UNL     1     -14.076   7.531  71.536  1.00  0.00    -0.550 C  
ENDROOT
BRANCH   2   4
HETATM    4  N   UNL     1     -12.184   6.751  70.233  1.00  0.00    -0.599 NA 
HETATM    5  H   UNL     1     -12.859   6.322  69.600  1.00  0.00     0.000 HD 
BRANCH   4   6
HETATM    6  C   UNL     1     -10.762   6.909  69.870  1.00  0.00    -0.246 C  
HETATM    7  C   UNL     1      -9.952   5.661  70.238  1.00  0.00    -0.269 C  
BRANCH   6   8
HETATM    8  C   UNL     1     -10.609   7.174  68.349  1.00  0.00    -0.223 C  
BRANCH   8   9
HETATM    9  C   UNL     1     -10.405   8.629  67.981  1.00  0.00    -0.277 A  
HETATM   10  C   UNL     1     -10.449   9.631  68.959  1.00  0.00    -0.229 A  
HETATM   11  C   UNL     1     -10.242  10.969  68.614  1.00  0.00    -0.211 A  
HETATM   12  C   UNL     1      -9.995  11.312  67.285  1.00  0.00    -0.183 A  
HETATM   13  C   UNL     1      -9.956  10.326  66.299  1.00  0.00    -0.295 A  
HETATM   14  I   UNL     1      -9.674  13.299  66.770  1.00  0.00    -0.264 I  
HETATM   15  C   UNL     1     -10.158   8.990  66.648  1.00  0.00    -0.355 A  
ENDBRANCH   8   9
ENDBRANCH   6   8
ENDBRANCH   4   6
ENDBRANCH   2   4
TORSDOF 4
ENDMDL
MODEL       95
REMARK 921   NORMALIZED FREE ENERGY PREDICTED BY IDOCK:   -3.45 KCAL/MOL
REMARK 922        TOTAL FREE ENERGY PREDICTED BY IDOCK:   -5.02 KCAL/MOL
REMARK 923 INTER-LIGAND FREE ENERGY PREDICTED BY IDOCK:   -4.46 KCAL/MOL
REMARK 924 INTRA-LIGAND FREE ENERGY PREDICTED BY IDOCK:   -0.56 KCAL/MOL
REMARK 927      BINDING AFFINITY PREDICTED BY RF-SCORE:    0.00 PKD
ROOT
HETATM    1  C   UNL     1      -7.678  15.255  67.535  1.00  0.00    -0.200 C  
HETATM    2  C   UNL     1      -8.959  14.418  67.572  1.00  0.00    -0.190 C  
HETATM    3  C   UNL     1      -8.686  13.032  66.979  1.00  0.00    -0.195 C  
ENDROOT
BRANCH   2   4
HETATM    4  N   UNL     1      -9.483  14.231  68.932  1.00  0.00    -0.372 NA 
HETATM    5  H   UNL     1      -8.922  13.811  69.674  1.00  0.00     0.000 HD 
BRANCH   4   6
HETATM    6  C   UNL     1     -10.868  14.686  69.162  1.00  0.00    -0.259 C  
HETATM    7  C   UNL     1     -11.136  16.025  68.464  1.00  0.00    -0.347 C  
BRANCH   6   8
HETATM    8  C   UNL     1     -11.886  13.638  68.641  1.00  0.00    -0.409 C  
BRANCH   8   9
HETATM    9  C   UNL     1     -11.841  12.306  69.360  1.00  0.00    -0.370 A  
HETATM   10  C   UNL     1     -11.251  11.185  68.760  1.00  0.00    -0.314 A  
HETATM   11  C   UNL     1     -11.197   9.964  69.438  1.00  0.00    -0.196 A  
HETATM   12  C   UNL     1     -11.739   9.857  70.719  1.00  0.00    -0.341 A  
HETATM   13  C   UNL     1     -12.337  10.963  71.324  1.00  0.00    -0.448 A  
HETATM   14  I   UNL     1     -11.651   8.047  71.734  1.00  0.00    -0.432 I  
HETATM   15  C   UNL     1     -12.384  12.182  70.648  1.00  0.00    -0.385 A  
ENDBRANCH   8   9
ENDBRANCH   6   8
ENDBRANCH   4   6
ENDBRANCH   2   4
TORSDOF 4
ENDMDL
MODEL       96
REMARK 921   NORMALIZED FREE ENERGY PREDICTED BY IDOCK:   -3.41 KCAL/MOL
REMARK 922        TOTAL FREE ENERGY PREDICTED BY IDOCK:   -4.97 KCAL/MOL
REMARK 923 INTER-LIGAND FREE ENERGY PREDICTED BY IDOCK:   -4.50 KCAL/MOL
REMARK 924 INTRA-LIGAND FREE ENERGY PREDICTED BY IDOCK:   -0.47 KCAL/MOL
REMARK 927      BINDING AFFINITY PREDICTED BY RF-SCORE:    0.00 PKD
ROOT
HETATM    1  C   UNL     1     -11.755  12.770  66.716  1.00  0.00    -0.459 C  
HETATM    2  C   UNL     1     -10.634  13.804  66.838  1.00  0.00    -0.276 C  
HETATM    3  C   UNL     1     -10.980  15.041  66.003  1.00  0.00    -0.334 C  
ENDROOT
BRANCH   2   4
HETATM    4  N   UNL     1     -10.407  14.244  68.222  1.00  0.00    -0.236 NA 
HETATM    5  H   UNL     1      -9.570  13.981  68.741  1.00  0.00     0.000 HD 
BRANCH   4   6
HETATM    6  C   UNL     1     -11.461  15.090  68.815  1.00  0.00    -0.319 C  
HETATM    7  C   UNL     1     -12.297  14.305  69.832  1.00  0.00    -0.377 C  
BRANCH   6   8
HETATM    8  C   UNL     1     -10.843  16.325  69.522  1.00  0.00    -0.342 C  
BRANCH   8   9
HETATM    9  C   UNL     1      -9.923  17.155  68.650  1.00  0.00    -0.313 A  
HETATM   10  C   UNL     1     -10.436  18.150  67.808  1.00  0.00    -0.421 A  
HETATM   11  C   UNL     1      -9.579  18.924  67.020  1.00  0.00    -0.348 A  
HETATM   12  C   UNL     1      -8.203  18.700  67.067  1.00  0.00    -0.253 A  
HETATM   13  C   UNL     1      -7.680  17.706  67.895  1.00  0.00    -0.216 A  
HETATM   14  I   UNL     1      -6.925  19.855  65.907  1.00  0.00    -0.340 I  
HETATM   15  C   UNL     1      -8.537  16.940  68.685  1.00  0.00    -0.267 A  
ENDBRANCH   8   9
ENDBRANCH   6   8
ENDBRANCH   4   6
ENDBRANCH   2   4
TORSDOF 4
ENDMDL
MODEL       97
REMARK 921   NORMALIZED FREE ENERGY PREDICTED BY IDOCK:   -3.41 KCAL/MOL
REMARK 922        TOTAL FREE ENERGY PREDICTED BY IDOCK:   -4.97 KCAL/MOL
REMARK 923 INTER-LIGAND FREE ENERGY PREDICTED BY IDOCK:   -4.52 KCAL/MOL
REMARK 924 INTRA-LIGAND FREE ENERGY PREDICTED BY IDOCK:   -0.44 KCAL/MOL
REMARK 927      BINDING AFFINITY PREDICTED BY RF-SCORE:    0.00 PKD
ROOT
HETATM    1  C   UNL     1      -9.299  20.283  67.370  1.00  0.00    -0.531 C  
HETATM    2  C   UNL     1      -9.054  19.357  66.176  1.00  0.00    -0.284 C  
HETATM    3  C   UNL     1      -7.856  18.449  66.466  1.00  0.00    -0.279 C  
ENDROOT
BRANCH   2   4
HETATM    4  N   UNL     1     -10.207  18.498  65.870  1.00  0.00    -0.580 NA 
HETATM    5  H   UNL     1     -11.021  18.848  65.364  1.00  0.00     0.000 HD 
BRANCH   4   6
HETATM    6  C   UNL     1     -10.118  17.101  66.337  1.00  0.00    -0.320 C  
HETATM    7  C   UNL     1     -10.933  16.890  67.618  1.00  0.00    -0.165 C  
BRANCH   6   8
HETATM    8  C   UNL     1     -10.634  16.123  65.249  1.00  0.00    -0.390 C  
BRANCH   8   9
HETATM    9  C   UNL     1     -10.491  14.657  65.601  1.00  0.00    -0.358 A  
HETATM   10  C   UNL     1     -11.518  13.747  65.318  1.00  0.00    -0.320 A  
HETATM   11  C   UNL     1     -11.372  12.393  65.630  1.00  0.00    -0.387 A  
HETATM   12  C   UNL     1     -10.197  11.943  66.233  1.00  0.00    -0.216 A  
HETATM   13  C   UNL     1      -9.170  12.840  66.528  1.00  0.00    -0.190 A  
HETATM   14  I   UNL     1      -9.970   9.929  66.687  1.00  0.00    -0.285 I  
HETATM   15  C   UNL     1      -9.317  14.190  66.210  1.00  0.00    -0.215 A  
ENDBRANCH   8   9
ENDBRANCH   6   8
ENDBRANCH   4   6
ENDBRANCH   2   4
TORSDOF 4
ENDMDL
MODEL       98
REMARK 921   NORMALIZED FREE ENERGY PREDICTED BY IDOCK:   -3.37 KCAL/MOL
REMARK 922        TOTAL FREE ENERGY PREDICTED BY IDOCK:   -4.92 KCAL/MOL
REMARK 923 INTER-LIGAND FREE ENERGY PREDICTED BY IDOCK:   -4.34 KCAL/MOL
REMARK 924 INTRA-LIGAND FREE ENERGY PREDICTED BY IDOCK:   -0.58 KCAL/MOL
REMARK 927      BINDING AFFINITY PREDICTED BY RF-SCORE:    0.00 PKD
ROOT
HETATM    1  C   UNL     1     -11.150  15.946  69.209  1.00  0.00    -0.312 C  
HETATM    2  C   UNL     1     -11.027  14.472  68.812  1.00  0.00    -0.250 C  
HETATM    3  C   UNL     1     -12.128  13.660  69.499  1.00  0.00    -0.368 C  
ENDROOT
BRANCH   2   4
HETATM    4  N   UNL     1     -11.144  14.256  67.363  1.00  0.00    -0.295 NA 
HETATM    5  H   UNL     1     -10.985  15.007  66.691  1.00  0.00     0.000 HD 
BRANCH   4   6
HETATM    6  C   UNL     1     -11.504  12.890  66.938  1.00  0.00    -0.341 C  
HETATM    7  C   UNL     1     -12.266  12.904  65.608  1.00  0.00    -0.519 C  
BRANCH   6   8
HETATM    8  C   UNL     1     -10.236  12.010  66.779  1.00  0.00    -0.225 C  
BRANCH   8   9
HETATM    9  C   UNL     1     -10.346  10.630  67.391  1.00  0.00    -0.262 A  
HETATM   10  C   UNL     1     -10.266   9.481  66.593  1.00  0.00    -0.310 A  
HETATM   11  C   UNL     1     -10.350   8.210  67.168  1.00  0.00    -0.391 A  
HETATM   12  C   UNL     1     -10.521   8.083  68.547  1.00  0.00    -0.164 A  
HETATM   13  C   UNL     1     -10.610   9.219  69.353  1.00  0.00    -0.234 A  
HETATM   14  I   UNL     1     -10.634   6.196  69.408  1.00  0.00    -0.451 I  
HETATM   15  C   UNL     1     -10.519  10.486  68.776  1.00  0.00    -0.216 A  
ENDBRANCH   8   9
ENDBRANCH   6   8
ENDBRANCH   4   6
ENDBRANCH   2   4
TORSDOF 4
ENDMDL
MODEL       99
REMARK 921   NORMALIZED FREE ENERGY PREDICTED BY IDOCK:   -3.35 KCAL/MOL
REMARK 922        TOTAL FREE ENERGY PREDICTED BY IDOCK:   -4.89 KCAL/MOL
REMARK 923 INTER-LIGAND FREE ENERGY PREDICTED BY IDOCK:   -4.29 KCAL/MOL
REMARK 924 INTRA-LIGAND FREE ENERGY PREDICTED BY IDOCK:   -0.61 KCAL/MOL
REMARK 927      BINDING AFFINITY PREDICTED BY RF-SCORE:    0.00 PKD
ROOT
HETATM    1  C   UNL     1     -12.272  14.830  64.350  1.00  0.00    -0.447 C  
HETATM    2  C   UNL     1     -12.380  13.672  65.345  1.00  0.00    -0.476 C  
HETATM    3  C   UNL     1     -11.989  12.362  64.656  1.00  0.00    -0.462 C  
ENDROOT
BRANCH   2   4
HETATM    4  N   UNL     1     -11.510  13.841  66.518  1.00  0.00    -0.334 NA 
HETATM    5  H   UNL     1     -11.873  14.156  67.418  1.00  0.00     0.000 HD 
BRANCH   4   6
HETATM    6  C   UNL     1     -10.082  13.528  66.318  1.00  0.00    -0.298 C  
HETATM    7  C   UNL     1      -9.247  14.806  66.176  1.00  0.00    -0.237 C  
BRANCH   6   8
HETATM    8  C   UNL     1      -9.529  12.697  67.506  1.00  0.00    -0.186 C  
BRANCH   8   9
HETATM    9  C   UNL     1      -9.808  11.212  67.420  1.00  0.00    -0.195 A  
HETATM   10  C   UNL     1      -9.377  10.462  66.317  1.00  0.00    -0.202 A  
HETATM   11  C   UNL     1      -9.623   9.088  66.254  1.00  0.00    -0.327 A  
HETATM   12  C   UNL     1     -10.308   8.457  67.293  1.00  0.00    -0.299 A  
HETATM   13  C   UNL     1     -10.750   9.193  68.393  1.00  0.00    -0.163 A  
HETATM   14  I   UNL     1     -10.666   6.413  67.208  1.00  0.00    -0.449 I  
HETATM   15  C   UNL     1     -10.498  10.564  68.456  1.00  0.00    -0.210 A  
ENDBRANCH   8   9
ENDBRANCH   6   8
ENDBRANCH   4   6
ENDBRANCH   2   4
TORSDOF 4
ENDMDL
MODEL      100
REMARK 921   NORMALIZED FREE ENERGY PREDICTED BY IDOCK:   -3.32 KCAL/MOL
REMARK 922        TOTAL FREE ENERGY PREDICTED BY IDOCK:   -4.86 KCAL/MOL
REMARK 923 INTER-LIGAND FREE ENERGY PREDICTED BY IDOCK:   -4.55 KCAL/MOL
REMARK 924 INTRA-LIGAND FREE ENERGY PREDICTED BY IDOCK:   -0.31 KCAL/MOL
REMARK 927      BINDING AFFINITY PREDICTED BY RF-SCORE:    0.00 PKD
ROOT
HETATM    1  C   UNL     1     -11.588  13.730  68.180  1.00  0.00    -0.370 C  
HETATM    2  C   UNL     1     -11.693  12.229  68.457  1.00  0.00    -0.331 C  
HETATM    3  C   UNL     1     -11.505  11.449  67.153  1.00  0.00    -0.268 C  
ENDROOT
BRANCH   2   4
HETATM    4  N   UNL     1     -10.688  11.751  69.417  1.00  0.00    -0.448 NA 
HETATM    5  H   UNL     1     -10.066  12.391  69.911  1.00  0.00     0.000 HD 
BRANCH   4   6
HETATM    6  C   UNL     1     -10.631  10.291  69.625  1.00  0.00    -0.256 C  
HETATM    7  C   UNL     1      -9.202   9.828  69.930  1.00  0.00    -0.263 C  
BRANCH   6   8
HETATM    8  C   UNL     1     -11.555   9.866  70.797  1.00  0.00    -0.430 C  
BRANCH   8   9
HETATM    9  C   UNL     1     -11.285   8.478  71.340  1.00  0.00    -0.327 A  
HETATM   10  C   UNL     1     -10.813   8.298  72.647  1.00  0.00    -0.381 A  
HETATM   11  C   UNL     1     -10.583   7.013  73.147  1.00  0.00    -0.350 A  
HETATM   12  C   UNL     1     -10.821   5.902  72.338  1.00  0.00    -0.244 A  
HETATM   13  C   UNL     1     -11.284   6.067  71.033  1.00  0.00    -0.332 A  
HETATM   14  I   UNL     1     -10.493   3.990  73.082  1.00  0.00    -0.273 I  
HETATM   15  C   UNL     1     -11.518   7.351  70.539  1.00  0.00    -0.281 A  
ENDBRANCH   8   9
ENDBRANCH   6   8
ENDBRANCH   4   6
ENDBRANCH   2   4
TORSDOF 4
ENDMDL
MODEL      101
REMARK 921   NORMALIZED FREE ENERGY PREDICTED BY IDOCK:   -3.31 KCAL/MOL
REMARK 922        TOTAL FREE ENERGY PREDICTED BY IDOCK:   -4.85 KCAL/MOL
REMARK 923 INTER-LIGAND FREE ENERGY PREDICTED BY IDOCK:   -4.65 KCAL/MOL
REMARK 924 INTRA-LIGAND FREE ENERGY PREDICTED BY IDOCK:   -0.20 KCAL/MOL
REMARK 927      BINDING AFFINITY PREDICTED BY RF-SCORE:    0.00 PKD
ROOT
HETATM    1  C   UNL     1     -12.548   6.733  71.641  1.00  0.00    -0.380 C  
HETATM    2  C   UNL     1     -11.286   6.810  70.778  1.00  0.00    -0.325 C  
HETATM    3  C   UNL     1     -10.522   5.486  70.864  1.00  0.00    -0.319 C  
ENDROOT
BRANCH   2   4
HETATM    4  N   UNL     1     -11.575   7.072  69.361  1.00  0.00    -0.546 NA 
HETATM    5  H   UNL     1     -12.481   7.425  69.051  1.00  0.00     0.000 HD 
BRANCH   4   6
HETATM    6  C   UNL     1     -10.478   6.796  68.413  1.00  0.00    -0.205 C  
HETATM    7  C   UNL     1     -11.016   6.542  67.000  1.00  0.00    -0.466 C  
BRANCH   6   8
HETATM    8  C   UNL     1      -9.482   7.984  68.363  1.00  0.00    -0.148 C  
BRANCH   8   9
HETATM    9  C   UNL     1      -9.967   9.180  67.570  1.00  0.00    -0.258 A  
HETATM   10  C   UNL     1     -10.806  10.137  68.154  1.00  0.00    -0.310 A  
HETATM   11  C   UNL     1     -11.234  11.247  67.421  1.00  0.00    -0.370 A  
HETATM   12  C   UNL     1     -10.829  11.401  66.095  1.00  0.00    -0.255 A  
HETATM   13  C   UNL     1     -10.000  10.451  65.498  1.00  0.00    -0.348 A  
HETATM   14  I   UNL     1     -11.454  13.055  65.005  1.00  0.00    -0.425 I  
HETATM   15  C   UNL     1      -9.569   9.347  66.235  1.00  0.00    -0.297 A  
ENDBRANCH   8   9
ENDBRANCH   6   8
ENDBRANCH   4   6
ENDBRANCH   2   4
TORSDOF 4
ENDMDL
MODEL      102
REMARK 921   NORMALIZED FREE ENERGY PREDICTED BY IDOCK:   -3.30 KCAL/MOL
REMARK 922        TOTAL FREE ENERGY PREDICTED BY IDOCK:   -4.83 KCAL/MOL
REMARK 923 INTER-LIGAND FREE ENERGY PREDICTED BY IDOCK:   -4.59 KCAL/MOL
REMARK 924 INTRA-LIGAND FREE ENERGY PREDICTED BY IDOCK:   -0.24 KCAL/MOL
REMARK 927      BINDING AFFINITY PREDICTED BY RF-SCORE:    0.00 PKD
ROOT
HETATM    1  C   UNL     1     -12.274  11.997  70.629  1.00  0.00    -0.409 C  
HETATM    2  C   UNL     1     -12.271  10.856  69.610  1.00  0.00    -0.283 C  
HETATM    3  C   UNL     1     -11.244  11.147  68.512  1.00  0.00    -0.318 C  
ENDROOT
BRANCH   2   4
HETATM    4  N   UNL     1     -11.937   9.555  70.206  1.00  0.00    -0.463 NA 
HETATM    5  H   UNL     1     -11.815   8.716  69.637  1.00  0.00     0.000 HD 
BRANCH   4   6
HETATM    6  C   UNL     1     -11.787   9.532  71.674  1.00  0.00    -0.397 C  
HETATM    7  C   UNL     1     -12.901   8.713  72.334  1.00  0.00    -0.413 C  
BRANCH   6   8
HETATM    8  C   UNL     1     -10.415   8.930  72.077  1.00  0.00    -0.383 C  
BRANCH   8   9
HETATM    9  C   UNL     1     -10.429   7.433  72.309  1.00  0.00    -0.260 A  
HETATM   10  C   UNL     1     -10.440   6.539  71.231  1.00  0.00    -0.250 A  
HETATM   11  C   UNL     1     -10.434   5.159  71.453  1.00  0.00    -0.249 A  
HETATM   12  C   UNL     1     -10.423   4.667  72.759  1.00  0.00    -0.201 A  
HETATM   13  C   UNL     1     -10.421   5.547  73.842  1.00  0.00    -0.308 A  
HETATM   14  I   UNL     1     -10.403   2.617  73.094  1.00  0.00    -0.258 I  
HETATM   15  C   UNL     1     -10.420   6.923  73.617  1.00  0.00    -0.400 A  
ENDBRANCH   8   9
ENDBRANCH   6   8
ENDBRANCH   4   6
ENDBRANCH   2   4
TORSDOF 4
ENDMDL
MODEL      103
REMARK 921   NORMALIZED FREE ENERGY PREDICTED BY IDOCK:   -3.29 KCAL/MOL
REMARK 922        TOTAL FREE ENERGY PREDICTED BY IDOCK:   -4.82 KCAL/MOL
REMARK 923 INTER-LIGAND FREE ENERGY PREDICTED BY IDOCK:   -4.22 KCAL/MOL
REMARK 924 INTRA-LIGAND FREE ENERGY PREDICTED BY IDOCK:   -0.60 KCAL/MOL
REMARK 927      BINDING AFFINITY PREDICTED BY RF-SCORE:    0.00 PKD
ROOT
HETATM    1  C   UNL     1      -7.464  14.802  69.328  1.00  0.00    -0.162 C  
HETATM    2  C   UNL     1      -8.440  14.077  68.398  1.00  0.00    -0.166 C  
HETATM    3  C   UNL     1      -8.061  12.596  68.306  1.00  0.00    -0.161 C  
ENDROOT
BRANCH   2   4
HETATM    4  N   UNL     1      -9.835  14.158  68.854  1.00  0.00    -0.386 NA 
HETATM    5  H   UNL     1     -10.108  13.899  69.802  1.00  0.00     0.000 HD 
BRANCH   4   6
HETATM    6  C   UNL     1     -10.816  14.636  67.860  1.00  0.00    -0.259 C  
HETATM    7  C   UNL     1     -12.030  13.704  67.786  1.00  0.00    -0.387 C  
BRANCH   6   8
HETATM    8  C   UNL     1     -11.303  16.066  68.213  1.00  0.00    -0.326 C  
BRANCH   8   9
HETATM    9  C   UNL     1     -10.286  17.159  67.957  1.00  0.00    -0.353 A  
HETATM   10  C   UNL     1     -10.144  18.231  68.848  1.00  0.00    -0.358 A  
HETATM   11  C   UNL     1      -9.191  19.226  68.614  1.00  0.00    -0.436 A  
HETATM   12  C   UNL     1      -8.377  19.154  67.483  1.00  0.00    -0.287 A  
HETATM   13  C   UNL     1      -8.513  18.096  66.584  1.00  0.00    -0.282 A  
HETATM   14  I   UNL     1      -6.950  20.624  67.139  1.00  0.00    -0.381 I  
HETATM   15  C   UNL     1      -9.462  17.102  66.823  1.00  0.00    -0.278 A  
ENDBRANCH   8   9
ENDBRANCH   6   8
ENDBRANCH   4   6
ENDBRANCH   2   4
TORSDOF 4
ENDMDL
MODEL      104
REMARK 921   NORMALIZED FREE ENERGY PREDICTED BY IDOCK:   -3.28 KCAL/MOL
REMARK 922        TOTAL FREE ENERGY PREDICTED BY IDOCK:   -4.81 KCAL/MOL
REMARK 923 INTER-LIGAND FREE ENERGY PREDICTED BY IDOCK:   -4.42 KCAL/MOL
REMARK 924 INTRA-LIGAND FREE ENERGY PREDICTED BY IDOCK:   -0.39 KCAL/MOL
REMARK 927      BINDING AFFINITY PREDICTED BY RF-SCORE:    0.00 PKD
ROOT
HETATM    1  C   UNL     1     -12.100  14.499  64.415  1.00  0.00    -0.492 C  
HETATM    2  C   UNL     1     -11.927  13.001  64.676  1.00  0.00    -0.392 C  
HETATM    3  C   UNL     1     -12.520  12.203  63.511  1.00  0.00    -0.666 C  
ENDROOT
BRANCH   2   4
HETATM    4  N   UNL     1     -10.520  12.603  64.825  1.00  0.00    -0.307 NA 
HETATM    5  H   UNL     1      -9.762  13.129  64.392  1.00  0.00     0.000 HD 
BRANCH   4   6
HETATM    6  C   UNL     1     -10.270  11.397  65.639  1.00  0.00    -0.251 C  
HETATM    7  C   UNL     1      -9.695  10.261  64.786  1.00  0.00    -0.397 C  
BRANCH   6   8
HETATM    8  C   UNL     1      -9.279  11.709  66.792  1.00  0.00    -0.190 C  
BRANCH   8   9
HETATM    9  C   UNL     1      -9.533  10.932  68.067  1.00  0.00    -0.167 A  
HETATM   10  C   UNL     1     -10.839  10.696  68.517  1.00  0.00    -0.275 A  
HETATM   11  C   UNL     1     -11.065   9.963  69.685  1.00  0.00    -0.279 A  
HETATM   12  C   UNL     1      -9.983   9.465  70.412  1.00  0.00    -0.252 A  
HETATM   13  C   UNL     1      -8.678   9.699  69.979  1.00  0.00    -0.256 A  
HETATM   14  I   UNL     1     -10.316   8.364  72.142  1.00  0.00    -0.368 I  
HETATM   15  C   UNL     1      -8.455  10.426  68.810  1.00  0.00    -0.132 A  
ENDBRANCH   8   9
ENDBRANCH   6   8
ENDBRANCH   4   6
ENDBRANCH   2   4
TORSDOF 4
ENDMDL
MODEL      105
REMARK 921   NORMALIZED FREE ENERGY PREDICTED BY IDOCK:   -3.28 KCAL/MOL
REMARK 922        TOTAL FREE ENERGY PREDICTED BY IDOCK:   -4.81 KCAL/MOL
REMARK 923 INTER-LIGAND FREE ENERGY PREDICTED BY IDOCK:   -4.13 KCAL/MOL
REMARK 924 INTRA-LIGAND FREE ENERGY PREDICTED BY IDOCK:   -0.68 KCAL/MOL
REMARK 927      BINDING AFFINITY PREDICTED BY RF-SCORE:    0.00 PKD
ROOT
HETATM    1  C   UNL     1     -12.820  10.154  71.465  1.00  0.00    -0.548 C  
HETATM    2  C   UNL     1     -13.354   8.949  72.244  1.00  0.00    -0.449 C  
HETATM    3  C   UNL     1     -14.368   8.188  71.384  1.00  0.00    -0.472 C  
ENDROOT
BRANCH   2   4
HETATM    4  N   UNL     1     -12.298   8.005  72.636  1.00  0.00    -0.596 NA 
HETATM    5  H   UNL     1     -12.432   7.328  73.388  1.00  0.00     0.000 HD 
BRANCH   4   6
HETATM    6  C   UNL     1     -11.034   8.093  71.879  1.00  0.00    -0.275 C  
HETATM    7  C   UNL     1      -9.829   8.200  72.820  1.00  0.00    -0.353 C  
BRANCH   6   8
HETATM    8  C   UNL     1     -10.850   6.850  70.969  1.00  0.00    -0.272 C  
BRANCH   8   9
HETATM    9  C   UNL     1     -10.227   7.144  69.621  1.00  0.00    -0.215 A  
HETATM   10  C   UNL     1     -10.512   8.335  68.941  1.00  0.00    -0.209 A  
HETATM   11  C   UNL     1      -9.918   8.607  67.706  1.00  0.00    -0.240 A  
HETATM   12  C   UNL     1      -9.039   7.683  67.141  1.00  0.00    -0.127 A  
HETATM   13  C   UNL     1      -8.752   6.489  67.803  1.00  0.00    -0.115 A  
HETATM   14  I   UNL     1      -8.145   8.088  65.310  1.00  0.00    -0.127 I  
HETATM   15  C   UNL     1      -9.342   6.223  69.039  1.00  0.00    -0.127 A  
ENDBRANCH   8   9
ENDBRANCH   6   8
ENDBRANCH   4   6
ENDBRANCH   2   4
TORSDOF 4
ENDMDL
MODEL      106
REMARK 921   NORMALIZED FREE ENERGY PREDICTED BY IDOCK:   -3.27 KCAL/MOL
REMARK 922        TOTAL FREE ENERGY PREDICTED BY IDOCK:   -4.79 KCAL/MOL
REMARK 923 INTER-LIGAND FREE ENERGY PREDICTED BY IDOCK:   -4.72 KCAL/MOL
REMARK 924 INTRA-LIGAND FREE ENERGY PREDICTED BY IDOCK:   -0.08 KCAL/MOL
REMARK 927      BINDING AFFINITY PREDICTED BY RF-SCORE:    0.00 PKD
ROOT
HETATM    1  C   UNL     1      -8.094  19.628  68.284  1.00  0.00    -0.357 C  
HETATM    2  C   UNL     1      -9.525  19.227  68.648  1.00  0.00    -0.405 C  
HETATM    3  C   UNL     1     -10.501  19.815  67.626  1.00  0.00    -0.564 C  
ENDROOT
BRANCH   2   4
HETATM    4  N   UNL     1      -9.723  17.771  68.676  1.00  0.00    -0.336 NA 
HETATM    5  H   UNL     1      -9.266  17.177  69.368  1.00  0.00     0.000 HD 
BRANCH   4   6
HETATM    6  C   UNL     1     -10.622  17.219  67.643  1.00  0.00    -0.350 C  
HETATM    7  C   UNL     1      -9.828  16.558  66.511  1.00  0.00    -0.292 C  
BRANCH   6   8
HETATM    8  C   UNL     1     -11.586  16.169  68.258  1.00  0.00    -0.181 C  
BRANCH   8   9
HETATM    9  C   UNL     1     -11.232  14.730  67.946  1.00  0.00    -0.318 A  
HETATM   10  C   UNL     1     -10.137  14.110  68.561  1.00  0.00    -0.243 A  
HETATM   11  C   UNL     1      -9.827  12.777  68.281  1.00  0.00    -0.224 A  
HETATM   12  C   UNL     1     -10.611  12.058  67.379  1.00  0.00    -0.223 A  
HETATM   13  C   UNL     1     -11.700  12.665  66.753  1.00  0.00    -0.460 A  
HETATM   14  I   UNL     1     -10.162  10.071  66.969  1.00  0.00    -0.293 I  
HETATM   15  C   UNL     1     -12.010  13.995  67.038  1.00  0.00    -0.472 A  
ENDBRANCH   8   9
ENDBRANCH   6   8
ENDBRANCH   4   6
ENDBRANCH   2   4
TORSDOF 4
ENDMDL
MODEL      107
REMARK 921   NORMALIZED FREE ENERGY PREDICTED BY IDOCK:   -3.25 KCAL/MOL
REMARK 922        TOTAL FREE ENERGY PREDICTED BY IDOCK:   -4.78 KCAL/MOL
REMARK 923 INTER-LIGAND FREE ENERGY PREDICTED BY IDOCK:   -4.65 KCAL/MOL
REMARK 924 INTRA-LIGAND FREE ENERGY PREDICTED BY IDOCK:   -0.14 KCAL/MOL
REMARK 927      BINDING AFFINITY PREDICTED BY RF-SCORE:    0.00 PKD
ROOT
HETATM    1  C   UNL     1      -7.311  19.660  68.641  1.00  0.00    -0.375 C  
HETATM    2  C   UNL     1      -7.037  18.226  68.181  1.00  0.00    -0.236 C  
HETATM    3  C   UNL     1      -6.529  17.395  69.362  1.00  0.00    -0.233 C  
ENDROOT
BRANCH   2   4
HETATM    4  N   UNL     1      -8.230  17.559  67.641  1.00  0.00    -0.213 NA 
HETATM    5  H   UNL     1      -8.261  17.198  66.687  1.00  0.00     0.000 HD 
BRANCH   4   6
HETATM    6  C   UNL     1      -9.380  17.441  68.558  1.00  0.00    -0.281 C  
HETATM    7  C   UNL     1     -10.626  18.121  67.978  1.00  0.00    -0.359 C  
BRANCH   6   8
HETATM    8  C   UNL     1      -9.708  15.952  68.841  1.00  0.00    -0.230 C  
BRANCH   8   9
HETATM    9  C   UNL     1     -10.244  15.187  67.649  1.00  0.00    -0.241 A  
HETATM   10  C   UNL     1      -9.446  14.969  66.518  1.00  0.00    -0.306 A  
HETATM   11  C   UNL     1      -9.942  14.247  65.429  1.00  0.00    -0.334 A  
HETATM   12  C   UNL     1     -11.243  13.744  65.464  1.00  0.00    -0.299 A  
HETATM   13  C   UNL     1     -12.050  13.961  66.581  1.00  0.00    -0.485 A  
HETATM   14  I   UNL     1     -11.979  12.661  63.852  1.00  0.00    -0.671 I  
HETATM   15  C   UNL     1     -11.551  14.677  67.669  1.00  0.00    -0.383 A  
ENDBRANCH   8   9
ENDBRANCH   6   8
ENDBRANCH   4   6
ENDBRANCH   2   4
TORSDOF 4
ENDMDL
MODEL      108
REMARK 921   NORMALIZED FREE ENERGY PREDICTED BY IDOCK:   -3.24 KCAL/MOL
REMARK 922        TOTAL FREE ENERGY PREDICTED BY IDOCK:   -4.77 KCAL/MOL
REMARK 923 INTER-LIGAND FREE ENERGY PREDICTED BY IDOCK:   -4.55 KCAL/MOL
REMARK 924 INTRA-LIGAND FREE ENERGY PREDICTED BY IDOCK:   -0.22 KCAL/MOL
REMARK 927      BINDING AFFINITY PREDICTED BY RF-SCORE:    0.00 PKD
ROOT
HETATM    1  C   UNL     1     -13.641   7.225  71.581  1.00  0.00    -0.435 C  
HETATM    2  C   UNL     1     -12.132   7.163  71.335  1.00  0.00    -0.344 C  
HETATM    3  C   UNL     1     -11.514   6.058  72.196  1.00  0.00    -0.356 C  
ENDROOT
BRANCH   2   4
HETATM    4  N   UNL     1     -11.790   6.886  69.933  1.00  0.00    -0.631 NA 
HETATM    5  H   UNL     1     -12.427   6.388  69.310  1.00  0.00     0.000 HD 
BRANCH   4   6
HETATM    6  C   UNL     1     -10.471   7.369  69.478  1.00  0.00    -0.232 C  
HETATM    7  C   UNL     1     -10.500   7.749  67.993  1.00  0.00    -0.244 C  
BRANCH   6   8
HETATM    8  C   UNL     1     -10.025   8.605  70.302  1.00  0.00    -0.204 C  
BRANCH   8   9
HETATM    9  C   UNL     1     -10.362   9.939  69.669  1.00  0.00    -0.265 A  
HETATM   10  C   UNL     1      -9.413  10.634  68.908  1.00  0.00    -0.199 A  
HETATM   11  C   UNL     1      -9.739  11.856  68.313  1.00  0.00    -0.200 A  
HETATM   12  C   UNL     1     -11.016  12.391  68.481  1.00  0.00    -0.245 A  
HETATM   13  C   UNL     1     -11.968  11.713  69.243  1.00  0.00    -0.382 A  
HETATM   14  I   UNL     1     -11.508  14.201  67.587  1.00  0.00    -0.428 I  
HETATM   15  C   UNL     1     -11.642  10.491  69.831  1.00  0.00    -0.384 A  
ENDBRANCH   8   9
ENDBRANCH   6   8
ENDBRANCH   4   6
ENDBRANCH   2   4
TORSDOF 4
ENDMDL
MODEL      109
REMARK 921   NORMALIZED FREE ENERGY PREDICTED BY IDOCK:   -3.24 KCAL/MOL
REMARK 922        TOTAL FREE ENERGY PREDICTED BY IDOCK:   -4.77 KCAL/MOL
REMARK 923 INTER-LIGAND FREE ENERGY PREDICTED BY IDOCK:   -4.14 KCAL/MOL
REMARK 924 INTRA-LIGAND FREE ENERGY PREDICTED BY IDOCK:   -0.63 KCAL/MOL
REMARK 927      BINDING AFFINITY PREDICTED BY RF-SCORE:    0.00 PKD
ROOT
HETATM    1  C   UNL     1     -10.517   7.196  71.114  1.00  0.00    -0.225 C  
HETATM    2  C   UNL     1     -10.025   8.249  72.110  1.00  0.00    -0.273 C  
HETATM    3  C   UNL     1      -8.638   8.745  71.691  1.00  0.00    -0.228 C  
ENDROOT
BRANCH   2   4
HETATM    4  N   UNL     1     -10.913   9.416  72.198  1.00  0.00     0.073 NA 
HETATM    5  H   UNL     1     -10.721  10.195  72.828  1.00  0.00     0.000 HD 
BRANCH   4   6
HETATM    6  C   UNL     1     -12.100   9.396  71.320  1.00  0.00    -0.345 C  
HETATM    7  C   UNL     1     -13.373   9.080  72.115  1.00  0.00    -0.510 C  
BRANCH   6   8
HETATM    8  C   UNL     1     -12.281  10.762  70.608  1.00  0.00    -0.474 C  
BRANCH   8   9
HETATM    9  C   UNL     1     -11.740  10.811  69.194  1.00  0.00    -0.368 A  
HETATM   10  C   UNL     1     -11.802  11.991  68.442  1.00  0.00    -0.360 A  
HETATM   11  C   UNL     1     -11.284  12.033  67.144  1.00  0.00    -0.374 A  
HETATM   12  C   UNL     1     -10.706  10.890  66.591  1.00  0.00    -0.230 A  
HETATM   13  C   UNL     1     -10.646   9.706  67.326  1.00  0.00    -0.315 A  
HETATM   14  I   UNL     1      -9.925  10.951  64.667  1.00  0.00    -0.425 I  
HETATM   15  C   UNL     1     -11.159   9.669  68.623  1.00  0.00    -0.085 A  
ENDBRANCH   8   9
ENDBRANCH   6   8
ENDBRANCH   4   6
ENDBRANCH   2   4
TORSDOF 4
ENDMDL
MODEL      110
REMARK 921   NORMALIZED FREE ENERGY PREDICTED BY IDOCK:   -3.24 KCAL/MOL
REMARK 922        TOTAL FREE ENERGY PREDICTED BY IDOCK:   -4.76 KCAL/MOL
REMARK 923 INTER-LIGAND FREE ENERGY PREDICTED BY IDOCK:   -4.14 KCAL/MOL
REMARK 924 INTRA-LIGAND FREE ENERGY PREDICTED BY IDOCK:   -0.62 KCAL/MOL
REMARK 927      BINDING AFFINITY PREDICTED BY RF-SCORE:    0.00 PKD
ROOT
HETATM    1  C   UNL     1     -14.383   8.084  71.501  1.00  0.00    -0.546 C  
HETATM    2  C   UNL     1     -12.928   7.893  71.933  1.00  0.00    -0.298 C  
HETATM    3  C   UNL     1     -12.194   7.028  70.904  1.00  0.00    -0.388 C  
ENDROOT
BRANCH   2   4
HETATM    4  N   UNL     1     -12.195   9.161  72.060  1.00  0.00    -0.377 NA 
HETATM    5  H   UNL     1     -11.431   9.279  72.725  1.00  0.00     0.000 HD 
BRANCH   4   6
HETATM    6  C   UNL     1     -12.630  10.254  71.168  1.00  0.00    -0.400 C  
HETATM    7  C   UNL     1     -13.399  11.331  71.943  1.00  0.00    -0.413 C  
BRANCH   6   8
HETATM    8  C   UNL     1     -11.411  10.914  70.471  1.00  0.00    -0.314 C  
BRANCH   8   9
HETATM    9  C   UNL     1     -10.647   9.997  69.539  1.00  0.00    -0.267 A  
HETATM   10  C   UNL     1      -9.442   9.405  69.941  1.00  0.00    -0.235 A  
HETATM   11  C   UNL     1      -8.753   8.545  69.082  1.00  0.00    -0.134 A  
HETATM   12  C   UNL     1      -9.264   8.278  67.812  1.00  0.00    -0.134 A  
HETATM   13  C   UNL     1     -10.459   8.867  67.396  1.00  0.00    -0.347 A  
HETATM   14  I   UNL     1      -8.248   6.991  66.535  1.00  0.00    -0.129 I  
HETATM   15  C   UNL     1     -11.148   9.720  68.258  1.00  0.00    -0.158 A  
ENDBRANCH   8   9
ENDBRANCH   6   8
ENDBRANCH   4   6
ENDBRANCH   2   4
TORSDOF 4
ENDMDL
MODEL      111
REMARK 921   NORMALIZED FREE ENERGY PREDICTED BY IDOCK:   -3.23 KCAL/MOL
REMARK 922        TOTAL FREE ENERGY PREDICTED BY IDOCK:   -4.75 KCAL/MOL
REMARK 923 INTER-LIGAND FREE ENERGY PREDICTED BY IDOCK:   -4.58 KCAL/MOL
REMARK 924 INTRA-LIGAND FREE ENERGY PREDICTED BY IDOCK:   -0.17 KCAL/MOL
REMARK 927      BINDING AFFINITY PREDICTED BY RF-SCORE:    0.00 PKD
ROOT
HETATM    1  C   UNL     1     -10.770  19.114  67.317  1.00  0.00    -0.585 C  
HETATM    2  C   UNL     1     -10.287  17.682  67.561  1.00  0.00    -0.365 C  
HETATM    3  C   UNL     1     -10.290  17.386  69.064  1.00  0.00    -0.319 C  
ENDROOT
BRANCH   2   4
HETATM    4  N   UNL     1     -11.128  16.672  66.902  1.00  0.00     0.071 NA 
HETATM    5  H   UNL     1     -12.055  16.430  67.252  1.00  0.00     0.000 HD 
BRANCH   4   6
HETATM    6  C   UNL     1     -10.552  16.031  65.704  1.00  0.00    -0.377 C  
HETATM    7  C   UNL     1      -9.188  15.403  66.011  1.00  0.00    -0.333 C  
BRANCH   6   8
HETATM    8  C   UNL     1     -11.500  14.928  65.162  1.00  0.00    -0.357 C  
BRANCH   8   9
HETATM    9  C   UNL     1     -11.161  13.525  65.620  1.00  0.00    -0.304 A  
HETATM   10  C   UNL     1     -11.540  13.074  66.892  1.00  0.00    -0.419 A  
HETATM   11  C   UNL     1     -11.240  11.772  67.300  1.00  0.00    -0.364 A  
HETATM   12  C   UNL     1     -10.553  10.916  66.439  1.00  0.00    -0.229 A  
HETATM   13  C   UNL     1     -10.163  11.355  65.174  1.00  0.00    -0.328 A  
HETATM   14  I   UNL     1     -10.115   8.976  67.039  1.00  0.00    -0.326 I  
HETATM   15  C   UNL     1     -10.469  12.653  64.766  1.00  0.00    -0.343 A  
ENDBRANCH   8   9
ENDBRANCH   6   8
ENDBRANCH   4   6
ENDBRANCH   2   4
TORSDOF 4
ENDMDL
MODEL      112
REMARK 921   NORMALIZED FREE ENERGY PREDICTED BY IDOCK:   -3.19 KCAL/MOL
REMARK 922        TOTAL FREE ENERGY PREDICTED BY IDOCK:   -4.70 KCAL/MOL
REMARK 923 INTER-LIGAND FREE ENERGY PREDICTED BY IDOCK:   -4.03 KCAL/MOL
REMARK 924 INTRA-LIGAND FREE ENERGY PREDICTED BY IDOCK:   -0.67 KCAL/MOL
REMARK 927      BINDING AFFINITY PREDICTED BY RF-SCORE:    0.00 PKD
ROOT
HETATM    1  C   UNL     1      -9.322  14.367  66.469  1.00  0.00    -0.300 C  
HETATM    2  C   UNL     1     -10.667  14.543  65.762  1.00  0.00    -0.315 C  
HETATM    3  C   UNL     1     -10.850  16.008  65.357  1.00  0.00    -0.340 C  
ENDROOT
BRANCH   2   4
HETATM    4  N   UNL     1     -10.789  13.722  64.548  1.00  0.00    -0.487 NA 
HETATM    5  H   UNL     1     -10.340  13.986  63.671  1.00  0.00     0.000 HD 
BRANCH   4   6
HETATM    6  C   UNL     1     -11.599  12.494  64.674  1.00  0.00    -0.343 C  
HETATM    7  C   UNL     1     -12.644  12.401  63.556  1.00  0.00    -0.535 C  
BRANCH   6   8
HETATM    8  C   UNL     1     -10.697  11.233  64.622  1.00  0.00    -0.371 C  
BRANCH   8   9
HETATM    9  C   UNL     1      -9.988  10.912  65.921  1.00  0.00    -0.294 A  
HETATM   10  C   UNL     1     -10.709  10.734  67.109  1.00  0.00    -0.324 A  
HETATM   11  C   UNL     1     -10.049  10.420  68.300  1.00  0.00    -0.174 A  
HETATM   12  C   UNL     1      -8.660  10.289  68.309  1.00  0.00    -0.122 A  
HETATM   13  C   UNL     1      -7.928  10.472  67.135  1.00  0.00    -0.116 A  
HETATM   14  I   UNL     1      -7.676   9.812  70.075  1.00  0.00    -0.131 I  
HETATM   15  C   UNL     1      -8.591  10.779  65.947  1.00  0.00    -0.182 A  
ENDBRANCH   8   9
ENDBRANCH   6   8
ENDBRANCH   4   6
ENDBRANCH   2   4
TORSDOF 4
ENDMDL
MODEL      113
REMARK 921   NORMALIZED FREE ENERGY PREDICTED BY IDOCK:   -3.19 KCAL/MOL
REMARK 922        TOTAL FREE ENERGY PREDICTED BY IDOCK:   -4.70 KCAL/MOL
REMARK 923 INTER-LIGAND FREE ENERGY PREDICTED BY IDOCK:   -4.36 KCAL/MOL
REMARK 924 INTRA-LIGAND FREE ENERGY PREDICTED BY IDOCK:   -0.34 KCAL/MOL
REMARK 927      BINDING AFFINITY PREDICTED BY RF-SCORE:    0.00 PKD
ROOT
HETATM    1  C   UNL     1      -7.989   9.386  66.808  1.00  0.00    -0.108 C  
HETATM    2  C   UNL     1      -9.060   8.721  65.939  1.00  0.00    -0.218 C  
HETATM    3  C   UNL     1      -9.594   7.472  66.644  1.00  0.00    -0.263 C  
ENDROOT
BRANCH   2   4
HETATM    4  N   UNL     1     -10.202   9.604  65.660  1.00  0.00    -0.257 NA 
HETATM    5  H   UNL     1     -11.148   9.375  65.965  1.00  0.00     0.000 HD 
BRANCH   4   6
HETATM    6  C   UNL     1      -9.899  10.840  64.912  1.00  0.00    -0.292 C  
HETATM    7  C   UNL     1      -9.488  10.530  63.468  1.00  0.00    -0.352 C  
BRANCH   6   8
HETATM    8  C   UNL     1     -11.130  11.785  64.891  1.00  0.00    -0.345 C  
BRANCH   8   9
HETATM    9  C   UNL     1     -11.263  12.673  66.110  1.00  0.00    -0.350 A  
HETATM   10  C   UNL     1     -11.654  12.142  67.346  1.00  0.00    -0.410 A  
HETATM   11  C   UNL     1     -11.757  12.965  68.471  1.00  0.00    -0.374 A  
HETATM   12  C   UNL     1     -11.474  14.327  68.362  1.00  0.00    -0.301 A  
HETATM   13  C   UNL     1     -11.092  14.870  67.135  1.00  0.00    -0.332 A  
HETATM   14  I   UNL     1     -11.615  15.551  70.034  1.00  0.00    -0.457 I  
HETATM   15  C   UNL     1     -10.985  14.045  66.016  1.00  0.00    -0.298 A  
ENDBRANCH   8   9
ENDBRANCH   6   8
ENDBRANCH   4   6
ENDBRANCH   2   4
TORSDOF 4
ENDMDL
MODEL      114
REMARK 921   NORMALIZED FREE ENERGY PREDICTED BY IDOCK:   -3.18 KCAL/MOL
REMARK 922        TOTAL FREE ENERGY PREDICTED BY IDOCK:   -4.69 KCAL/MOL
REMARK 923 INTER-LIGAND FREE ENERGY PREDICTED BY IDOCK:   -4.48 KCAL/MOL
REMARK 924 INTRA-LIGAND FREE ENERGY PREDICTED BY IDOCK:   -0.22 KCAL/MOL
REMARK 927      BINDING AFFINITY PREDICTED BY RF-SCORE:    0.00 PKD
ROOT
HETATM    1  C   UNL     1     -11.895  16.049  69.223  1.00  0.00    -0.264 C  
HETATM    2  C   UNL     1     -11.620  14.544  69.246  1.00  0.00    -0.302 C  
HETATM    3  C   UNL     1     -12.249  13.924  70.497  1.00  0.00    -0.443 C  
ENDROOT
BRANCH   2   4
HETATM    4  N   UNL     1     -12.163  13.843  68.074  1.00  0.00    -0.489 NA 
HETATM    5  H   UNL     1     -13.167  13.738  67.925  1.00  0.00     0.000 HD 
BRANCH   4   6
HETATM    6  C   UNL     1     -11.172  13.301  67.124  1.00  0.00    -0.299 C  
HETATM    7  C   UNL     1      -9.740  13.605  67.582  1.00  0.00    -0.228 C  
BRANCH   6   8
HETATM    8  C   UNL     1     -11.335  11.766  66.975  1.00  0.00    -0.387 C  
BRANCH   8   9
HETATM    9  C   UNL     1     -11.040  10.976  68.234  1.00  0.00    -0.316 A  
HETATM   10  C   UNL     1     -12.002  10.851  69.245  1.00  0.00    -0.382 A  
HETATM   11  C   UNL     1     -11.729  10.106  70.395  1.00  0.00    -0.390 A  
HETATM   12  C   UNL     1     -10.488   9.486  70.541  1.00  0.00    -0.296 A  
HETATM   13  C   UNL     1      -9.518   9.609  69.545  1.00  0.00    -0.211 A  
HETATM   14  I   UNL     1     -10.082   8.367  72.244  1.00  0.00    -0.296 I  
HETATM   15  C   UNL     1      -9.796  10.349  68.396  1.00  0.00    -0.173 A  
ENDBRANCH   8   9
ENDBRANCH   6   8
ENDBRANCH   4   6
ENDBRANCH   2   4
TORSDOF 4
ENDMDL
MODEL      115
REMARK 921   NORMALIZED FREE ENERGY PREDICTED BY IDOCK:   -3.17 KCAL/MOL
REMARK 922        TOTAL FREE ENERGY PREDICTED BY IDOCK:   -4.68 KCAL/MOL
REMARK 923 INTER-LIGAND FREE ENERGY PREDICTED BY IDOCK:   -4.23 KCAL/MOL
REMARK 924 INTRA-LIGAND FREE ENERGY PREDICTED BY IDOCK:   -0.44 KCAL/MOL
REMARK 927      BINDING AFFINITY PREDICTED BY RF-SCORE:    0.00 PKD
ROOT
HETATM    1  C   UNL     1     -10.773   9.489  71.205  1.00  0.00    -0.408 C  
HETATM    2  C   UNL     1     -11.512  10.269  70.115  1.00  0.00    -0.309 C  
HETATM    3  C   UNL     1     -12.904  10.664  70.617  1.00  0.00    -0.404 C  
ENDROOT
BRANCH   2   4
HETATM    4  N   UNL     1     -10.812  11.498  69.715  1.00  0.00    -0.453 NA 
HETATM    5  H   UNL     1     -10.617  12.248  70.378  1.00  0.00     0.000 HD 
BRANCH   4   6
HETATM    6  C   UNL     1     -10.407  11.582  68.298  1.00  0.00    -0.197 C  
HETATM    7  C   UNL     1     -10.845  10.335  67.520  1.00  0.00    -0.355 C  
BRANCH   6   8
HETATM    8  C   UNL     1     -11.024  12.835  67.623  1.00  0.00    -0.274 C  
BRANCH   8   9
HETATM    9  C   UNL     1     -10.037  13.948  67.341  1.00  0.00    -0.244 A  
HETATM   10  C   UNL     1      -8.729  13.891  67.838  1.00  0.00    -0.184 A  
HETATM   11  C   UNL     1      -7.818  14.914  67.558  1.00  0.00    -0.206 A  
HETATM   12  C   UNL     1      -8.216  16.004  66.783  1.00  0.00    -0.272 A  
HETATM   13  C   UNL     1      -9.519  16.077  66.289  1.00  0.00    -0.347 A  
HETATM   14  I   UNL     1      -6.863  17.521  66.355  1.00  0.00    -0.297 I  
HETATM   15  C   UNL     1     -10.423  15.052  66.565  1.00  0.00    -0.285 A  
ENDBRANCH   8   9
ENDBRANCH   6   8
ENDBRANCH   4   6
ENDBRANCH   2   4
TORSDOF 4
ENDMDL
MODEL      116
REMARK 921   NORMALIZED FREE ENERGY PREDICTED BY IDOCK:   -3.17 KCAL/MOL
REMARK 922        TOTAL FREE ENERGY PREDICTED BY IDOCK:   -4.67 KCAL/MOL
REMARK 923 INTER-LIGAND FREE ENERGY PREDICTED BY IDOCK:   -4.59 KCAL/MOL
REMARK 924 INTRA-LIGAND FREE ENERGY PREDICTED BY IDOCK:   -0.08 KCAL/MOL
REMARK 927      BINDING AFFINITY PREDICTED BY RF-SCORE:    0.00 PKD
ROOT
HETATM    1  C   UNL     1      -8.905   5.171  73.540  1.00  0.00    -0.116 C  
HETATM    2  C   UNL     1     -10.039   5.004  72.526  1.00  0.00    -0.183 C  
HETATM    3  C   UNL     1     -11.354   4.736  73.262  1.00  0.00    -0.408 C  
ENDROOT
BRANCH   2   4
HETATM    4  N   UNL     1     -10.230   6.189  71.678  1.00  0.00    -0.194 NA 
HETATM    5  H   UNL     1      -9.816   6.260  70.748  1.00  0.00     0.000 HD 
BRANCH   4   6
HETATM    6  C   UNL     1     -11.056   7.271  72.250  1.00  0.00    -0.260 C  
HETATM    7  C   UNL     1     -10.190   8.454  72.696  1.00  0.00    -0.320 C  
BRANCH   6   8
HETATM    8  C   UNL     1     -12.097   7.774  71.216  1.00  0.00    -0.328 C  
BRANCH   8   9
HETATM    9  C   UNL     1     -12.261   9.278  71.169  1.00  0.00    -0.373 A  
HETATM   10  C   UNL     1     -13.103   9.938  72.074  1.00  0.00    -0.545 A  
HETATM   11  C   UNL     1     -13.234  11.329  72.036  1.00  0.00    -0.437 A  
HETATM   12  C   UNL     1     -12.527  12.066  71.085  1.00  0.00    -0.249 A  
HETATM   13  C   UNL     1     -11.692  11.421  70.173  1.00  0.00    -0.414 A  
HETATM   14  I   UNL     1     -12.711  14.135  71.032  1.00  0.00    -0.408 I  
HETATM   15  C   UNL     1     -11.558  10.033  70.218  1.00  0.00    -0.354 A  
ENDBRANCH   8   9
ENDBRANCH   6   8
ENDBRANCH   4   6
ENDBRANCH   2   4
TORSDOF 4
ENDMDL
MODEL      117
REMARK 921   NORMALIZED FREE ENERGY PREDICTED BY IDOCK:   -3.16 KCAL/MOL
REMARK 922        TOTAL FREE ENERGY PREDICTED BY IDOCK:   -4.66 KCAL/MOL
REMARK 923 INTER-LIGAND FREE ENERGY PREDICTED BY IDOCK:   -4.24 KCAL/MOL
REMARK 924 INTRA-LIGAND FREE ENERGY PREDICTED BY IDOCK:   -0.42 KCAL/MOL
REMARK 927      BINDING AFFINITY PREDICTED BY RF-SCORE:    0.00 PKD
ROOT
HETATM    1  C   UNL     1     -10.052   7.528  72.309  1.00  0.00    -0.244 C  
HETATM    2  C   UNL     1     -11.044   8.358  71.491  1.00  0.00    -0.266 C  
HETATM    3  C   UNL     1     -12.313   8.603  72.312  1.00  0.00    -0.449 C  
ENDROOT
BRANCH   2   4
HETATM    4  N   UNL     1     -10.506   9.666  71.091  1.00  0.00    -0.282 NA 
HETATM    5  H   UNL     1     -10.165  10.341  71.776  1.00  0.00     0.000 HD 
BRANCH   4   6
HETATM    6  C   UNL     1     -10.486   9.945  69.642  1.00  0.00    -0.249 C  
HETATM    7  C   UNL     1     -10.497   8.647  68.826  1.00  0.00    -0.209 C  
BRANCH   6   8
HETATM    8  C   UNL     1     -11.709  10.806  69.231  1.00  0.00    -0.374 C  
BRANCH   8   9
HETATM    9  C   UNL     1     -11.364  12.058  68.451  1.00  0.00    -0.332 A  
HETATM   10  C   UNL     1     -10.510  12.001  67.342  1.00  0.00    -0.239 A  
HETATM   11  C   UNL     1     -10.211  13.158  66.617  1.00  0.00    -0.259 A  
HETATM   12  C   UNL     1     -10.762  14.380  67.004  1.00  0.00    -0.285 A  
HETATM   13  C   UNL     1     -11.607  14.452  68.111  1.00  0.00    -0.360 A  
HETATM   14  I   UNL     1     -10.330  16.100  65.922  1.00  0.00    -0.323 I  
HETATM   15  C   UNL     1     -11.908  13.294  68.829  1.00  0.00    -0.371 A  
ENDBRANCH   8   9
ENDBRANCH   6   8
ENDBRANCH   4   6
ENDBRANCH   2   4
TORSDOF 4
ENDMDL
MODEL      118
REMARK 921   NORMALIZED FREE ENERGY PREDICTED BY IDOCK:   -3.16 KCAL/MOL
REMARK 922        TOTAL FREE ENERGY PREDICTED BY IDOCK:   -4.66 KCAL/MOL
REMARK 923 INTER-LIGAND FREE ENERGY PREDICTED BY IDOCK:   -3.96 KCAL/MOL
REMARK 924 INTRA-LIGAND FREE ENERGY PREDICTED BY IDOCK:   -0.70 KCAL/MOL
REMARK 927      BINDING AFFINITY PREDICTED BY RF-SCORE:    0.00 PKD
ROOT
HETATM    1  C   UNL     1      -9.822   9.478  70.716  1.00  0.00    -0.309 C  
HETATM    2  C   UNL     1     -11.288   9.584  71.142  1.00  0.00    -0.370 C  
HETATM    3  C   UNL     1     -11.940  10.784  70.451  1.00  0.00    -0.448 C  
ENDROOT
BRANCH   2   4
HETATM    4  N   UNL     1     -12.071   8.387  70.801  1.00  0.00    -0.485 NA 
HETATM    5  H   UNL     1     -13.060   8.442  70.556  1.00  0.00     0.000 HD 
BRANCH   4   6
HETATM    6  C   UNL     1     -11.344   7.104  70.835  1.00  0.00    -0.286 C  
HETATM    7  C   UNL     1     -11.825   6.222  71.993  1.00  0.00    -0.370 C  
BRANCH   6   8
HETATM    8  C   UNL     1     -11.534   6.329  69.504  1.00  0.00    -0.387 C  
BRANCH   8   9
HETATM    9  C   UNL     1     -10.460   6.586  68.467  1.00  0.00    -0.257 A  
HETATM   10  C   UNL     1      -9.318   5.777  68.399  1.00  0.00    -0.130 A  
HETATM   11  C   UNL     1      -8.341   6.009  67.428  1.00  0.00    -0.105 A  
HETATM   12  C   UNL     1      -8.499   7.058  66.522  1.00  0.00    -0.125 A  
HETATM   13  C   UNL     1      -9.627   7.877  66.584  1.00  0.00    -0.293 A  
HETATM   14  I   UNL     1      -7.054   7.400  65.070  1.00  0.00    -0.075 I  
HETATM   15  C   UNL     1     -10.604   7.639  67.551  1.00  0.00    -0.323 A  
ENDBRANCH   8   9
ENDBRANCH   6   8
ENDBRANCH   4   6
ENDBRANCH   2   4
TORSDOF 4
ENDMDL
MODEL      119
REMARK 921   NORMALIZED FREE ENERGY PREDICTED BY IDOCK:   -3.13 KCAL/MOL
REMARK 922        TOTAL FREE ENERGY PREDICTED BY IDOCK:   -4.63 KCAL/MOL
REMARK 923 INTER-LIGAND FREE ENERGY PREDICTED BY IDOCK:   -4.08 KCAL/MOL
REMARK 924 INTRA-LIGAND FREE ENERGY PREDICTED BY IDOCK:   -0.55 KCAL/MOL
REMARK 927      BINDING AFFINITY PREDICTED BY RF-SCORE:    0.00 PKD
ROOT
HETATM    1  C   UNL     1      -9.533   4.599  67.857  1.00  0.00    -0.194 C  
HETATM    2  C   UNL     1     -10.267   5.489  66.851  1.00  0.00    -0.233 C  
HETATM    3  C   UNL     1     -11.103   6.532  67.598  1.00  0.00    -0.380 C  
ENDROOT
BRANCH   2   4
HETATM    4  N   UNL     1      -9.356   6.205  65.946  1.00  0.00    -0.353 NA 
HETATM    5  H   UNL     1      -8.997   5.778  65.092  1.00  0.00     0.000 HD 
BRANCH   4   6
HETATM    6  C   UNL     1      -8.991   7.579  66.346  1.00  0.00    -0.167 C  
HETATM    7  C   UNL     1      -7.656   7.603  67.098  1.00  0.00    -0.104 C  
BRANCH   6   8
HETATM    8  C   UNL     1      -8.883   8.503  65.104  1.00  0.00    -0.116 C  
BRANCH   8   9
HETATM    9  C   UNL     1      -9.700   9.775  65.193  1.00  0.00    -0.338 A  
HETATM   10  C   UNL     1     -10.331  10.142  66.389  1.00  0.00    -0.258 A  
HETATM   11  C   UNL     1     -11.068  11.326  66.468  1.00  0.00    -0.280 A  
HETATM   12  C   UNL     1     -11.182  12.148  65.346  1.00  0.00    -0.333 A  
HETATM   13  C   UNL     1     -10.566  11.790  64.147  1.00  0.00    -0.403 A  
HETATM   14  I   UNL     1     -12.267  13.916  65.463  1.00  0.00    -0.525 I  
HETATM   15  C   UNL     1      -9.826  10.610  64.073  1.00  0.00    -0.399 A  
ENDBRANCH   8   9
ENDBRANCH   6   8
ENDBRANCH   4   6
ENDBRANCH   2   4
TORSDOF 4
ENDMDL
MODEL      120
REMARK 921   NORMALIZED FREE ENERGY PREDICTED BY IDOCK:   -3.13 KCAL/MOL
REMARK 922        TOTAL FREE ENERGY PREDICTED BY IDOCK:   -4.63 KCAL/MOL
REMARK 923 INTER-LIGAND FREE ENERGY PREDICTED BY IDOCK:   -4.53 KCAL/MOL
REMARK 924 INTRA-LIGAND FREE ENERGY PREDICTED BY IDOCK:   -0.10 KCAL/MOL
REMARK 927      BINDING AFFINITY PREDICTED BY RF-SCORE:    0.00 PKD
ROOT
HETATM    1  C   UNL     1      -8.234  19.833  68.454  1.00  0.00    -0.296 C  
HETATM    2  C   UNL     1      -8.947  19.359  67.186  1.00  0.00    -0.297 C  
HETATM    3  C   UNL     1      -7.912  18.954  66.133  1.00  0.00    -0.256 C  
ENDROOT
BRANCH   2   4
HETATM    4  N   UNL     1      -9.828  18.206  67.419  1.00  0.00    -0.302 NA 
HETATM    5  H   UNL     1     -10.706  18.087  66.914  1.00  0.00     0.000 HD 
BRANCH   4   6
HETATM    6  C   UNL     1      -9.366  17.230  68.425  1.00  0.00    -0.275 C  
HETATM    7  C   UNL     1     -10.542  16.663  69.230  1.00  0.00    -0.343 C  
BRANCH   6   8
HETATM    8  C   UNL     1      -8.611  16.056  67.748  1.00  0.00    -0.168 C  
BRANCH   8   9
HETATM    9  C   UNL     1      -9.459  15.216  66.817  1.00  0.00    -0.260 A  
HETATM   10  C   UNL     1     -10.095  15.791  65.709  1.00  0.00    -0.399 A  
HETATM   11  C   UNL     1     -10.862  15.005  64.844  1.00  0.00    -0.430 A  
HETATM   12  C   UNL     1     -11.000  13.638  65.088  1.00  0.00    -0.330 A  
HETATM   13  C   UNL     1     -10.378  13.054  66.192  1.00  0.00    -0.285 A  
HETATM   14  I   UNL     1     -12.128  12.464  63.798  1.00  0.00    -0.637 I  
HETATM   15  C   UNL     1      -9.609  13.841  67.050  1.00  0.00    -0.251 A  
ENDBRANCH   8   9
ENDBRANCH   6   8
ENDBRANCH   4   6
ENDBRANCH   2   4
TORSDOF 4
ENDMDL
MODEL      121
REMARK 921   NORMALIZED FREE ENERGY PREDICTED BY IDOCK:   -3.13 KCAL/MOL
REMARK 922        TOTAL FREE ENERGY PREDICTED BY IDOCK:   -4.62 KCAL/MOL
REMARK 923 INTER-LIGAND FREE ENERGY PREDICTED BY IDOCK:   -4.30 KCAL/MOL
REMARK 924 INTRA-LIGAND FREE ENERGY PREDICTED BY IDOCK:   -0.32 KCAL/MOL
REMARK 927      BINDING AFFINITY PREDICTED BY RF-SCORE:    0.00 PKD
ROOT
HETATM    1  C   UNL     1     -12.043  15.929  71.656  1.00  0.00    -0.554 C  
HETATM    2  C   UNL     1     -12.162  14.598  70.910  1.00  0.00    -0.323 C  
HETATM    3  C   UNL     1     -13.178  13.698  71.620  1.00  0.00    -0.447 C  
ENDROOT
BRANCH   2   4
HETATM    4  N   UNL     1     -12.598  14.758  69.516  1.00  0.00    -0.578 NA 
HETATM    5  H   UNL     1     -13.269  15.476  69.240  1.00  0.00     0.000 HD 
BRANCH   4   6
HETATM    6  C   UNL     1     -12.009  13.822  68.539  1.00  0.00    -0.367 C  
HETATM    7  C   UNL     1     -11.478  14.565  67.308  1.00  0.00    -0.381 C  
BRANCH   6   8
HETATM    8  C   UNL     1     -10.846  13.019  69.179  1.00  0.00    -0.133 C  
BRANCH   8   9
HETATM    9  C   UNL     1     -10.264  11.939  68.293  1.00  0.00    -0.207 A  
HETATM   10  C   UNL     1      -9.013  12.105  67.683  1.00  0.00    -0.178 A  
HETATM   11  C   UNL     1      -8.475  11.096  66.880  1.00  0.00    -0.147 A  
HETATM   12  C   UNL     1      -9.189   9.914  66.680  1.00  0.00    -0.153 A  
HETATM   13  C   UNL     1     -10.439   9.738  67.275  1.00  0.00    -0.324 A  
HETATM   14  I   UNL     1      -8.388   8.406  65.498  1.00  0.00    -0.172 I  
HETATM   15  C   UNL     1     -10.971  10.746  68.080  1.00  0.00    -0.336 A  
ENDBRANCH   8   9
ENDBRANCH   6   8
ENDBRANCH   4   6
ENDBRANCH   2   4
TORSDOF 4
ENDMDL
MODEL      122
REMARK 921   NORMALIZED FREE ENERGY PREDICTED BY IDOCK:   -3.08 KCAL/MOL
REMARK 922        TOTAL FREE ENERGY PREDICTED BY IDOCK:   -4.57 KCAL/MOL
REMARK 923 INTER-LIGAND FREE ENERGY PREDICTED BY IDOCK:   -4.84 KCAL/MOL
REMARK 924 INTRA-LIGAND FREE ENERGY PREDICTED BY IDOCK:    0.27 KCAL/MOL
REMARK 927      BINDING AFFINITY PREDICTED BY RF-SCORE:    0.00 PKD
ROOT
HETATM    1  C   UNL     1     -10.289  19.072  67.125  1.00  0.00    -0.496 C  
HETATM    2  C   UNL     1     -10.208  17.657  66.548  1.00  0.00    -0.355 C  
HETATM    3  C   UNL     1      -8.768  17.356  66.123  1.00  0.00    -0.182 C  
ENDROOT
BRANCH   2   4
HETATM    4  N   UNL     1     -10.620  16.621  67.507  1.00  0.00    -0.323 NA 
HETATM    5  H   UNL     1     -11.260  16.822  68.276  1.00  0.00     0.000 HD 
BRANCH   4   6
HETATM    6  C   UNL     1     -10.055  15.275  67.292  1.00  0.00    -0.236 C  
HETATM    7  C   UNL     1      -9.341  14.765  68.549  1.00  0.00    -0.199 C  
BRANCH   6   8
HETATM    8  C   UNL     1     -11.168  14.267  66.903  1.00  0.00    -0.333 C  
BRANCH   8   9
HETATM    9  C   UNL     1     -11.493  13.245  67.973  1.00  0.00    -0.344 A  
HETATM   10  C   UNL     1     -11.871  13.649  69.260  1.00  0.00    -0.395 A  
HETATM   11  C   UNL     1     -12.188  12.700  70.236  1.00  0.00    -0.347 A  
HETATM   12  C   UNL     1     -12.122  11.341  69.929  1.00  0.00    -0.341 A  
HETATM   13  C   UNL     1     -11.739  10.925  68.653  1.00  0.00    -0.334 A  
HETATM   14  I   UNL     1     -12.603   9.927  71.374  1.00  0.00    -0.568 I  
HETATM   15  C   UNL     1     -11.430  11.875  67.680  1.00  0.00    -0.387 A  
ENDBRANCH   8   9
ENDBRANCH   6   8
ENDBRANCH   4   6
ENDBRANCH   2   4
TORSDOF 4
ENDMDL
MODEL      123
REMARK 921   NORMALIZED FREE ENERGY PREDICTED BY IDOCK:   -3.08 KCAL/MOL
REMARK 922        TOTAL FREE ENERGY PREDICTED BY IDOCK:   -4.57 KCAL/MOL
REMARK 923 INTER-LIGAND FREE ENERGY PREDICTED BY IDOCK:   -4.11 KCAL/MOL
REMARK 924 INTRA-LIGAND FREE ENERGY PREDICTED BY IDOCK:   -0.46 KCAL/MOL
REMARK 927      BINDING AFFINITY PREDICTED BY RF-SCORE:    0.00 PKD
ROOT
HETATM    1  C   UNL     1      -9.529   8.921  71.943  1.00  0.00    -0.301 C  
HETATM    2  C   UNL     1     -10.540   9.277  70.851  1.00  0.00    -0.296 C  
HETATM    3  C   UNL     1     -11.871   9.679  71.492  1.00  0.00    -0.483 C  
ENDROOT
BRANCH   2   4
HETATM    4  N   UNL     1     -10.096  10.389  69.998  1.00  0.00    -0.436 NA 
HETATM    5  H   UNL     1      -9.747  11.264  70.390  1.00  0.00     0.000 HD 
BRANCH   4   6
HETATM    6  C   UNL     1     -10.184  10.165  68.542  1.00  0.00    -0.174 C  
HETATM    7  C   UNL     1     -10.119   8.671  68.204  1.00  0.00    -0.236 C  
BRANCH   6   8
HETATM    8  C   UNL     1     -11.505  10.749  67.974  1.00  0.00    -0.333 C  
BRANCH   8   9
HETATM    9  C   UNL     1     -11.371  12.129  67.365  1.00  0.00    -0.393 A  
HETATM   10  C   UNL     1     -11.271  13.267  68.177  1.00  0.00    -0.302 A  
HETATM   11  C   UNL     1     -11.130  14.535  67.607  1.00  0.00    -0.314 A  
HETATM   12  C   UNL     1     -11.094  14.671  66.219  1.00  0.00    -0.336 A  
HETATM   13  C   UNL     1     -11.202  13.548  65.399  1.00  0.00    -0.301 A  
HETATM   14  I   UNL     1     -10.873  16.553  65.368  1.00  0.00     0.188 I  
HETATM   15  C   UNL     1     -11.337  12.283  65.971  1.00  0.00    -0.398 A  
ENDBRANCH   8   9
ENDBRANCH   6   8
ENDBRANCH   4   6
ENDBRANCH   2   4
TORSDOF 4
ENDMDL
MODEL      124
REMARK 921   NORMALIZED FREE ENERGY PREDICTED BY IDOCK:   -3.08 KCAL/MOL
REMARK 922        TOTAL FREE ENERGY PREDICTED BY IDOCK:   -4.57 KCAL/MOL
REMARK 923 INTER-LIGAND FREE ENERGY PREDICTED BY IDOCK:   -4.36 KCAL/MOL
REMARK 924 INTRA-LIGAND FREE ENERGY PREDICTED BY IDOCK:   -0.21 KCAL/MOL
REMARK 927      BINDING AFFINITY PREDICTED BY RF-SCORE:    0.00 PKD
ROOT
HETATM    1  C   UNL     1      -5.796  18.703  68.408  1.00  0.00    -0.199 C  
HETATM    2  C   UNL     1      -7.090  18.137  68.999  1.00  0.00    -0.235 C  
HETATM    3  C   UNL     1      -8.287  18.941  68.483  1.00  0.00    -0.384 C  
ENDROOT
BRANCH   2   4
HETATM    4  N   UNL     1      -7.310  16.726  68.650  1.00  0.00    -0.206 NA 
HETATM    5  H   UNL     1      -6.650  15.995  68.916  1.00  0.00     0.000 HD 
BRANCH   4   6
HETATM    6  C   UNL     1      -8.543  16.429  67.895  1.00  0.00    -0.175 C  
HETATM    7  C   UNL     1      -8.311  16.549  66.384  1.00  0.00    -0.358 C  
BRANCH   6   8
HETATM    8  C   UNL     1      -9.051  14.998  68.212  1.00  0.00    -0.182 C  
BRANCH   8   9
HETATM    9  C   UNL     1     -10.288  14.948  69.083  1.00  0.00    -0.246 A  
HETATM   10  C   UNL     1     -10.555  15.962  70.012  1.00  0.00    -0.320 A  
HETATM   11  C   UNL     1     -11.709  15.917  70.799  1.00  0.00    -0.433 A  
HETATM   12  C   UNL     1     -12.600  14.852  70.665  1.00  0.00    -0.363 A  
HETATM   13  C   UNL     1     -12.342  13.831  69.749  1.00  0.00    -0.311 A  
HETATM   14  I   UNL     1     -14.321  14.788  71.825  1.00  0.00    -0.636 I  
HETATM   15  C   UNL     1     -11.193  13.882  68.960  1.00  0.00    -0.312 A  
ENDBRANCH   8   9
ENDBRANCH   6   8
ENDBRANCH   4   6
ENDBRANCH   2   4
TORSDOF 4
ENDMDL
MODEL      125
REMARK 921   NORMALIZED FREE ENERGY PREDICTED BY IDOCK:   -3.06 KCAL/MOL
REMARK 922        TOTAL FREE ENERGY PREDICTED BY IDOCK:   -4.54 KCAL/MOL
REMARK 923 INTER-LIGAND FREE ENERGY PREDICTED BY IDOCK:   -3.89 KCAL/MOL
REMARK 924 INTRA-LIGAND FREE ENERGY PREDICTED BY IDOCK:   -0.65 KCAL/MOL
REMARK 927      BINDING AFFINITY PREDICTED BY RF-SCORE:    0.00 PKD
ROOT
HETATM    1  C   UNL     1     -11.515  13.233  69.244  1.00  0.00    -0.345 C  
HETATM    2  C   UNL     1     -12.153  12.230  68.280  1.00  0.00    -0.026 C  
HETATM    3  C   UNL     1     -11.319  12.145  66.999  1.00  0.00    -0.398 C  
ENDROOT
BRANCH   2   4
HETATM    4  N   UNL     1     -12.253  10.876  68.843  1.00  0.00    -0.764 NA 
HETATM    5  H   UNL     1     -12.560  10.080  68.284  1.00  0.00     0.000 HD 
BRANCH   4   6
HETATM    6  C   UNL     1     -11.883  10.736  70.265  1.00  0.00    -0.349 C  
HETATM    7  C   UNL     1     -13.075  10.266  71.106  1.00  0.00    -0.481 C  
BRANCH   6   8
HETATM    8  C   UNL     1     -10.721   9.721  70.433  1.00  0.00    -0.368 C  
BRANCH   8   9
HETATM    9  C   UNL     1      -9.965   9.414  69.158  1.00  0.00    -0.184 A  
HETATM   10  C   UNL     1      -8.854  10.179  68.778  1.00  0.00    -0.146 A  
HETATM   11  C   UNL     1      -8.150   9.877  67.609  1.00  0.00    -0.110 A  
HETATM   12  C   UNL     1      -8.559   8.809  66.810  1.00  0.00    -0.115 A  
HETATM   13  C   UNL     1      -9.668   8.044  67.172  1.00  0.00    -0.255 A  
HETATM   14  I   UNL     1      -7.509   8.350  65.078  1.00  0.00    -0.106 I  
HETATM   15  C   UNL     1     -10.365   8.344  68.343  1.00  0.00    -0.239 A  
ENDBRANCH   8   9
ENDBRANCH   6   8
ENDBRANCH   4   6
ENDBRANCH   2   4
TORSDOF 4
ENDMDL
MODEL      126
REMARK 921   NORMALIZED FREE ENERGY PREDICTED BY IDOCK:   -3.05 KCAL/MOL
REMARK 922        TOTAL FREE ENERGY PREDICTED BY IDOCK:   -4.52 KCAL/MOL
REMARK 923 INTER-LIGAND FREE ENERGY PREDICTED BY IDOCK:   -3.98 KCAL/MOL
REMARK 924 INTRA-LIGAND FREE ENERGY PREDICTED BY IDOCK:   -0.54 KCAL/MOL
REMARK 927      BINDING AFFINITY PREDICTED BY RF-SCORE:    0.00 PKD
ROOT
HETATM    1  C   UNL     1     -11.650  14.166  64.820  1.00  0.00    -0.400 C  
HETATM    2  C   UNL     1     -11.126  13.551  66.119  1.00  0.00    -0.291 C  
HETATM    3  C   UNL     1      -9.867  14.296  66.572  1.00  0.00    -0.299 C  
ENDROOT
BRANCH   2   4
HETATM    4  N   UNL     1     -12.102  13.609  67.217  1.00  0.00    -0.371 NA 
HETATM    5  H   UNL     1     -13.063  13.919  67.069  1.00  0.00     0.000 HD 
BRANCH   4   6
HETATM    6  C   UNL     1     -11.612  13.190  68.545  1.00  0.00    -0.326 C  
HETATM    7  C   UNL     1     -12.062  14.168  69.636  1.00  0.00    -0.400 C  
BRANCH   6   8
HETATM    8  C   UNL     1     -12.130  11.771  68.900  1.00  0.00    -0.238 C  
BRANCH   8   9
HETATM    9  C   UNL     1     -11.097  10.672  68.763  1.00  0.00    -0.316 A  
HETATM   10  C   UNL     1     -10.911  10.009  67.543  1.00  0.00    -0.326 A  
HETATM   11  C   UNL     1      -9.943   9.008  67.420  1.00  0.00    -0.266 A  
HETATM   12  C   UNL     1      -9.159   8.662  68.521  1.00  0.00    -0.138 A  
HETATM   13  C   UNL     1      -9.339   9.310  69.744  1.00  0.00    -0.199 A  
HETATM   14  I   UNL     1      -7.711   7.184  68.339  1.00  0.00    -0.125 I  
HETATM   15  C   UNL     1     -10.302  10.312  69.862  1.00  0.00    -0.281 A  
ENDBRANCH   8   9
ENDBRANCH   6   8
ENDBRANCH   4   6
ENDBRANCH   2   4
TORSDOF 4
ENDMDL
MODEL      127
REMARK 921   NORMALIZED FREE ENERGY PREDICTED BY IDOCK:   -3.04 KCAL/MOL
REMARK 922        TOTAL FREE ENERGY PREDICTED BY IDOCK:   -4.51 KCAL/MOL
REMARK 923 INTER-LIGAND FREE ENERGY PREDICTED BY IDOCK:   -4.04 KCAL/MOL
REMARK 924 INTRA-LIGAND FREE ENERGY PREDICTED BY IDOCK:   -0.47 KCAL/MOL
REMARK 927      BINDING AFFINITY PREDICTED BY RF-SCORE:    0.00 PKD
ROOT
HETATM    1  C   UNL     1     -11.076   6.196  68.083  1.00  0.00    -0.328 C  
HETATM    2  C   UNL     1     -11.316   6.267  69.593  1.00  0.00    -0.422 C  
HETATM    3  C   UNL     1     -10.324   5.352  70.317  1.00  0.00    -0.357 C  
ENDROOT
BRANCH   2   4
HETATM    4  N   UNL     1     -11.156   7.624  70.136  1.00  0.00    -0.334 NA 
HETATM    5  H   UNL     1     -10.340   8.198  69.922  1.00  0.00     0.000 HD 
BRANCH   4   6
HETATM    6  C   UNL     1     -12.244   8.107  71.007  1.00  0.00    -0.177 C  
HETATM    7  C   UNL     1     -13.221   6.978  71.354  1.00  0.00    -0.352 C  
BRANCH   6   8
HETATM    8  C   UNL     1     -11.674   8.697  72.324  1.00  0.00    -0.428 C  
BRANCH   8   9
HETATM    9  C   UNL     1     -10.399   8.039  72.808  1.00  0.00    -0.408 A  
HETATM   10  C   UNL     1     -10.441   6.962  73.704  1.00  0.00    -0.400 A  
HETATM   11  C   UNL     1      -9.261   6.348  74.132  1.00  0.00    -0.181 A  
HETATM   12  C   UNL     1      -8.030   6.814  73.669  1.00  0.00    -0.098 A  
HETATM   13  C   UNL     1      -7.973   7.891  72.783  1.00  0.00    -0.175 A  
HETATM   14  I   UNL     1      -6.274   5.897  74.293  1.00  0.00    -0.071 I  
HETATM   15  C   UNL     1      -9.153   8.497  72.353  1.00  0.00    -0.308 A  
ENDBRANCH   8   9
ENDBRANCH   6   8
ENDBRANCH   4   6
ENDBRANCH   2   4
TORSDOF 4
ENDMDL
MODEL      128
REMARK 921   NORMALIZED FREE ENERGY PREDICTED BY IDOCK:   -2.99 KCAL/MOL
REMARK 922        TOTAL FREE ENERGY PREDICTED BY IDOCK:   -4.45 KCAL/MOL
REMARK 923 INTER-LIGAND FREE ENERGY PREDICTED BY IDOCK:   -3.95 KCAL/MOL
REMARK 924 INTRA-LIGAND FREE ENERGY PREDICTED BY IDOCK:   -0.50 KCAL/MOL
REMARK 927      BINDING AFFINITY PREDICTED BY RF-SCORE:    0.00 PKD
ROOT
HETATM    1  C   UNL     1      -9.481   6.432  65.843  1.00  0.00     0.074 C  
HETATM    2  C   UNL     1     -10.163   7.367  66.844  1.00  0.00    -0.276 C  
HETATM    3  C   UNL     1     -10.917   6.540  67.891  1.00  0.00    -0.382 C  
ENDROOT
BRANCH   2   4
HETATM    4  N   UNL     1      -9.215   8.237  67.554  1.00  0.00    -0.136 NA 
HETATM    5  H   UNL     1      -8.519   7.863  68.200  1.00  0.00     0.000 HD 
BRANCH   4   6
HETATM    6  C   UNL     1      -9.330   9.683  67.279  1.00  0.00    -0.138 C  
HETATM    7  C   UNL     1      -8.561  10.068  66.009  1.00  0.00    -0.148 C  
BRANCH   6   8
HETATM    8  C   UNL     1     -10.816  10.095  67.109  1.00  0.00    -0.257 C  
BRANCH   8   9
HETATM    9  C   UNL     1     -11.261  11.229  68.009  1.00  0.00    -0.351 A  
HETATM   10  C   UNL     1     -11.548  11.002  69.361  1.00  0.00    -0.383 A  
HETATM   11  C   UNL     1     -11.941  12.058  70.189  1.00  0.00    -0.401 A  
HETATM   12  C   UNL     1     -12.053  13.346  69.665  1.00  0.00    -0.289 A  
HETATM   13  C   UNL     1     -11.778  13.583  68.318  1.00  0.00    -0.394 A  
HETATM   14  I   UNL     1     -12.625  14.919  70.894  1.00  0.00    -0.506 I  
HETATM   15  C   UNL     1     -11.381  12.529  67.495  1.00  0.00    -0.368 A  
ENDBRANCH   8   9
ENDBRANCH   6   8
ENDBRANCH   4   6
ENDBRANCH   2   4
TORSDOF 4
ENDMDL
MODEL      129
REMARK 921   NORMALIZED FREE ENERGY PREDICTED BY IDOCK:   -2.98 KCAL/MOL
REMARK 922        TOTAL FREE ENERGY PREDICTED BY IDOCK:   -4.44 KCAL/MOL
REMARK 923 INTER-LIGAND FREE ENERGY PREDICTED BY IDOCK:   -4.96 KCAL/MOL
REMARK 924 INTRA-LIGAND FREE ENERGY PREDICTED BY IDOCK:    0.52 KCAL/MOL
REMARK 927      BINDING AFFINITY PREDICTED BY RF-SCORE:    0.00 PKD
ROOT
HETATM    1  C   UNL     1     -10.270  12.756  63.917  1.00  0.00    -0.265 C  
HETATM    2  C   UNL     1     -10.574  11.300  64.277  1.00  0.00    -0.358 C  
HETATM    3  C   UNL     1      -9.710  10.367  63.424  1.00  0.00    -0.318 C  
ENDROOT
BRANCH   2   4
HETATM    4  N   UNL     1     -10.310  10.992  65.690  1.00  0.00    -0.253 NA 
HETATM    5  H   UNL     1      -9.821  10.143  65.975  1.00  0.00     0.000 HD 
BRANCH   4   6
HETATM    6  C   UNL     1     -10.796  11.981  66.672  1.00  0.00    -0.272 C  
HETATM    7  C   UNL     1     -12.153  12.558  66.255  1.00  0.00    -0.315 C  
BRANCH   6   8
HETATM    8  C   UNL     1     -10.935  11.339  68.077  1.00  0.00    -0.302 C  
BRANCH   8   9
HETATM    9  C   UNL     1     -11.518  12.255  69.133  1.00  0.00    -0.352 A  
HETATM   10  C   UNL     1     -12.231  11.735  70.221  1.00  0.00    -0.381 A  
HETATM   11  C   UNL     1     -12.750  12.586  71.201  1.00  0.00    -0.340 A  
HETATM   12  C   UNL     1     -12.562  13.964  71.093  1.00  0.00    -0.370 A  
HETATM   13  C   UNL     1     -11.860  14.496  70.010  1.00  0.00    -0.372 A  
HETATM   14  I   UNL     1     -13.321  15.232  72.553  1.00  0.00    -0.728 I  
HETATM   15  C   UNL     1     -11.339  13.643  69.037  1.00  0.00    -0.333 A  
ENDBRANCH   8   9
ENDBRANCH   6   8
ENDBRANCH   4   6
ENDBRANCH   2   4
TORSDOF 4
ENDMDL
MODEL      130
REMARK 921   NORMALIZED FREE ENERGY PREDICTED BY IDOCK:   -2.96 KCAL/MOL
REMARK 922        TOTAL FREE ENERGY PREDICTED BY IDOCK:   -4.42 KCAL/MOL
REMARK 923 INTER-LIGAND FREE ENERGY PREDICTED BY IDOCK:   -3.90 KCAL/MOL
REMARK 924 INTRA-LIGAND FREE ENERGY PREDICTED BY IDOCK:   -0.51 KCAL/MOL
REMARK 927      BINDING AFFINITY PREDICTED BY RF-SCORE:    0.00 PKD
ROOT
HETATM    1  C   UNL     1     -11.966   9.534  71.448  1.00  0.00    -0.464 C  
HETATM    2  C   UNL     1     -11.468  10.071  70.105  1.00  0.00    -0.277 C  
HETATM    3  C   UNL     1     -12.005  11.488  69.886  1.00  0.00    -0.426 C  
ENDROOT
BRANCH   2   4
HETATM    4  N   UNL     1     -10.002  10.126  70.016  1.00  0.00    -0.396 NA 
HETATM    5  H   UNL     1      -9.462  10.866  70.466  1.00  0.00     0.000 HD 
BRANCH   4   6
HETATM    6  C   UNL     1      -9.358   9.048  69.240  1.00  0.00    -0.150 C  
HETATM    7  C   UNL     1     -10.385   8.015  68.766  1.00  0.00    -0.223 C  
BRANCH   6   8
HETATM    8  C   UNL     1      -8.621   9.626  68.003  1.00  0.00    -0.119 C  
BRANCH   8   9
HETATM    9  C   UNL     1      -9.309  10.810  67.357  1.00  0.00    -0.163 A  
HETATM   10  C   UNL     1      -8.875  12.119  67.607  1.00  0.00    -0.172 A  
HETATM   11  C   UNL     1      -9.504  13.205  66.992  1.00  0.00    -0.242 A  
HETATM   12  C   UNL     1     -10.576  12.986  66.127  1.00  0.00    -0.277 A  
HETATM   13  C   UNL     1     -11.024  11.689  65.876  1.00  0.00    -0.334 A  
HETATM   14  I   UNL     1     -11.506  14.597  65.202  1.00  0.00    -0.364 I  
HETATM   15  C   UNL     1     -10.390  10.607  66.486  1.00  0.00    -0.299 A  
ENDBRANCH   8   9
ENDBRANCH   6   8
ENDBRANCH   4   6
ENDBRANCH   2   4
TORSDOF 4
ENDMDL
MODEL      131
REMARK 921   NORMALIZED FREE ENERGY PREDICTED BY IDOCK:   -2.95 KCAL/MOL
REMARK 922        TOTAL FREE ENERGY PREDICTED BY IDOCK:   -4.41 KCAL/MOL
REMARK 923 INTER-LIGAND FREE ENERGY PREDICTED BY IDOCK:   -3.83 KCAL/MOL
REMARK 924 INTRA-LIGAND FREE ENERGY PREDICTED BY IDOCK:   -0.58 KCAL/MOL
REMARK 927      BINDING AFFINITY PREDICTED BY RF-SCORE:    0.00 PKD
ROOT
HETATM    1  C   UNL     1     -11.535  11.100  69.128  1.00  0.00    -0.366 C  
HETATM    2  C   UNL     1     -11.008   9.679  69.338  1.00  0.00    -0.190 C  
HETATM    3  C   UNL     1      -9.624   9.734  69.992  1.00  0.00    -0.282 C  
ENDROOT
BRANCH   2   4
HETATM    4  N   UNL     1     -11.880   8.864  70.197  1.00  0.00    -0.443 NA 
HETATM    5  H   UNL     1     -12.450   8.106  69.822  1.00  0.00     0.000 HD 
BRANCH   4   6
HETATM    6  C   UNL     1     -11.881   9.207  71.632  1.00  0.00    -0.372 C  
HETATM    7  C   UNL     1     -13.217   9.829  72.054  1.00  0.00    -0.557 C  
BRANCH   6   8
HETATM    8  C   UNL     1     -11.620   7.946  72.499  1.00  0.00    -0.443 C  
BRANCH   8   9
HETATM    9  C   UNL     1     -10.173   7.504  72.547  1.00  0.00    -0.283 A  
HETATM   10  C   UNL     1      -9.263   8.116  73.419  1.00  0.00    -0.291 A  
HETATM   11  C   UNL     1      -7.933   7.689  73.471  1.00  0.00    -0.181 A  
HETATM   12  C   UNL     1      -7.505   6.650  72.644  1.00  0.00    -0.092 A  
HETATM   13  C   UNL     1      -8.399   6.038  71.764  1.00  0.00    -0.119 A  
HETATM   14  I   UNL     1      -5.532   6.005  72.725  1.00  0.00    -0.033 I  
HETATM   15  C   UNL     1      -9.727   6.462  71.720  1.00  0.00    -0.172 A  
ENDBRANCH   8   9
ENDBRANCH   6   8
ENDBRANCH   4   6
ENDBRANCH   2   4
TORSDOF 4
ENDMDL
MODEL      132
REMARK 921   NORMALIZED FREE ENERGY PREDICTED BY IDOCK:   -2.93 KCAL/MOL
REMARK 922        TOTAL FREE ENERGY PREDICTED BY IDOCK:   -4.38 KCAL/MOL
REMARK 923 INTER-LIGAND FREE ENERGY PREDICTED BY IDOCK:   -4.05 KCAL/MOL
REMARK 924 INTRA-LIGAND FREE ENERGY PREDICTED BY IDOCK:   -0.33 KCAL/MOL
REMARK 927      BINDING AFFINITY PREDICTED BY RF-SCORE:    0.00 PKD
ROOT
HETATM    1  C   UNL     1      -9.664  10.970  68.693  1.00  0.00    -0.198 C  
HETATM    2  C   UNL     1      -9.397  11.843  67.465  1.00  0.00    -0.177 C  
HETATM    3  C   UNL     1     -10.137  11.269  66.253  1.00  0.00    -0.271 C  
ENDROOT
BRANCH   2   4
HETATM    4  N   UNL     1      -9.837  13.234  67.644  1.00  0.00    -0.224 NA 
HETATM    5  H   UNL     1      -9.224  13.948  68.039  1.00  0.00     0.000 HD 
BRANCH   4   6
HETATM    6  C   UNL     1     -11.217  13.539  67.217  1.00  0.00    -0.298 C  
HETATM    7  C   UNL     1     -12.147  13.707  68.424  1.00  0.00    -0.312 C  
BRANCH   6   8
HETATM    8  C   UNL     1     -11.257  14.837  66.369  1.00  0.00    -0.342 C  
BRANCH   8   9
HETATM    9  C   UNL     1     -10.282  15.908  66.812  1.00  0.00    -0.283 A  
HETATM   10  C   UNL     1      -9.033  16.043  66.193  1.00  0.00    -0.381 A  
HETATM   11  C   UNL     1      -8.146  17.046  66.595  1.00  0.00    -0.297 A  
HETATM   12  C   UNL     1      -8.505  17.917  67.625  1.00  0.00    -0.234 A  
HETATM   13  C   UNL     1      -9.743  17.788  68.255  1.00  0.00    -0.320 A  
HETATM   14  I   UNL     1      -7.195  19.416  68.218  1.00  0.00    -0.362 I  
HETATM   15  C   UNL     1     -10.628  16.790  67.848  1.00  0.00    -0.350 A  
ENDBRANCH   8   9
ENDBRANCH   6   8
ENDBRANCH   4   6
ENDBRANCH   2   4
TORSDOF 4
ENDMDL
MODEL      133
REMARK 921   NORMALIZED FREE ENERGY PREDICTED BY IDOCK:   -2.92 KCAL/MOL
REMARK 922        TOTAL FREE ENERGY PREDICTED BY IDOCK:   -4.37 KCAL/MOL
REMARK 923 INTER-LIGAND FREE ENERGY PREDICTED BY IDOCK:   -3.79 KCAL/MOL
REMARK 924 INTRA-LIGAND FREE ENERGY PREDICTED BY IDOCK:   -0.58 KCAL/MOL
REMARK 927      BINDING AFFINITY PREDICTED BY RF-SCORE:    0.00 PKD
ROOT
HETATM    1  C   UNL     1      -7.676   5.344  66.944  1.00  0.00    -0.100 C  
HETATM    2  C   UNL     1      -7.575   6.818  67.342  1.00  0.00    -0.105 C  
HETATM    3  C   UNL     1      -7.609   7.695  66.088  1.00  0.00    -0.088 C  
ENDROOT
BRANCH   2   4
HETATM    4  N   UNL     1      -8.668   7.251  68.224  1.00  0.00    -0.126 NA 
HETATM    5  H   UNL     1      -8.618   7.144  69.238  1.00  0.00     0.000 HD 
BRANCH   4   6
HETATM    6  C   UNL     1      -9.842   7.849  67.558  1.00  0.00    -0.170 C  
HETATM    7  C   UNL     1     -10.962   6.818  67.376  1.00  0.00    -0.407 C  
BRANCH   6   8
HETATM    8  C   UNL     1     -10.391   9.045  68.380  1.00  0.00    -0.242 C  
BRANCH   8   9
HETATM    9  C   UNL     1     -10.762  10.258  67.554  1.00  0.00    -0.348 A  
HETATM   10  C   UNL     1     -11.529  11.294  68.103  1.00  0.00    -0.376 A  
HETATM   11  C   UNL     1     -11.852  12.419  67.339  1.00  0.00    -0.360 A  
HETATM   12  C   UNL     1     -11.412  12.510  66.018  1.00  0.00    -0.377 A  
HETATM   13  C   UNL     1     -10.654  11.482  65.457  1.00  0.00    -0.334 A  
HETATM   14  I   UNL     1     -11.880  14.186  64.884  1.00  0.00    -0.491 I  
HETATM   15  C   UNL     1     -10.329  10.363  66.223  1.00  0.00    -0.270 A  
ENDBRANCH   8   9
ENDBRANCH   6   8
ENDBRANCH   4   6
ENDBRANCH   2   4
TORSDOF 4
ENDMDL
MODEL      134
REMARK 921   NORMALIZED FREE ENERGY PREDICTED BY IDOCK:   -2.92 KCAL/MOL
REMARK 922        TOTAL FREE ENERGY PREDICTED BY IDOCK:   -4.37 KCAL/MOL
REMARK 923 INTER-LIGAND FREE ENERGY PREDICTED BY IDOCK:   -3.76 KCAL/MOL
REMARK 924 INTRA-LIGAND FREE ENERGY PREDICTED BY IDOCK:   -0.61 KCAL/MOL
REMARK 927      BINDING AFFINITY PREDICTED BY RF-SCORE:    0.00 PKD
ROOT
HETATM    1  C   UNL     1      -7.704  12.006  68.516  1.00  0.00    -0.127 C  
HETATM    2  C   UNL     1      -8.017  10.592  69.012  1.00  0.00    -0.140 C  
HETATM    3  C   UNL     1      -6.717   9.883  69.402  1.00  0.00    -0.057 C  
ENDROOT
BRANCH   2   4
HETATM    4  N   UNL     1      -8.906  10.579  70.183  1.00  0.00    -0.157 NA 
HETATM    5  H   UNL     1      -8.629  10.986  71.076  1.00  0.00     0.000 HD 
BRANCH   4   6
HETATM    6  C   UNL     1     -10.224   9.942  69.989  1.00  0.00    -0.271 C  
HETATM    7  C   UNL     1     -10.631   9.123  71.220  1.00  0.00    -0.399 C  
BRANCH   6   8
HETATM    8  C   UNL     1     -11.316  11.009  69.714  1.00  0.00    -0.366 C  
BRANCH   8   9
HETATM    9  C   UNL     1     -11.409  11.456  68.270  1.00  0.00    -0.354 A  
HETATM   10  C   UNL     1     -11.123  10.570  67.224  1.00  0.00    -0.284 A  
HETATM   11  C   UNL     1     -11.230  10.985  65.894  1.00  0.00     0.071 A  
HETATM   12  C   UNL     1     -11.618  12.293  65.604  1.00  0.00    -0.380 A  
HETATM   13  C   UNL     1     -11.898  13.188  66.637  1.00  0.00    -0.449 A  
HETATM   14  I   UNL     1     -11.789  12.910  63.628  1.00  0.00    -0.460 I  
HETATM   15  C   UNL     1     -11.797  12.769  67.964  1.00  0.00    -0.386 A  
ENDBRANCH   8   9
ENDBRANCH   6   8
ENDBRANCH   4   6
ENDBRANCH   2   4
TORSDOF 4
ENDMDL
MODEL      135
REMARK 921   NORMALIZED FREE ENERGY PREDICTED BY IDOCK:   -2.92 KCAL/MOL
REMARK 922        TOTAL FREE ENERGY PREDICTED BY IDOCK:   -4.37 KCAL/MOL
REMARK 923 INTER-LIGAND FREE ENERGY PREDICTED BY IDOCK:   -4.32 KCAL/MOL
REMARK 924 INTRA-LIGAND FREE ENERGY PREDICTED BY IDOCK:   -0.05 KCAL/MOL
REMARK 927      BINDING AFFINITY PREDICTED BY RF-SCORE:    0.00 PKD
ROOT
HETATM    1  C   UNL     1      -8.668   3.834  72.761  1.00  0.00    -0.101 C  
HETATM    2  C   UNL     1     -10.056   4.245  72.265  1.00  0.00    -0.182 C  
HETATM    3  C   UNL     1     -11.077   4.082  73.394  1.00  0.00    -0.341 C  
ENDROOT
BRANCH   2   4
HETATM    4  N   UNL     1     -10.111   5.641  71.806  1.00  0.00    -0.186 NA 
HETATM    5  H   UNL     1      -9.496   5.992  71.071  1.00  0.00     0.000 HD 
BRANCH   4   6
HETATM    6  C   UNL     1     -11.108   6.503  72.469  1.00  0.00    -0.260 C  
HETATM    7  C   UNL     1     -10.443   7.720  73.123  1.00  0.00    -0.413 C  
BRANCH   6   8
HETATM    8  C   UNL     1     -12.170   7.000  71.453  1.00  0.00    -0.407 C  
BRANCH   8   9
HETATM    9  C   UNL     1     -12.104   8.481  71.146  1.00  0.00    -0.283 A  
HETATM   10  C   UNL     1     -11.100   9.000  70.318  1.00  0.00    -0.263 A  
HETATM   11  C   UNL     1     -11.057  10.366  70.026  1.00  0.00    -0.379 A  
HETATM   12  C   UNL     1     -12.017  11.221  70.566  1.00  0.00    -0.371 A  
HETATM   13  C   UNL     1     -13.018  10.719  71.399  1.00  0.00    -0.535 A  
HETATM   14  I   UNL     1     -11.964  13.250  70.125  1.00  0.00    -0.123 I  
HETATM   15  C   UNL     1     -13.062   9.354  71.684  1.00  0.00    -0.471 A  
ENDBRANCH   8   9
ENDBRANCH   6   8
ENDBRANCH   4   6
ENDBRANCH   2   4
TORSDOF 4
ENDMDL
MODEL      136
REMARK 921   NORMALIZED FREE ENERGY PREDICTED BY IDOCK:   -2.92 KCAL/MOL
REMARK 922        TOTAL FREE ENERGY PREDICTED BY IDOCK:   -4.37 KCAL/MOL
REMARK 923 INTER-LIGAND FREE ENERGY PREDICTED BY IDOCK:   -4.10 KCAL/MOL
REMARK 924 INTRA-LIGAND FREE ENERGY PREDICTED BY IDOCK:   -0.27 KCAL/MOL
REMARK 927      BINDING AFFINITY PREDICTED BY RF-SCORE:    0.00 PKD
ROOT
HETATM    1  C   UNL     1     -10.512   5.067  66.208  1.00  0.00    -0.352 C  
HETATM    2  C   UNL     1     -11.027   6.334  66.895  1.00  0.00    -0.329 C  
HETATM    3  C   UNL     1     -10.847   6.208  68.411  1.00  0.00    -0.382 C  
ENDROOT
BRANCH   2   4
HETATM    4  N   UNL     1     -10.327   7.550  66.457  1.00  0.00    -0.501 NA 
HETATM    5  H   UNL     1     -10.751   8.213  65.809  1.00  0.00     0.000 HD 
BRANCH   4   6
HETATM    6  C   UNL     1      -8.974   7.755  67.011  1.00  0.00    -0.129 C  
HETATM    7  C   UNL     1      -7.915   7.763  65.902  1.00  0.00    -0.107 C  
BRANCH   6   8
HETATM    8  C   UNL     1      -8.895   9.095  67.789  1.00  0.00    -0.125 C  
BRANCH   8   9
HETATM    9  C   UNL     1      -9.728  10.215  67.199  1.00  0.00    -0.214 A  
HETATM   10  C   UNL     1      -9.395  10.783  65.963  1.00  0.00    -0.215 A  
HETATM   11  C   UNL     1     -10.179  11.803  65.417  1.00  0.00    -0.301 A  
HETATM   12  C   UNL     1     -11.298  12.264  66.111  1.00  0.00    -0.353 A  
HETATM   13  C   UNL     1     -11.636  11.713  67.347  1.00  0.00    -0.330 A  
HETATM   14  I   UNL     1     -12.473  13.773  65.298  1.00  0.00    -0.431 I  
HETATM   15  C   UNL     1     -10.855  10.690  67.886  1.00  0.00    -0.328 A  
ENDBRANCH   8   9
ENDBRANCH   6   8
ENDBRANCH   4   6
ENDBRANCH   2   4
TORSDOF 4
ENDMDL
MODEL      137
REMARK 921   NORMALIZED FREE ENERGY PREDICTED BY IDOCK:   -2.92 KCAL/MOL
REMARK 922        TOTAL FREE ENERGY PREDICTED BY IDOCK:   -4.36 KCAL/MOL
REMARK 923 INTER-LIGAND FREE ENERGY PREDICTED BY IDOCK:   -4.07 KCAL/MOL
REMARK 924 INTRA-LIGAND FREE ENERGY PREDICTED BY IDOCK:   -0.30 KCAL/MOL
REMARK 927      BINDING AFFINITY PREDICTED BY RF-SCORE:    0.00 PKD
ROOT
HETATM    1  C   UNL     1     -10.492  10.822  64.136  1.00  0.00    -0.309 C  
HETATM    2  C   UNL     1     -11.364  12.069  64.290  1.00  0.00    -0.364 C  
HETATM    3  C   UNL     1     -12.485  12.047  63.247  1.00  0.00    -0.544 C  
ENDROOT
BRANCH   2   4
HETATM    4  N   UNL     1     -11.986  12.174  65.618  1.00  0.00    -0.523 NA 
HETATM    5  H   UNL     1     -12.225  11.349  66.169  1.00  0.00     0.000 HD 
BRANCH   4   6
HETATM    6  C   UNL     1     -12.244  13.543  66.108  1.00  0.00    -0.433 C  
HETATM    7  C   UNL     1     -12.270  13.589  67.640  1.00  0.00    -0.215 C  
BRANCH   6   8
HETATM    8  C   UNL     1     -11.157  14.524  65.595  1.00  0.00    -0.327 C  
BRANCH   8   9
HETATM    9  C   UNL     1      -9.956  14.664  66.506  1.00  0.00    -0.292 A  
HETATM   10  C   UNL     1      -9.089  13.585  66.723  1.00  0.00    -0.223 A  
HETATM   11  C   UNL     1      -7.972  13.728  67.551  1.00  0.00    -0.190 A  
HETATM   12  C   UNL     1      -7.720  14.952  68.171  1.00  0.00    -0.115 A  
HETATM   13  C   UNL     1      -8.580  16.032  67.970  1.00  0.00    -0.165 A  
HETATM   14  I   UNL     1      -6.054  15.172  69.393  1.00  0.00    -0.140 I  
HETATM   15  C   UNL     1      -9.691  15.888  67.139  1.00  0.00    -0.227 A  
ENDBRANCH   8   9
ENDBRANCH   6   8
ENDBRANCH   4   6
ENDBRANCH   2   4
TORSDOF 4
ENDMDL
MODEL      138
REMARK 921   NORMALIZED FREE ENERGY PREDICTED BY IDOCK:   -2.90 KCAL/MOL
REMARK 922        TOTAL FREE ENERGY PREDICTED BY IDOCK:   -4.34 KCAL/MOL
REMARK 923 INTER-LIGAND FREE ENERGY PREDICTED BY IDOCK:   -4.04 KCAL/MOL
REMARK 924 INTRA-LIGAND FREE ENERGY PREDICTED BY IDOCK:   -0.30 KCAL/MOL
REMARK 927      BINDING AFFINITY PREDICTED BY RF-SCORE:    0.00 PKD
ROOT
HETATM    1  C   UNL     1     -10.751   5.812  69.558  1.00  0.00    -0.408 C  
HETATM    2  C   UNL     1     -11.381   7.179  69.836  1.00  0.00    -0.163 C  
HETATM    3  C   UNL     1     -12.167   7.127  71.150  1.00  0.00    -0.405 C  
ENDROOT
BRANCH   2   4
HETATM    4  N   UNL     1     -10.387   8.256  69.948  1.00  0.00    -0.213 NA 
HETATM    5  H   UNL     1      -9.659   8.247  70.663  1.00  0.00     0.000 HD 
BRANCH   4   6
HETATM    6  C   UNL     1     -10.504   9.351  68.966  1.00  0.00    -0.217 C  
HETATM    7  C   UNL     1     -10.600   8.807  67.536  1.00  0.00    -0.298 C  
BRANCH   6   8
HETATM    8  C   UNL     1     -11.756  10.220  69.256  1.00  0.00    -0.141 C  
BRANCH   8   9
HETATM    9  C   UNL     1     -11.535  11.711  69.116  1.00  0.00    -0.364 A  
HETATM   10  C   UNL     1     -12.054  12.607  70.059  1.00  0.00    -0.339 A  
HETATM   11  C   UNL     1     -11.830  13.981  69.932  1.00  0.00    -0.393 A  
HETATM   12  C   UNL     1     -11.087  14.465  68.855  1.00  0.00    -0.259 A  
HETATM   13  C   UNL     1     -10.571  13.584  67.904  1.00  0.00    -0.255 A  
HETATM   14  I   UNL     1     -10.741  16.505  68.668  1.00  0.00    -0.327 I  
HETATM   15  C   UNL     1     -10.792  12.214  68.037  1.00  0.00    -0.258 A  
ENDBRANCH   8   9
ENDBRANCH   6   8
ENDBRANCH   4   6
ENDBRANCH   2   4
TORSDOF 4
ENDMDL
MODEL      139
REMARK 921   NORMALIZED FREE ENERGY PREDICTED BY IDOCK:   -2.89 KCAL/MOL
REMARK 922        TOTAL FREE ENERGY PREDICTED BY IDOCK:   -4.33 KCAL/MOL
REMARK 923 INTER-LIGAND FREE ENERGY PREDICTED BY IDOCK:   -3.76 KCAL/MOL
REMARK 924 INTRA-LIGAND FREE ENERGY PREDICTED BY IDOCK:   -0.57 KCAL/MOL
REMARK 927      BINDING AFFINITY PREDICTED BY RF-SCORE:    0.00 PKD
ROOT
HETATM    1  C   UNL     1      -8.761   5.941  66.008  1.00  0.00    -0.148 C  
HETATM    2  C   UNL     1      -9.351   7.323  66.299  1.00  0.00    -0.108 C  
HETATM    3  C   UNL     1      -8.615   7.959  67.482  1.00  0.00    -0.122 C  
ENDROOT
BRANCH   2   4
HETATM    4  N   UNL     1      -9.248   8.243  65.157  1.00  0.00    -0.361 NA 
HETATM    5  H   UNL     1      -9.342   7.920  64.194  1.00  0.00     0.000 HD 
BRANCH   4   6
HETATM    6  C   UNL     1      -9.002   9.661  65.486  1.00  0.00    -0.183 C  
HETATM    7  C   UNL     1      -7.832  10.225  64.671  1.00  0.00    -0.123 C  
BRANCH   6   8
HETATM    8  C   UNL     1     -10.265  10.518  65.209  1.00  0.00    -0.352 C  
BRANCH   8   9
HETATM    9  C   UNL     1     -10.659  11.442  66.342  1.00  0.00    -0.311 A  
HETATM   10  C   UNL     1     -10.505  12.830  66.223  1.00  0.00    -0.273 A  
HETATM   11  C   UNL     1     -10.888  13.678  67.266  1.00  0.00    -0.292 A  
HETATM   12  C   UNL     1     -11.424  13.139  68.436  1.00  0.00    -0.315 A  
HETATM   13  C   UNL     1     -11.575  11.759  68.570  1.00  0.00    -0.380 A  
HETATM   14  I   UNL     1     -12.006  14.397  69.984  1.00  0.00    -0.426 I  
HETATM   15  C   UNL     1     -11.197  10.916  67.526  1.00  0.00    -0.364 A  
ENDBRANCH   8   9
ENDBRANCH   6   8
ENDBRANCH   4   6
ENDBRANCH   2   4
TORSDOF 4
ENDMDL
MODEL      140
REMARK 921   NORMALIZED FREE ENERGY PREDICTED BY IDOCK:   -2.89 KCAL/MOL
REMARK 922        TOTAL FREE ENERGY PREDICTED BY IDOCK:   -4.33 KCAL/MOL
REMARK 923 INTER-LIGAND FREE ENERGY PREDICTED BY IDOCK:   -3.89 KCAL/MOL
REMARK 924 INTRA-LIGAND FREE ENERGY PREDICTED BY IDOCK:   -0.44 KCAL/MOL
REMARK 927      BINDING AFFINITY PREDICTED BY RF-SCORE:    0.00 PKD
ROOT
HETATM    1  C   UNL     1     -11.243  15.533  71.090  1.00  0.00    -0.423 C  
HETATM    2  C   UNL     1     -10.895  15.156  69.649  1.00  0.00    -0.286 C  
HETATM    3  C   UNL     1     -11.658  16.063  68.680  1.00  0.00    -0.343 C  
ENDROOT
BRANCH   2   4
HETATM    4  N   UNL     1      -9.461  15.284  69.352  1.00  0.00    -0.310 NA 
HETATM    5  H   UNL     1      -8.871  15.967  69.827  1.00  0.00     0.000 HD 
BRANCH   4   6
HETATM    6  C   UNL     1      -8.925  14.365  68.329  1.00  0.00    -0.187 C  
HETATM    7  C   UNL     1      -9.721  13.055  68.286  1.00  0.00    -0.221 C  
BRANCH   6   8
HETATM    8  C   UNL     1      -8.966  15.022  66.924  1.00  0.00    -0.276 C  
BRANCH   8   9
HETATM    9  C   UNL     1      -8.283  16.371  66.840  1.00  0.00    -0.253 A  
HETATM   10  C   UNL     1      -6.902  16.491  67.039  1.00  0.00    -0.248 A  
HETATM   11  C   UNL     1      -6.277  17.737  66.941  1.00  0.00    -0.195 A  
HETATM   12  C   UNL     1      -7.034  18.872  66.649  1.00  0.00    -0.208 A  
HETATM   13  C   UNL     1      -8.412  18.768  66.457  1.00  0.00    -0.310 A  
HETATM   14  I   UNL     1      -6.107  20.724  66.492  1.00  0.00    -0.347 I  
HETATM   15  C   UNL     1      -9.032  17.522  66.549  1.00  0.00    -0.284 A  
ENDBRANCH   8   9
ENDBRANCH   6   8
ENDBRANCH   4   6
ENDBRANCH   2   4
TORSDOF 4
ENDMDL
MODEL      141
REMARK 921   NORMALIZED FREE ENERGY PREDICTED BY IDOCK:   -2.87 KCAL/MOL
REMARK 922        TOTAL FREE ENERGY PREDICTED BY IDOCK:   -4.31 KCAL/MOL
REMARK 923 INTER-LIGAND FREE ENERGY PREDICTED BY IDOCK:   -3.60 KCAL/MOL
REMARK 924 INTRA-LIGAND FREE ENERGY PREDICTED BY IDOCK:   -0.71 KCAL/MOL
REMARK 927      BINDING AFFINITY PREDICTED BY RF-SCORE:    0.00 PKD
ROOT
HETATM    1  C   UNL     1      -9.240   7.112  70.747  1.00  0.00    -0.157 C  
HETATM    2  C   UNL     1     -10.240   6.089  70.204  1.00  0.00    -0.208 C  
HETATM    3  C   UNL     1     -11.662   6.646  70.321  1.00  0.00    -0.432 C  
ENDROOT
BRANCH   2   4
HETATM    4  N   UNL     1     -10.005   5.748  68.794  1.00  0.00    -0.148 NA 
HETATM    5  H   UNL     1     -10.281   4.847  68.403  1.00  0.00     0.000 HD 
BRANCH   4   6
HETATM    6  C   UNL     1      -9.346   6.785  67.976  1.00  0.00    -0.118 C  
HETATM    7  C   UNL     1      -8.148   6.212  67.211  1.00  0.00    -0.106 C  
BRANCH   6   8
HETATM    8  C   UNL     1     -10.343   7.399  66.959  1.00  0.00    -0.384 C  
BRANCH   8   9
HETATM    9  C   UNL     1     -10.306   8.911  66.875  1.00  0.00    -0.332 A  
HETATM   10  C   UNL     1      -9.860   9.556  65.715  1.00  0.00    -0.363 A  
HETATM   11  C   UNL     1      -9.846  10.951  65.639  1.00  0.00    -0.292 A  
HETATM   12  C   UNL     1     -10.275  11.709  66.729  1.00  0.00    -0.217 A  
HETATM   13  C   UNL     1     -10.715  11.080  67.894  1.00  0.00    -0.263 A  
HETATM   14  I   UNL     1     -10.268  13.783  66.617  1.00  0.00    -0.295 I  
HETATM   15  C   UNL     1     -10.733   9.687  67.964  1.00  0.00    -0.284 A  
ENDBRANCH   8   9
ENDBRANCH   6   8
ENDBRANCH   4   6
ENDBRANCH   2   4
TORSDOF 4
ENDMDL
MODEL      142
REMARK 921   NORMALIZED FREE ENERGY PREDICTED BY IDOCK:   -2.85 KCAL/MOL
REMARK 922        TOTAL FREE ENERGY PREDICTED BY IDOCK:   -4.28 KCAL/MOL
REMARK 923 INTER-LIGAND FREE ENERGY PREDICTED BY IDOCK:   -3.78 KCAL/MOL
REMARK 924 INTRA-LIGAND FREE ENERGY PREDICTED BY IDOCK:   -0.49 KCAL/MOL
REMARK 927      BINDING AFFINITY PREDICTED BY RF-SCORE:    0.00 PKD
ROOT
HETATM    1  C   UNL     1     -10.235  13.615  68.165  1.00  0.00    -0.247 C  
HETATM    2  C   UNL     1     -11.709  13.237  68.000  1.00  0.00    -0.359 C  
HETATM    3  C   UNL     1     -12.132  13.435  66.542  1.00  0.00    -0.444 C  
ENDROOT
BRANCH   2   4
HETATM    4  N   UNL     1     -11.988  11.841  68.365  1.00  0.00    -0.490 NA 
HETATM    5  H   UNL     1     -12.630  11.260  67.826  1.00  0.00     0.000 HD 
BRANCH   4   6
HETATM    6  C   UNL     1     -11.285  11.329  69.558  1.00  0.00    -0.272 C  
HETATM    7  C   UNL     1     -12.223  11.257  70.768  1.00  0.00    -0.479 C  
BRANCH   6   8
HETATM    8  C   UNL     1     -10.704   9.915  69.289  1.00  0.00    -0.247 C  
BRANCH   8   9
HETATM    9  C   UNL     1      -9.475   9.574  70.106  1.00  0.00    -0.287 A  
HETATM   10  C   UNL     1      -8.222  10.107  69.776  1.00  0.00    -0.161 A  
HETATM   11  C   UNL     1      -7.097   9.802  70.546  1.00  0.00    -0.130 A  
HETATM   12  C   UNL     1      -7.219   8.956  71.648  1.00  0.00    -0.028 A  
HETATM   13  C   UNL     1      -8.459   8.411  71.983  1.00  0.00    -0.245 A  
HETATM   14  I   UNL     1      -5.550   8.508  72.802  1.00  0.00    -0.072 I  
HETATM   15  C   UNL     1      -9.582   8.723  71.216  1.00  0.00    -0.323 A  
ENDBRANCH   8   9
ENDBRANCH   6   8
ENDBRANCH   4   6
ENDBRANCH   2   4
TORSDOF 4
ENDMDL
MODEL      143
REMARK 921   NORMALIZED FREE ENERGY PREDICTED BY IDOCK:   -2.82 KCAL/MOL
REMARK 922        TOTAL FREE ENERGY PREDICTED BY IDOCK:   -4.24 KCAL/MOL
REMARK 923 INTER-LIGAND FREE ENERGY PREDICTED BY IDOCK:   -4.03 KCAL/MOL
REMARK 924 INTRA-LIGAND FREE ENERGY PREDICTED BY IDOCK:   -0.21 KCAL/MOL
REMARK 927      BINDING AFFINITY PREDICTED BY RF-SCORE:    0.00 PKD
ROOT
HETATM    1  C   UNL     1      -5.560  19.486  68.139  1.00  0.00    -0.212 C  
HETATM    2  C   UNL     1      -7.038  19.834  68.330  1.00  0.00    -0.306 C  
HETATM    3  C   UNL     1      -7.474  20.837  67.258  1.00  0.00    -0.381 C  
ENDROOT
BRANCH   2   4
HETATM    4  N   UNL     1      -7.920  18.662  68.236  1.00  0.00    -0.302 NA 
HETATM    5  H   UNL     1      -8.219  18.144  69.063  1.00  0.00     0.000 HD 
BRANCH   4   6
HETATM    6  C   UNL     1      -8.348  18.278  66.877  1.00  0.00    -0.245 C  
HETATM    7  C   UNL     1      -7.672  16.978  66.428  1.00  0.00    -0.350 C  
BRANCH   6   8
HETATM    8  C   UNL     1      -9.887  18.089  66.818  1.00  0.00    -0.335 C  
BRANCH   8   9
HETATM    9  C   UNL     1     -10.387  16.799  67.433  1.00  0.00    -0.302 A  
HETATM   10  C   UNL     1     -10.688  15.690  66.632  1.00  0.00    -0.296 A  
HETATM   11  C   UNL     1     -11.132  14.498  67.210  1.00  0.00    -0.317 A  
HETATM   12  C   UNL     1     -11.282  14.411  68.594  1.00  0.00    -0.259 A  
HETATM   13  C   UNL     1     -10.993  15.511  69.403  1.00  0.00    -0.276 A  
HETATM   14  I   UNL     1     -11.930  12.636  69.457  1.00  0.00    -0.106 I  
HETATM   15  C   UNL     1     -10.545  16.698  68.824  1.00  0.00    -0.340 A  
ENDBRANCH   8   9
ENDBRANCH   6   8
ENDBRANCH   4   6
ENDBRANCH   2   4
TORSDOF 4
ENDMDL
MODEL      144
REMARK 921   NORMALIZED FREE ENERGY PREDICTED BY IDOCK:   -2.80 KCAL/MOL
REMARK 922        TOTAL FREE ENERGY PREDICTED BY IDOCK:   -4.22 KCAL/MOL
REMARK 923 INTER-LIGAND FREE ENERGY PREDICTED BY IDOCK:   -3.78 KCAL/MOL
REMARK 924 INTRA-LIGAND FREE ENERGY PREDICTED BY IDOCK:   -0.44 KCAL/MOL
REMARK 927      BINDING AFFINITY PREDICTED BY RF-SCORE:    0.00 PKD
ROOT
HETATM    1  C   UNL     1     -12.179  11.578  70.542  1.00  0.00    -0.469 C  
HETATM    2  C   UNL     1     -11.498  11.538  69.171  1.00  0.00    -0.297 C  
HETATM    3  C   UNL     1     -11.659  12.893  68.476  1.00  0.00    -0.358 C  
ENDROOT
BRANCH   2   4
HETATM    4  N   UNL     1     -10.061  11.241  69.252  1.00  0.00    -0.426 NA 
HETATM    5  H   UNL     1      -9.377  11.951  69.515  1.00  0.00     0.000 HD 
BRANCH   4   6
HETATM    6  C   UNL     1      -9.666   9.855  68.932  1.00  0.00    -0.175 C  
HETATM    7  C   UNL     1      -9.757   8.952  70.167  1.00  0.00    -0.199 C  
BRANCH   6   8
HETATM    8  C   UNL     1     -10.571   9.269  67.816  1.00  0.00    -0.307 C  
BRANCH   8   9
HETATM    9  C   UNL     1     -10.152   7.900  67.321  1.00  0.00    -0.307 A  
HETATM   10  C   UNL     1     -11.096   6.880  67.146  1.00  0.00    -0.362 A  
HETATM   11  C   UNL     1     -10.705   5.625  66.671  1.00  0.00    -0.339 A  
HETATM   12  C   UNL     1      -9.364   5.384  66.373  1.00  0.00    -0.150 A  
HETATM   13  C   UNL     1      -8.412   6.389  66.550  1.00  0.00    -0.118 A  
HETATM   14  I   UNL     1      -8.779   3.524  65.656  1.00  0.00    -0.136 I  
HETATM   15  C   UNL     1      -8.807   7.642  67.019  1.00  0.00    -0.135 A  
ENDBRANCH   8   9
ENDBRANCH   6   8
ENDBRANCH   4   6
ENDBRANCH   2   4
TORSDOF 4
ENDMDL
MODEL      145
REMARK 921   NORMALIZED FREE ENERGY PREDICTED BY IDOCK:   -2.80 KCAL/MOL
REMARK 922        TOTAL FREE ENERGY PREDICTED BY IDOCK:   -4.21 KCAL/MOL
REMARK 923 INTER-LIGAND FREE ENERGY PREDICTED BY IDOCK:   -4.05 KCAL/MOL
REMARK 924 INTRA-LIGAND FREE ENERGY PREDICTED BY IDOCK:   -0.16 KCAL/MOL
REMARK 927      BINDING AFFINITY PREDICTED BY RF-SCORE:    0.00 PKD
ROOT
HETATM    1  C   UNL     1     -12.446  13.971  65.678  1.00  0.00    -0.531 C  
HETATM    2  C   UNL     1     -11.360  14.084  66.750  1.00  0.00    -0.334 C  
HETATM    3  C   UNL     1     -12.010  14.256  68.126  1.00  0.00    -0.343 C  
ENDROOT
BRANCH   2   4
HETATM    4  N   UNL     1     -10.486  12.903  66.809  1.00  0.00    -0.252 NA 
HETATM    5  H   UNL     1      -9.608  12.856  66.292  1.00  0.00     0.000 HD 
BRANCH   4   6
HETATM    6  C   UNL     1     -10.954  11.791  67.659  1.00  0.00    -0.233 C  
HETATM    7  C   UNL     1     -10.903  10.457  66.907  1.00  0.00    -0.229 C  
BRANCH   6   8
HETATM    8  C   UNL     1     -10.087  11.677  68.941  1.00  0.00    -0.109 C  
BRANCH   8   9
HETATM    9  C   UNL     1     -10.295  10.402  69.731  1.00  0.00    -0.252 A  
HETATM   10  C   UNL     1      -9.372   9.351  69.656  1.00  0.00    -0.199 A  
HETATM   11  C   UNL     1      -9.562   8.185  70.402  1.00  0.00    -0.171 A  
HETATM   12  C   UNL     1     -10.683   8.062  71.223  1.00  0.00    -0.229 A  
HETATM   13  C   UNL     1     -11.614   9.098  71.301  1.00  0.00    -0.401 A  
HETATM   14  I   UNL     1     -10.963   6.335  72.343  1.00  0.00    -0.342 I  
HETATM   15  C   UNL     1     -11.418  10.263  70.560  1.00  0.00    -0.427 A  
ENDBRANCH   8   9
ENDBRANCH   6   8
ENDBRANCH   4   6
ENDBRANCH   2   4
TORSDOF 4
ENDMDL
MODEL      146
REMARK 921   NORMALIZED FREE ENERGY PREDICTED BY IDOCK:   -2.79 KCAL/MOL
REMARK 922        TOTAL FREE ENERGY PREDICTED BY IDOCK:   -4.21 KCAL/MOL
REMARK 923 INTER-LIGAND FREE ENERGY PREDICTED BY IDOCK:   -3.79 KCAL/MOL
REMARK 924 INTRA-LIGAND FREE ENERGY PREDICTED BY IDOCK:   -0.42 KCAL/MOL
REMARK 927      BINDING AFFINITY PREDICTED BY RF-SCORE:    0.00 PKD
ROOT
HETATM    1  C   UNL     1      -9.405   2.541  64.757  1.00  0.00    -0.127 C  
HETATM    2  C   UNL     1      -9.525   4.030  64.426  1.00  0.00    -0.164 C  
HETATM    3  C   UNL     1     -10.081   4.200  63.009  1.00  0.00    -0.091 C  
ENDROOT
BRANCH   2   4
HETATM    4  N   UNL     1     -10.413   4.753  65.348  1.00  0.00    -0.481 NA 
HETATM    5  H   UNL     1     -11.427   4.746  65.237  1.00  0.00     0.000 HD 
BRANCH   4   6
HETATM    6  C   UNL     1      -9.751   5.488  66.443  1.00  0.00    -0.163 C  
HETATM    7  C   UNL     1      -8.829   6.586  65.897  1.00  0.00    -0.131 C  
BRANCH   6   8
HETATM    8  C   UNL     1     -10.801   6.138  67.383  1.00  0.00    -0.431 C  
BRANCH   8   9
HETATM    9  C   UNL     1     -10.656   5.762  68.843  1.00  0.00    -0.337 A  
HETATM   10  C   UNL     1     -11.398   6.422  69.831  1.00  0.00    -0.500 A  
HETATM   11  C   UNL     1     -11.273   6.057  71.174  1.00  0.00    -0.328 A  
HETATM   12  C   UNL     1     -10.398   5.031  71.535  1.00  0.00    -0.182 A  
HETATM   13  C   UNL     1      -9.648   4.371  70.562  1.00  0.00    -0.269 A  
HETATM   14  I   UNL     1     -10.218   4.477  73.529  1.00  0.00    -0.318 I  
HETATM   15  C   UNL     1      -9.780   4.734  69.221  1.00  0.00    -0.266 A  
ENDBRANCH   8   9
ENDBRANCH   6   8
ENDBRANCH   4   6
ENDBRANCH   2   4
TORSDOF 4
ENDMDL
MODEL      147
REMARK 921   NORMALIZED FREE ENERGY PREDICTED BY IDOCK:   -2.78 KCAL/MOL
REMARK 922        TOTAL FREE ENERGY PREDICTED BY IDOCK:   -4.19 KCAL/MOL
REMARK 923 INTER-LIGAND FREE ENERGY PREDICTED BY IDOCK:   -3.92 KCAL/MOL
REMARK 924 INTRA-LIGAND FREE ENERGY PREDICTED BY IDOCK:   -0.27 KCAL/MOL
REMARK 927      BINDING AFFINITY PREDICTED BY RF-SCORE:    0.00 PKD
ROOT
HETATM    1  C   UNL     1     -12.041  15.831  71.707  1.00  0.00    -0.541 C  
HETATM    2  C   UNL     1     -12.217  14.510  70.955  1.00  0.00    -0.339 C  
HETATM    3  C   UNL     1     -13.342  13.695  71.600  1.00  0.00    -0.424 C  
ENDROOT
BRANCH   2   4
HETATM    4  N   UNL     1     -12.552  14.697  69.537  1.00  0.00    -0.575 NA 
HETATM    5  H   UNL     1     -13.420  15.146  69.242  1.00  0.00     0.000 HD 
BRANCH   4   6
HETATM    6  C   UNL     1     -11.560  14.199  68.564  1.00  0.00    -0.316 C  
HETATM    7  C   UNL     1     -11.002  12.836  68.988  1.00  0.00    -0.241 C  
BRANCH   6   8
HETATM    8  C   UNL     1     -12.193  14.065  67.153  1.00  0.00    -0.356 C  
BRANCH   8   9
HETATM    9  C   UNL     1     -11.372  13.257  66.170  1.00  0.00    -0.335 A  
HETATM   10  C   UNL     1     -11.893  12.097  65.581  1.00  0.00    -0.343 A  
HETATM   11  C   UNL     1     -11.136  11.367  64.661  1.00  0.00    -0.277 A  
HETATM   12  C   UNL     1      -9.849  11.792  64.329  1.00  0.00    -0.206 A  
HETATM   13  C   UNL     1      -9.315  12.940  64.915  1.00  0.00     0.597 A  
HETATM   14  I   UNL     1      -8.725  10.716  62.953  1.00  0.00    -0.258 I  
HETATM   15  C   UNL     1     -10.075  13.670  65.828  1.00  0.00    -0.311 A  
ENDBRANCH   8   9
ENDBRANCH   6   8
ENDBRANCH   4   6
ENDBRANCH   2   4
TORSDOF 4
ENDMDL
MODEL      148
REMARK 921   NORMALIZED FREE ENERGY PREDICTED BY IDOCK:   -2.78 KCAL/MOL
REMARK 922        TOTAL FREE ENERGY PREDICTED BY IDOCK:   -4.19 KCAL/MOL
REMARK 923 INTER-LIGAND FREE ENERGY PREDICTED BY IDOCK:   -3.79 KCAL/MOL
REMARK 924 INTRA-LIGAND FREE ENERGY PREDICTED BY IDOCK:   -0.41 KCAL/MOL
REMARK 927      BINDING AFFINITY PREDICTED BY RF-SCORE:    0.00 PKD
ROOT
HETATM    1  C   UNL     1      -8.846   6.569  68.023  1.00  0.00    -0.114 C  
HETATM    2  C   UNL     1     -10.145   7.091  68.640  1.00  0.00    -0.166 C  
HETATM    3  C   UNL     1     -11.006   5.912  69.103  1.00  0.00    -0.382 C  
ENDROOT
BRANCH   2   4
HETATM    4  N   UNL     1      -9.919   7.966  69.800  1.00  0.00    -0.184 NA 
HETATM    5  H   UNL     1      -9.308   7.693  70.570  1.00  0.00     0.000 HD 
BRANCH   4   6
HETATM    6  C   UNL     1     -10.625   9.261  69.783  1.00  0.00    -0.231 C  
HETATM    7  C   UNL     1     -11.227   9.584  71.155  1.00  0.00    -0.446 C  
BRANCH   6   8
HETATM    8  C   UNL     1      -9.663  10.408  69.376  1.00  0.00    -0.222 C  
BRANCH   8   9
HETATM    9  C   UNL     1     -10.131  11.234  68.196  1.00  0.00    -0.195 A  
HETATM   10  C   UNL     1      -9.255  11.553  67.150  1.00  0.00    -0.171 A  
HETATM   11  C   UNL     1      -9.700  12.300  66.056  1.00  0.00    -0.254 A  
HETATM   12  C   UNL     1     -11.024  12.737  66.006  1.00  0.00    -0.278 A  
HETATM   13  C   UNL     1     -11.904  12.433  67.045  1.00  0.00    -0.368 A  
HETATM   14  I   UNL     1     -11.692  13.838  64.376  1.00  0.00    -0.394 I  
HETATM   15  C   UNL     1     -11.459  11.682  68.133  1.00  0.00    -0.382 A  
ENDBRANCH   8   9
ENDBRANCH   6   8
ENDBRANCH   4   6
ENDBRANCH   2   4
TORSDOF 4
ENDMDL
MODEL      149
REMARK 921   NORMALIZED FREE ENERGY PREDICTED BY IDOCK:   -2.76 KCAL/MOL
REMARK 922        TOTAL FREE ENERGY PREDICTED BY IDOCK:   -4.17 KCAL/MOL
REMARK 923 INTER-LIGAND FREE ENERGY PREDICTED BY IDOCK:   -3.50 KCAL/MOL
REMARK 924 INTRA-LIGAND FREE ENERGY PREDICTED BY IDOCK:   -0.67 KCAL/MOL
REMARK 927      BINDING AFFINITY PREDICTED BY RF-SCORE:    0.00 PKD
ROOT
HETATM    1  C   UNL     1      -9.206   4.876  65.082  1.00  0.00    -0.128 C  
HETATM    2  C   UNL     1      -9.918   5.144  66.410  1.00  0.00    -0.213 C  
HETATM    3  C   UNL     1      -8.910   5.066  67.560  1.00  0.00    -0.102 C  
ENDROOT
BRANCH   2   4
HETATM    4  N   UNL     1     -10.559   6.465  66.461  1.00  0.00    -0.493 NA 
HETATM    5  H   UNL     1     -11.483   6.633  66.061  1.00  0.00     0.000 HD 
BRANCH   4   6
HETATM    6  C   UNL     1      -9.789   7.535  67.126  1.00  0.00    -0.201 C  
HETATM    7  C   UNL     1      -9.285   8.568  66.112  1.00  0.00    -0.269 C  
BRANCH   6   8
HETATM    8  C   UNL     1     -10.658   8.259  68.188  1.00  0.00    -0.169 C  
BRANCH   8   9
HETATM    9  C   UNL     1     -10.521   7.709  69.593  1.00  0.00    -0.235 A  
HETATM   10  C   UNL     1     -11.260   6.591  70.002  1.00  0.00    -0.453 A  
HETATM   11  C   UNL     1     -11.114   6.078  71.294  1.00  0.00    -0.337 A  
HETATM   12  C   UNL     1     -10.232   6.687  72.186  1.00  0.00    -0.190 A  
HETATM   13  C   UNL     1      -9.496   7.806  71.794  1.00  0.00    -0.191 A  
HETATM   14  I   UNL     1     -10.004   5.922  74.104  1.00  0.00    -0.338 I  
HETATM   15  C   UNL     1      -9.639   8.312  70.502  1.00  0.00    -0.180 A  
ENDBRANCH   8   9
ENDBRANCH   6   8
ENDBRANCH   4   6
ENDBRANCH   2   4
TORSDOF 4
ENDMDL
MODEL      150
REMARK 921   NORMALIZED FREE ENERGY PREDICTED BY IDOCK:   -2.75 KCAL/MOL
REMARK 922        TOTAL FREE ENERGY PREDICTED BY IDOCK:   -4.16 KCAL/MOL
REMARK 923 INTER-LIGAND FREE ENERGY PREDICTED BY IDOCK:   -3.59 KCAL/MOL
REMARK 924 INTRA-LIGAND FREE ENERGY PREDICTED BY IDOCK:   -0.57 KCAL/MOL
REMARK 927      BINDING AFFINITY PREDICTED BY RF-SCORE:    0.00 PKD
ROOT
HETATM    1  C   UNL     1     -12.255  14.467  64.296  1.00  0.00    -0.450 C  
HETATM    2  C   UNL     1     -11.241  13.387  64.682  1.00  0.00    -0.359 C  
HETATM    3  C   UNL     1     -11.184  12.318  63.588  1.00  0.00    -0.539 C  
ENDROOT
BRANCH   2   4
HETATM    4  N   UNL     1      -9.882  13.916  64.867  1.00  0.00    -0.591 NA 
HETATM    5  H   UNL     1      -9.369  14.362  64.106  1.00  0.00     0.000 HD 
BRANCH   4   6
HETATM    6  C   UNL     1      -9.304  13.763  66.216  1.00  0.00    -0.145 C  
HETATM    7  C   UNL     1      -9.189  15.117  66.928  1.00  0.00    -0.259 C  
BRANCH   6   8
HETATM    8  C   UNL     1     -10.173  12.814  67.083  1.00  0.00    -0.235 C  
BRANCH   8   9
HETATM    9  C   UNL     1      -9.457  11.569  67.564  1.00  0.00    -0.173 A  
HETATM   10  C   UNL     1      -8.464  11.647  68.549  1.00  0.00    -0.135 A  
HETATM   11  C   UNL     1      -7.821  10.491  69.001  1.00  0.00    -0.129 A  
HETATM   12  C   UNL     1      -8.167   9.251  68.464  1.00  0.00    -0.114 A  
HETATM   13  C   UNL     1      -9.149   9.160  67.477  1.00  0.00    -0.137 A  
HETATM   14  I   UNL     1      -7.222   7.529  69.141  1.00  0.00    -0.089 I  
HETATM   15  C   UNL     1      -9.792  10.315  67.032  1.00  0.00    -0.238 A  
ENDBRANCH   8   9
ENDBRANCH   6   8
ENDBRANCH   4   6
ENDBRANCH   2   4
TORSDOF 4
ENDMDL
MODEL      151
REMARK 921   NORMALIZED FREE ENERGY PREDICTED BY IDOCK:   -2.75 KCAL/MOL
REMARK 922        TOTAL FREE ENERGY PREDICTED BY IDOCK:   -4.16 KCAL/MOL
REMARK 923 INTER-LIGAND FREE ENERGY PREDICTED BY IDOCK:   -3.98 KCAL/MOL
REMARK 924 INTRA-LIGAND FREE ENERGY PREDICTED BY IDOCK:   -0.17 KCAL/MOL
REMARK 927      BINDING AFFINITY PREDICTED BY RF-SCORE:    0.00 PKD
ROOT
HETATM    1  C   UNL     1      -8.470  12.262  68.179  1.00  0.00    -0.176 C  
HETATM    2  C   UNL     1      -8.218  10.843  68.695  1.00  0.00    -0.146 C  
HETATM    3  C   UNL     1      -6.823  10.763  69.321  1.00  0.00    -0.092 C  
ENDROOT
BRANCH   2   4
HETATM    4  N   UNL     1      -9.193  10.420  69.711  1.00  0.00    -0.411 NA 
HETATM    5  H   UNL     1      -8.961  10.395  70.704  1.00  0.00     0.000 HD 
BRANCH   4   6
HETATM    6  C   UNL     1     -10.526  10.034  69.210  1.00  0.00    -0.225 C  
HETATM    7  C   UNL     1     -10.463   8.726  68.412  1.00  0.00    -0.220 C  
BRANCH   6   8
HETATM    8  C   UNL     1     -11.525   9.857  70.384  1.00  0.00    -0.372 C  
BRANCH   8   9
HETATM    9  C   UNL     1     -11.315   8.601  71.204  1.00  0.00    -0.329 A  
HETATM   10  C   UNL     1     -12.190   7.513  71.088  1.00  0.00    -0.330 A  
HETATM   11  C   UNL     1     -11.979   6.351  71.836  1.00  0.00    -0.381 A  
HETATM   12  C   UNL     1     -10.893   6.275  72.708  1.00  0.00    -0.252 A  
HETATM   13  C   UNL     1     -10.019   7.355  72.839  1.00  0.00    -0.281 A  
HETATM   14  I   UNL     1     -10.569   4.545  73.812  1.00  0.00    -0.368 I  
HETATM   15  C   UNL     1     -10.229   8.511  72.088  1.00  0.00    -0.403 A  
ENDBRANCH   8   9
ENDBRANCH   6   8
ENDBRANCH   4   6
ENDBRANCH   2   4
TORSDOF 4
ENDMDL
MODEL      152
REMARK 921   NORMALIZED FREE ENERGY PREDICTED BY IDOCK:   -2.74 KCAL/MOL
REMARK 922        TOTAL FREE ENERGY PREDICTED BY IDOCK:   -4.15 KCAL/MOL
REMARK 923 INTER-LIGAND FREE ENERGY PREDICTED BY IDOCK:   -3.49 KCAL/MOL
REMARK 924 INTRA-LIGAND FREE ENERGY PREDICTED BY IDOCK:   -0.66 KCAL/MOL
REMARK 927      BINDING AFFINITY PREDICTED BY RF-SCORE:    0.00 PKD
ROOT
HETATM    1  C   UNL     1     -11.727  12.631  67.054  1.00  0.00    -0.438 C  
HETATM    2  C   UNL     1     -10.756  11.978  68.041  1.00  0.00    -0.212 C  
HETATM    3  C   UNL     1      -9.320  12.378  67.693  1.00  0.00    -0.188 C  
ENDROOT
BRANCH   2   4
HETATM    4  N   UNL     1     -11.007  12.369  69.436  1.00  0.00    -0.453 NA 
HETATM    5  H   UNL     1     -10.731  11.777  70.220  1.00  0.00     0.000 HD 
BRANCH   4   6
HETATM    6  C   UNL     1     -11.680  13.667  69.636  1.00  0.00    -0.320 C  
HETATM    7  C   UNL     1     -12.781  13.564  70.697  1.00  0.00    -0.275 C  
BRANCH   6   8
HETATM    8  C   UNL     1     -10.662  14.753  70.074  1.00  0.00    -0.103 C  
BRANCH   8   9
HETATM    9  C   UNL     1     -10.586  15.953  69.154  1.00  0.00    -0.246 A  
HETATM   10  C   UNL     1     -11.093  15.890  67.849  1.00  0.00    -0.317 A  
HETATM   11  C   UNL     1     -11.035  17.008  67.012  1.00  0.00     0.077 A  
HETATM   12  C   UNL     1     -10.465  18.193  67.475  1.00  0.00    -0.410 A  
HETATM   13  C   UNL     1      -9.949  18.267  68.770  1.00  0.00    -0.391 A  
HETATM   14  I   UNL     1     -10.388  19.860  66.238  1.00  0.00    -0.390 I  
HETATM   15  C   UNL     1     -10.013  17.151  69.605  1.00  0.00     0.176 A  
ENDBRANCH   8   9
ENDBRANCH   6   8
ENDBRANCH   4   6
ENDBRANCH   2   4
TORSDOF 4
ENDMDL
MODEL      153
REMARK 921   NORMALIZED FREE ENERGY PREDICTED BY IDOCK:   -2.73 KCAL/MOL
REMARK 922        TOTAL FREE ENERGY PREDICTED BY IDOCK:   -4.13 KCAL/MOL
REMARK 923 INTER-LIGAND FREE ENERGY PREDICTED BY IDOCK:   -4.64 KCAL/MOL
REMARK 924 INTRA-LIGAND FREE ENERGY PREDICTED BY IDOCK:    0.51 KCAL/MOL
REMARK 927      BINDING AFFINITY PREDICTED BY RF-SCORE:    0.00 PKD
ROOT
HETATM    1  C   UNL     1     -10.490  11.073  63.408  1.00  0.00    -0.320 C  
HETATM    2  C   UNL     1      -9.972  11.305  64.829  1.00  0.00    -0.277 C  
HETATM    3  C   UNL     1      -8.523  10.821  64.934  1.00  0.00    -0.055 C  
ENDROOT
BRANCH   2   4
HETATM    4  N   UNL     1     -10.005  12.720  65.228  1.00  0.00    -0.435 NA 
HETATM    5  H   UNL     1      -9.502  13.439  64.708  1.00  0.00     0.000 HD 
BRANCH   4   6
HETATM    6  C   UNL     1     -10.807  13.038  66.425  1.00  0.00    -0.278 C  
HETATM    7  C   UNL     1     -11.076  11.783  67.264  1.00  0.00    -0.342 C  
BRANCH   6   8
HETATM    8  C   UNL     1     -10.083  14.087  67.310  1.00  0.00    -0.249 C  
BRANCH   8   9
HETATM    9  C   UNL     1     -10.784  14.400  68.615  1.00  0.00    -0.258 A  
HETATM   10  C   UNL     1     -10.261  15.350  69.502  1.00  0.00    -0.273 A  
HETATM   11  C   UNL     1     -10.923  15.647  70.696  1.00  0.00    -0.364 A  
HETATM   12  C   UNL     1     -12.112  14.989  71.011  1.00  0.00    -0.324 A  
HETATM   13  C   UNL     1     -12.641  14.035  70.141  1.00  0.00    -0.310 A  
HETATM   14  I   UNL     1     -13.106  15.436  72.780  1.00  0.00    -0.757 I  
HETATM   15  C   UNL     1     -11.980  13.745  68.947  1.00  0.00    -0.394 A  
ENDBRANCH   8   9
ENDBRANCH   6   8
ENDBRANCH   4   6
ENDBRANCH   2   4
TORSDOF 4
ENDMDL
MODEL      154
REMARK 921   NORMALIZED FREE ENERGY PREDICTED BY IDOCK:   -2.73 KCAL/MOL
REMARK 922        TOTAL FREE ENERGY PREDICTED BY IDOCK:   -4.13 KCAL/MOL
REMARK 923 INTER-LIGAND FREE ENERGY PREDICTED BY IDOCK:   -3.55 KCAL/MOL
REMARK 924 INTRA-LIGAND FREE ENERGY PREDICTED BY IDOCK:   -0.58 KCAL/MOL
REMARK 927      BINDING AFFINITY PREDICTED BY RF-SCORE:    0.00 PKD
ROOT
HETATM    1  C   UNL     1     -13.235   9.737  71.399  1.00  0.00    -0.482 C  
HETATM    2  C   UNL     1     -12.262   8.720  72.000  1.00  0.00    -0.377 C  
HETATM    3  C   UNL     1     -12.612   7.315  71.501  1.00  0.00    -0.415 C  
ENDROOT
BRANCH   2   4
HETATM    4  N   UNL     1     -10.861   8.988  71.648  1.00  0.00    -0.344 NA 
HETATM    5  H   UNL     1     -10.167   9.242  72.351  1.00  0.00     0.000 HD 
BRANCH   4   6
HETATM    6  C   UNL     1     -10.517   8.867  70.218  1.00  0.00    -0.210 C  
HETATM    7  C   UNL     1     -10.113  10.223  69.627  1.00  0.00    -0.257 C  
BRANCH   6   8
HETATM    8  C   UNL     1      -9.349   7.865  70.016  1.00  0.00    -0.157 C  
BRANCH   8   9
HETATM    9  C   UNL     1      -9.510   6.943  68.825  1.00  0.00    -0.135 A  
HETATM   10  C   UNL     1     -10.743   6.823  68.170  1.00  0.00    -0.295 A  
HETATM   11  C   UNL     1     -10.878   5.984  67.061  1.00  0.00    -0.413 A  
HETATM   12  C   UNL     1      -9.780   5.256  66.604  1.00  0.00    -0.164 A  
HETATM   13  C   UNL     1      -8.548   5.360  67.252  1.00  0.00    -0.108 A  
HETATM   14  I   UNL     1      -9.974   4.016  64.949  1.00  0.00    -0.083 I  
HETATM   15  C   UNL     1      -8.415   6.202  68.356  1.00  0.00    -0.114 A  
ENDBRANCH   8   9
ENDBRANCH   6   8
ENDBRANCH   4   6
ENDBRANCH   2   4
TORSDOF 4
ENDMDL
MODEL      155
REMARK 921   NORMALIZED FREE ENERGY PREDICTED BY IDOCK:   -2.72 KCAL/MOL
REMARK 922        TOTAL FREE ENERGY PREDICTED BY IDOCK:   -4.12 KCAL/MOL
REMARK 923 INTER-LIGAND FREE ENERGY PREDICTED BY IDOCK:   -3.69 KCAL/MOL
REMARK 924 INTRA-LIGAND FREE ENERGY PREDICTED BY IDOCK:   -0.44 KCAL/MOL
REMARK 927      BINDING AFFINITY PREDICTED BY RF-SCORE:    0.00 PKD
ROOT
HETATM    1  C   UNL     1     -10.151   5.750  68.273  1.00  0.00    -0.208 C  
HETATM    2  C   UNL     1      -9.548   6.460  67.059  1.00  0.00    -0.142 C  
HETATM    3  C   UNL     1      -9.459   5.484  65.883  1.00  0.00    -0.115 C  
ENDROOT
BRANCH   2   4
HETATM    4  N   UNL     1     -10.337   7.621  66.622  1.00  0.00    -0.485 NA 
HETATM    5  H   UNL     1     -11.224   7.515  66.129  1.00  0.00     0.000 HD 
BRANCH   4   6
HETATM    6  C   UNL     1      -9.771   8.947  66.939  1.00  0.00    -0.202 C  
HETATM    7  C   UNL     1      -8.239   8.914  66.926  1.00  0.00    -0.112 C  
BRANCH   6   8
HETATM    8  C   UNL     1     -10.258  10.010  65.919  1.00  0.00    -0.275 C  
BRANCH   8   9
HETATM    9  C   UNL     1     -10.423  11.402  66.492  1.00  0.00    -0.292 A  
HETATM   10  C   UNL     1      -9.699  12.483  65.973  1.00  0.00    -0.247 A  
HETATM   11  C   UNL     1      -9.871  13.768  66.495  1.00  0.00    -0.294 A  
HETATM   12  C   UNL     1     -10.766  13.976  67.544  1.00  0.00    -0.268 A  
HETATM   13  C   UNL     1     -11.487  12.907  68.076  1.00  0.00    -0.361 A  
HETATM   14  I   UNL     1     -11.032  15.887  68.315  1.00  0.00    -0.323 I  
HETATM   15  C   UNL     1     -11.318  11.627  67.549  1.00  0.00    -0.364 A  
ENDBRANCH   8   9
ENDBRANCH   6   8
ENDBRANCH   4   6
ENDBRANCH   2   4
TORSDOF 4
ENDMDL
MODEL      156
REMARK 921   NORMALIZED FREE ENERGY PREDICTED BY IDOCK:   -2.72 KCAL/MOL
REMARK 922        TOTAL FREE ENERGY PREDICTED BY IDOCK:   -4.12 KCAL/MOL
REMARK 923 INTER-LIGAND FREE ENERGY PREDICTED BY IDOCK:   -4.13 KCAL/MOL
REMARK 924 INTRA-LIGAND FREE ENERGY PREDICTED BY IDOCK:    0.01 KCAL/MOL
REMARK 927      BINDING AFFINITY PREDICTED BY RF-SCORE:    0.00 PKD
ROOT
HETATM    1  C   UNL     1     -11.989  15.391  71.553  1.00  0.00    -0.443 C  
HETATM    2  C   UNL     1     -12.839  14.143  71.301  1.00  0.00    -0.359 C  
HETATM    3  C   UNL     1     -14.309  14.454  71.596  1.00  0.00    -0.516 C  
ENDROOT
BRANCH   2   4
HETATM    4  N   UNL     1     -12.750  13.658  69.917  1.00  0.00    -0.127 NA 
HETATM    5  H   UNL     1     -12.860  14.283  69.118  1.00  0.00     0.000 HD 
BRANCH   4   6
HETATM    6  C   UNL     1     -12.490  12.215  69.750  1.00  0.00     0.115 C  
HETATM    7  C   UNL     1     -11.242  11.970  68.895  1.00  0.00    -0.315 C  
BRANCH   6   8
HETATM    8  C   UNL     1     -12.296  11.528  71.128  1.00  0.00    -0.382 C  
BRANCH   8   9
HETATM    9  C   UNL     1     -11.792  10.102  71.055  1.00  0.00    -0.475 A  
HETATM   10  C   UNL     1     -10.427   9.829  70.896  1.00  0.00    -0.298 A  
HETATM   11  C   UNL     1      -9.969   8.509  70.848  1.00  0.00    -0.237 A  
HETATM   12  C   UNL     1     -10.877   7.455  70.954  1.00  0.00    -0.240 A  
HETATM   13  C   UNL     1     -12.240   7.713  71.104  1.00  0.00    -0.310 A  
HETATM   14  I   UNL     1     -10.198   5.493  70.895  1.00  0.00    -0.298 I  
HETATM   15  C   UNL     1     -12.693   9.031  71.158  1.00  0.00    -0.242 A  
ENDBRANCH   8   9
ENDBRANCH   6   8
ENDBRANCH   4   6
ENDBRANCH   2   4
TORSDOF 4
ENDMDL
MODEL      157
REMARK 921   NORMALIZED FREE ENERGY PREDICTED BY IDOCK:   -2.71 KCAL/MOL
REMARK 922        TOTAL FREE ENERGY PREDICTED BY IDOCK:   -4.11 KCAL/MOL
REMARK 923 INTER-LIGAND FREE ENERGY PREDICTED BY IDOCK:   -4.10 KCAL/MOL
REMARK 924 INTRA-LIGAND FREE ENERGY PREDICTED BY IDOCK:   -0.01 KCAL/MOL
REMARK 927      BINDING AFFINITY PREDICTED BY RF-SCORE:    0.00 PKD
ROOT
HETATM    1  C   UNL     1     -11.133  15.748  64.656  1.00  0.00    -0.376 C  
HETATM    2  C   UNL     1     -10.906  14.375  65.291  1.00  0.00    -0.361 C  
HETATM    3  C   UNL     1     -11.326  13.277  64.310  1.00  0.00    -0.428 C  
ENDROOT
BRANCH   2   4
HETATM    4  N   UNL     1      -9.503  14.138  65.659  1.00  0.00    -0.527 NA 
HETATM    5  H   UNL     1      -8.762  14.090  64.959  1.00  0.00     0.000 HD 
BRANCH   4   6
HETATM    6  C   UNL     1      -9.229  13.974  67.100  1.00  0.00    -0.235 C  
HETATM    7  C   UNL     1      -7.749  13.662  67.352  1.00  0.00    -0.156 C  
BRANCH   6   8
HETATM    8  C   UNL     1      -9.610  15.258  67.883  1.00  0.00    -0.199 C  
BRANCH   8   9
HETATM    9  C   UNL     1      -8.673  16.428  67.668  1.00  0.00    -0.188 A  
HETATM   10  C   UNL     1      -8.291  16.816  66.377  1.00  0.00    -0.344 A  
HETATM   11  C   UNL     1      -7.440  17.908  66.187  1.00  0.00    -0.315 A  
HETATM   12  C   UNL     1      -6.961  18.614  67.291  1.00  0.00    -0.204 A  
HETATM   13  C   UNL     1      -7.327  18.233  68.583  1.00  0.00    -0.303 A  
HETATM   14  I   UNL     1      -5.705  20.245  67.013  1.00  0.00    -0.226 I  
HETATM   15  C   UNL     1      -8.181  17.146  68.769  1.00  0.00    -0.238 A  
ENDBRANCH   8   9
ENDBRANCH   6   8
ENDBRANCH   4   6
ENDBRANCH   2   4
TORSDOF 4
ENDMDL
MODEL      158
REMARK 921   NORMALIZED FREE ENERGY PREDICTED BY IDOCK:   -2.71 KCAL/MOL
REMARK 922        TOTAL FREE ENERGY PREDICTED BY IDOCK:   -4.10 KCAL/MOL
REMARK 923 INTER-LIGAND FREE ENERGY PREDICTED BY IDOCK:   -3.50 KCAL/MOL
REMARK 924 INTRA-LIGAND FREE ENERGY PREDICTED BY IDOCK:   -0.61 KCAL/MOL
REMARK 927      BINDING AFFINITY PREDICTED BY RF-SCORE:    0.00 PKD
ROOT
HETATM    1  C   UNL     1      -7.923   8.565  70.029  1.00  0.00    -0.109 C  
HETATM    2  C   UNL     1      -8.228   7.133  69.582  1.00  0.00    -0.131 C  
HETATM    3  C   UNL     1      -9.646   6.750  70.012  1.00  0.00    -0.160 C  
ENDROOT
BRANCH   2   4
HETATM    4  N   UNL     1      -8.134   6.954  68.126  1.00  0.00    -0.118 NA 
HETATM    5  H   UNL     1      -8.152   6.030  67.694  1.00  0.00     0.000 HD 
BRANCH   4   6
HETATM    6  C   UNL     1      -8.013   8.188  67.326  1.00  0.00    -0.113 C  
HETATM    7  C   UNL     1      -6.633   8.291  66.668  1.00  0.00    -0.056 C  
BRANCH   6   8
HETATM    8  C   UNL     1      -9.100   8.236  66.220  1.00  0.00    -0.235 C  
BRANCH   8   9
HETATM    9  C   UNL     1      -9.845   9.550  66.126  1.00  0.00    -0.343 A  
HETATM   10  C   UNL     1     -10.366  10.166  67.272  1.00  0.00    -0.291 A  
HETATM   11  C   UNL     1     -11.036  11.388  67.179  1.00  0.00    -0.366 A  
HETATM   12  C   UNL     1     -11.194  11.999  65.934  1.00  0.00    -0.337 A  
HETATM   13  C   UNL     1     -10.688  11.393  64.784  1.00  0.00    -0.362 A  
HETATM   14  I   UNL     1     -12.180  13.822  65.793  1.00  0.00    -0.519 I  
HETATM   15  C   UNL     1     -10.014  10.176  64.881  1.00  0.00    -0.358 A  
ENDBRANCH   8   9
ENDBRANCH   6   8
ENDBRANCH   4   6
ENDBRANCH   2   4
TORSDOF 4
ENDMDL
MODEL      159
REMARK 921   NORMALIZED FREE ENERGY PREDICTED BY IDOCK:   -2.71 KCAL/MOL
REMARK 922        TOTAL FREE ENERGY PREDICTED BY IDOCK:   -4.10 KCAL/MOL
REMARK 923 INTER-LIGAND FREE ENERGY PREDICTED BY IDOCK:   -3.71 KCAL/MOL
REMARK 924 INTRA-LIGAND FREE ENERGY PREDICTED BY IDOCK:   -0.39 KCAL/MOL
REMARK 927      BINDING AFFINITY PREDICTED BY RF-SCORE:    0.00 PKD
ROOT
HETATM    1  C   UNL     1      -8.005   4.036  73.211  1.00  0.00    -0.089 C  
HETATM    2  C   UNL     1      -8.708   4.429  71.910  1.00  0.00    -0.116 C  
HETATM    3  C   UNL     1      -9.831   3.433  71.610  1.00  0.00    -0.222 C  
ENDROOT
BRANCH   2   4
HETATM    4  N   UNL     1      -9.300   5.774  71.960  1.00  0.00    -0.150 NA 
HETATM    5  H   UNL     1      -8.877   6.567  71.477  1.00  0.00     0.000 HD 
BRANCH   4   6
HETATM    6  C   UNL     1     -10.540   5.908  72.749  1.00  0.00    -0.225 C  
HETATM    7  C   UNL     1     -10.343   6.856  73.937  1.00  0.00    -0.398 C  
BRANCH   6   8
HETATM    8  C   UNL     1     -11.697   6.446  71.866  1.00  0.00    -0.378 C  
BRANCH   8   9
HETATM    9  C   UNL     1     -11.255   7.067  70.558  1.00  0.00    -0.335 A  
HETATM   10  C   UNL     1     -10.920   8.426  70.484  1.00  0.00    -0.258 A  
HETATM   11  C   UNL     1     -10.495   8.987  69.277  1.00  0.00    -0.238 A  
HETATM   12  C   UNL     1     -10.408   8.191  68.135  1.00  0.00    -0.201 A  
HETATM   13  C   UNL     1     -10.746   6.839  68.192  1.00  0.00    -0.295 A  
HETATM   14  I   UNL     1      -9.766   9.019  66.341  1.00  0.00    -0.315 I  
HETATM   15  C   UNL     1     -11.165   6.280  69.400  1.00  0.00    -0.489 A  
ENDBRANCH   8   9
ENDBRANCH   6   8
ENDBRANCH   4   6
ENDBRANCH   2   4
TORSDOF 4
ENDMDL
MODEL      160
REMARK 921   NORMALIZED FREE ENERGY PREDICTED BY IDOCK:   -2.70 KCAL/MOL
REMARK 922        TOTAL FREE ENERGY PREDICTED BY IDOCK:   -4.10 KCAL/MOL
REMARK 923 INTER-LIGAND FREE ENERGY PREDICTED BY IDOCK:   -3.94 KCAL/MOL
REMARK 924 INTRA-LIGAND FREE ENERGY PREDICTED BY IDOCK:   -0.16 KCAL/MOL
REMARK 927      BINDING AFFINITY PREDICTED BY RF-SCORE:    0.00 PKD
ROOT
HETATM    1  C   UNL     1      -5.808  14.273  70.186  1.00  0.00    -0.140 C  
HETATM    2  C   UNL     1      -6.744  14.621  69.027  1.00  0.00    -0.103 C  
HETATM    3  C   UNL     1      -6.616  13.565  67.926  1.00  0.00    -0.154 C  
ENDROOT
BRANCH   2   4
HETATM    4  N   UNL     1      -8.157  14.684  69.429  1.00  0.00    -0.374 NA 
HETATM    5  H   UNL     1      -8.655  13.866  69.781  1.00  0.00     0.000 HD 
BRANCH   4   6
HETATM    6  C   UNL     1      -8.812  16.000  69.294  1.00  0.00    -0.227 C  
HETATM    7  C   UNL     1      -8.261  16.774  68.091  1.00  0.00    -0.199 C  
BRANCH   6   8
HETATM    8  C   UNL     1     -10.346  15.835  69.123  1.00  0.00    -0.240 C  
BRANCH   8   9
HETATM    9  C   UNL     1     -10.760  15.002  67.928  1.00  0.00    -0.268 A  
HETATM   10  C   UNL     1     -11.126  13.658  68.081  1.00  0.00    -0.281 A  
HETATM   11  C   UNL     1     -11.525  12.901  66.977  1.00  0.00    -0.390 A  
HETATM   12  C   UNL     1     -11.554  13.485  65.710  1.00  0.00    -0.330 A  
HETATM   13  C   UNL     1     -11.186  14.821  65.542  1.00  0.00    -0.346 A  
HETATM   14  I   UNL     1     -12.158  12.367  64.067  1.00  0.00    -0.605 I  
HETATM   15  C   UNL     1     -10.793  15.575  66.648  1.00  0.00    -0.285 A  
ENDBRANCH   8   9
ENDBRANCH   6   8
ENDBRANCH   4   6
ENDBRANCH   2   4
TORSDOF 4
ENDMDL
MODEL      161
REMARK 921   NORMALIZED FREE ENERGY PREDICTED BY IDOCK:   -2.69 KCAL/MOL
REMARK 922        TOTAL FREE ENERGY PREDICTED BY IDOCK:   -4.08 KCAL/MOL
REMARK 923 INTER-LIGAND FREE ENERGY PREDICTED BY IDOCK:   -3.73 KCAL/MOL
REMARK 924 INTRA-LIGAND FREE ENERGY PREDICTED BY IDOCK:   -0.35 KCAL/MOL
REMARK 927      BINDING AFFINITY PREDICTED BY RF-SCORE:    0.00 PKD
ROOT
HETATM    1  C   UNL     1      -8.623  15.676  66.391  1.00  0.00    -0.319 C  
HETATM    2  C   UNL     1      -9.666  14.580  66.166  1.00  0.00    -0.316 C  
HETATM    3  C   UNL     1     -10.380  14.813  64.832  1.00  0.00    -0.365 C  
ENDROOT
BRANCH   2   4
HETATM    4  N   UNL     1      -9.084  13.231  66.135  1.00  0.00    -0.463 NA 
HETATM    5  H   UNL     1      -8.328  12.983  65.496  1.00  0.00     0.000 HD 
BRANCH   4   6
HETATM    6  C   UNL     1      -9.655  12.255  67.084  1.00  0.00    -0.200 C  
HETATM    7  C   UNL     1     -10.862  12.842  67.825  1.00  0.00    -0.248 C  
BRANCH   6   8
HETATM    8  C   UNL     1     -10.100  10.965  66.346  1.00  0.00    -0.280 C  
BRANCH   8   9
HETATM    9  C   UNL     1     -10.013   9.702  67.177  1.00  0.00    -0.249 A  
HETATM   10  C   UNL     1     -10.531   8.491  66.700  1.00  0.00    -0.235 A  
HETATM   11  C   UNL     1     -10.430   7.326  67.466  1.00  0.00    -0.337 A  
HETATM   12  C   UNL     1      -9.816   7.370  68.717  1.00  0.00    -0.164 A  
HETATM   13  C   UNL     1      -9.303   8.571  69.208  1.00  0.00    -0.154 A  
HETATM   14  I   UNL     1      -9.654   5.638  69.853  1.00  0.00    -0.263 I  
HETATM   15  C   UNL     1      -9.400   9.731  68.439  1.00  0.00    -0.135 A  
ENDBRANCH   8   9
ENDBRANCH   6   8
ENDBRANCH   4   6
ENDBRANCH   2   4
TORSDOF 4
ENDMDL
MODEL      162
REMARK 921   NORMALIZED FREE ENERGY PREDICTED BY IDOCK:   -2.68 KCAL/MOL
REMARK 922        TOTAL FREE ENERGY PREDICTED BY IDOCK:   -4.07 KCAL/MOL
REMARK 923 INTER-LIGAND FREE ENERGY PREDICTED BY IDOCK:   -4.00 KCAL/MOL
REMARK 924 INTRA-LIGAND FREE ENERGY PREDICTED BY IDOCK:   -0.07 KCAL/MOL
REMARK 927      BINDING AFFINITY PREDICTED BY RF-SCORE:    0.00 PKD
ROOT
HETATM    1  C   UNL     1     -10.785  15.241  65.053  1.00  0.00    -0.461 C  
HETATM    2  C   UNL     1     -11.110  13.788  64.700  1.00  0.00    -0.388 C  
HETATM    3  C   UNL     1     -12.214  13.749  63.640  1.00  0.00    -0.311 C  
ENDROOT
BRANCH   2   4
HETATM    4  N   UNL     1      -9.952  13.053  64.171  1.00  0.00    -0.674 NA 
HETATM    5  H   UNL     1      -8.997  13.393  64.290  1.00  0.00     0.000 HD 
BRANCH   4   6
HETATM    6  C   UNL     1     -10.250  11.795  63.460  1.00  0.00    -0.450 C  
HETATM    7  C   UNL     1      -9.005  11.246  62.754  1.00  0.00    -0.288 C  
BRANCH   6   8
HETATM    8  C   UNL     1     -10.782  10.719  64.444  1.00  0.00    -0.120 C  
BRANCH   8   9
HETATM    9  C   UNL     1      -9.969  10.570  65.713  1.00  0.00    -0.318 A  
HETATM   10  C   UNL     1      -8.762   9.859  65.714  1.00  0.00    -0.157 A  
HETATM   11  C   UNL     1      -8.009   9.742  66.885  1.00  0.00    -0.105 A  
HETATM   12  C   UNL     1      -8.464  10.332  68.064  1.00  0.00    -0.118 A  
HETATM   13  C   UNL     1      -9.668  11.037  68.079  1.00  0.00    -0.181 A  
HETATM   14  I   UNL     1      -7.341  10.170  69.804  1.00  0.00    -0.140 I  
HETATM   15  C   UNL     1     -10.414  11.157  66.907  1.00  0.00    -0.289 A  
ENDBRANCH   8   9
ENDBRANCH   6   8
ENDBRANCH   4   6
ENDBRANCH   2   4
TORSDOF 4
ENDMDL
MODEL      163
REMARK 921   NORMALIZED FREE ENERGY PREDICTED BY IDOCK:   -2.67 KCAL/MOL
REMARK 922        TOTAL FREE ENERGY PREDICTED BY IDOCK:   -4.06 KCAL/MOL
REMARK 923 INTER-LIGAND FREE ENERGY PREDICTED BY IDOCK:   -3.55 KCAL/MOL
REMARK 924 INTRA-LIGAND FREE ENERGY PREDICTED BY IDOCK:   -0.51 KCAL/MOL
REMARK 927      BINDING AFFINITY PREDICTED BY RF-SCORE:    0.00 PKD
ROOT
HETATM    1  C   UNL     1      -6.309  13.428  68.085  1.00  0.00    -0.114 C  
HETATM    2  C   UNL     1      -6.998  14.540  68.880  1.00  0.00    -0.110 C  
HETATM    3  C   UNL     1      -6.242  14.782  70.189  1.00  0.00    -0.166 C  
ENDROOT
BRANCH   2   4
HETATM    4  N   UNL     1      -7.057  15.815  68.151  1.00  0.00    -0.112 NA 
HETATM    5  H   UNL     1      -6.218  16.271  67.792  1.00  0.00     0.000 HD 
BRANCH   4   6
HETATM    6  C   UNL     1      -8.401  16.396  67.967  1.00  0.00    -0.178 C  
HETATM    7  C   UNL     1      -8.523  17.749  68.677  1.00  0.00    -0.271 C  
BRANCH   6   8
HETATM    8  C   UNL     1      -8.715  16.591  66.460  1.00  0.00    -0.317 C  
BRANCH   8   9
HETATM    9  C   UNL     1      -9.619  15.533  65.863  1.00  0.00    -0.383 A  
HETATM   10  C   UNL     1     -10.774  15.891  65.156  1.00  0.00    -0.449 A  
HETATM   11  C   UNL     1     -11.594  14.910  64.592  1.00  0.00    -0.395 A  
HETATM   12  C   UNL     1     -11.264  13.562  64.739  1.00  0.00    -0.352 A  
HETATM   13  C   UNL     1     -10.121  13.192  65.448  1.00  0.00    -0.260 A  
HETATM   14  I   UNL     1     -12.473  12.100  63.893  1.00  0.00    -0.336 I  
HETATM   15  C   UNL     1      -9.301  14.174  66.005  1.00  0.00    -0.108 A  
ENDBRANCH   8   9
ENDBRANCH   6   8
ENDBRANCH   4   6
ENDBRANCH   2   4
TORSDOF 4
ENDMDL
MODEL      164
REMARK 921   NORMALIZED FREE ENERGY PREDICTED BY IDOCK:   -2.67 KCAL/MOL
REMARK 922        TOTAL FREE ENERGY PREDICTED BY IDOCK:   -4.06 KCAL/MOL
REMARK 923 INTER-LIGAND FREE ENERGY PREDICTED BY IDOCK:   -3.29 KCAL/MOL
REMARK 924 INTRA-LIGAND FREE ENERGY PREDICTED BY IDOCK:   -0.77 KCAL/MOL
REMARK 927      BINDING AFFINITY PREDICTED BY RF-SCORE:    0.00 PKD
ROOT
HETATM    1  C   UNL     1      -7.577  10.474  65.595  1.00  0.00    -0.134 C  
HETATM    2  C   UNL     1      -8.431  10.580  64.329  1.00  0.00    -0.128 C  
HETATM    3  C   UNL     1      -8.667   9.183  63.748  1.00  0.00    -0.150 C  
ENDROOT
BRANCH   2   4
HETATM    4  N   UNL     1      -9.743  11.195  64.571  1.00  0.00    -0.250 NA 
HETATM    5  H   UNL     1     -10.471  11.212  63.857  1.00  0.00     0.000 HD 
BRANCH   4   6
HETATM    6  C   UNL     1      -9.946  11.786  65.908  1.00  0.00    -0.236 C  
HETATM    7  C   UNL     1     -10.191  13.297  65.817  1.00  0.00    -0.296 C  
BRANCH   6   8
HETATM    8  C   UNL     1     -11.154  11.126  66.624  1.00  0.00    -0.255 C  
BRANCH   8   9
HETATM    9  C   UNL     1     -10.781  10.121  67.693  1.00  0.00    -0.339 A  
HETATM   10  C   UNL     1     -10.767  10.483  69.046  1.00  0.00    -0.259 A  
HETATM   11  C   UNL     1     -10.439   9.545  70.028  1.00  0.00    -0.283 A  
HETATM   12  C   UNL     1     -10.116   8.239  69.659  1.00  0.00    -0.199 A  
HETATM   13  C   UNL     1     -10.118   7.867  68.314  1.00  0.00    -0.225 A  
HETATM   14  I   UNL     1      -9.639   6.838  71.117  1.00  0.00    -0.184 I  
HETATM   15  C   UNL     1     -10.452   8.804  67.337  1.00  0.00    -0.349 A  
ENDBRANCH   8   9
ENDBRANCH   6   8
ENDBRANCH   4   6
ENDBRANCH   2   4
TORSDOF 4
ENDMDL
MODEL      165
REMARK 921   NORMALIZED FREE ENERGY PREDICTED BY IDOCK:   -2.63 KCAL/MOL
REMARK 922        TOTAL FREE ENERGY PREDICTED BY IDOCK:   -4.01 KCAL/MOL
REMARK 923 INTER-LIGAND FREE ENERGY PREDICTED BY IDOCK:   -3.54 KCAL/MOL
REMARK 924 INTRA-LIGAND FREE ENERGY PREDICTED BY IDOCK:   -0.47 KCAL/MOL
REMARK 927      BINDING AFFINITY PREDICTED BY RF-SCORE:    0.00 PKD
ROOT
HETATM    1  C   UNL     1     -11.821   8.519  72.167  1.00  0.00    -0.448 C  
HETATM    2  C   UNL     1     -12.364   9.703  71.363  1.00  0.00    -0.378 C  
HETATM    3  C   UNL     1     -13.322  10.521  72.234  1.00  0.00    -0.211 C  
ENDROOT
BRANCH   2   4
HETATM    4  N   UNL     1     -11.308  10.606  70.885  1.00  0.00    -0.330 NA 
HETATM    5  H   UNL     1     -10.645  11.046  71.523  1.00  0.00     0.000 HD 
BRANCH   4   6
HETATM    6  C   UNL     1     -11.262  10.837  69.428  1.00  0.00    -0.276 C  
HETATM    7  C   UNL     1     -11.716  12.259  69.077  1.00  0.00    -0.376 C  
BRANCH   6   8
HETATM    8  C   UNL     1      -9.826  10.621  68.882  1.00  0.00    -0.210 C  
BRANCH   8   9
HETATM    9  C   UNL     1      -9.566   9.236  68.326  1.00  0.00    -0.160 A  
HETATM   10  C   UNL     1      -8.359   8.573  68.586  1.00  0.00    -0.123 A  
HETATM   11  C   UNL     1      -8.134   7.288  68.085  1.00  0.00    -0.124 A  
HETATM   12  C   UNL     1      -9.115   6.662  67.315  1.00  0.00    -0.118 A  
HETATM   13  C   UNL     1     -10.318   7.315  67.042  1.00  0.00    -0.376 A  
HETATM   14  I   UNL     1      -8.790   4.747  66.578  1.00  0.00    -0.122 I  
HETATM   15  C   UNL     1     -10.542   8.595  67.549  1.00  0.00    -0.292 A  
ENDBRANCH   8   9
ENDBRANCH   6   8
ENDBRANCH   4   6
ENDBRANCH   2   4
TORSDOF 4
ENDMDL
MODEL      166
REMARK 921   NORMALIZED FREE ENERGY PREDICTED BY IDOCK:   -2.63 KCAL/MOL
REMARK 922        TOTAL FREE ENERGY PREDICTED BY IDOCK:   -4.01 KCAL/MOL
REMARK 923 INTER-LIGAND FREE ENERGY PREDICTED BY IDOCK:   -3.68 KCAL/MOL
REMARK 924 INTRA-LIGAND FREE ENERGY PREDICTED BY IDOCK:   -0.32 KCAL/MOL
REMARK 927      BINDING AFFINITY PREDICTED BY RF-SCORE:    0.00 PKD
ROOT
HETATM    1  C   UNL     1     -13.427  13.722  71.910  1.00  0.00    -0.514 C  
HETATM    2  C   UNL     1     -12.612  14.275  70.739  1.00  0.00    -0.356 C  
HETATM    3  C   UNL     1     -11.947  15.592  71.150  1.00  0.00    -0.432 C  
ENDROOT
BRANCH   2   4
HETATM    4  N   UNL     1     -11.555  13.357  70.291  1.00  0.00    -0.526 NA 
HETATM    5  H   UNL     1     -10.869  12.967  70.938  1.00  0.00     0.000 HD 
BRANCH   4   6
HETATM    6  C   UNL     1     -11.544  13.034  68.851  1.00  0.00    -0.311 C  
HETATM    7  C   UNL     1     -12.363  14.049  68.047  1.00  0.00    -0.011 C  
BRANCH   6   8
HETATM    8  C   UNL     1     -10.092  13.014  68.302  1.00  0.00    -0.239 C  
BRANCH   8   9
HETATM    9  C   UNL     1      -9.629  11.665  67.795  1.00  0.00    -0.178 A  
HETATM   10  C   UNL     1     -10.311  11.015  66.758  1.00  0.00    -0.284 A  
HETATM   11  C   UNL     1      -9.866   9.778  66.283  1.00  0.00    -0.315 A  
HETATM   12  C   UNL     1      -8.738   9.183  66.848  1.00  0.00    -0.123 A  
HETATM   13  C   UNL     1      -8.054   9.816  67.886  1.00  0.00    -0.112 A  
HETATM   14  I   UNL     1      -8.067   7.350  66.136  1.00  0.00    -0.137 I  
HETATM   15  C   UNL     1      -8.497  11.053  68.354  1.00  0.00    -0.144 A  
ENDBRANCH   8   9
ENDBRANCH   6   8
ENDBRANCH   4   6
ENDBRANCH   2   4
TORSDOF 4
ENDMDL
MODEL      167
REMARK 921   NORMALIZED FREE ENERGY PREDICTED BY IDOCK:   -2.59 KCAL/MOL
REMARK 922        TOTAL FREE ENERGY PREDICTED BY IDOCK:   -3.97 KCAL/MOL
REMARK 923 INTER-LIGAND FREE ENERGY PREDICTED BY IDOCK:   -3.95 KCAL/MOL
REMARK 924 INTRA-LIGAND FREE ENERGY PREDICTED BY IDOCK:   -0.02 KCAL/MOL
REMARK 927      BINDING AFFINITY PREDICTED BY RF-SCORE:    0.00 PKD
ROOT
HETATM    1  C   UNL     1     -13.227  10.120  71.538  1.00  0.00    -0.496 C  
HETATM    2  C   UNL     1     -13.389   8.810  72.312  1.00  0.00    -0.419 C  
HETATM    3  C   UNL     1     -14.407   7.914  71.602  1.00  0.00    -0.595 C  
ENDROOT
BRANCH   2   4
HETATM    4  N   UNL     1     -12.134   8.056  72.436  1.00  0.00    -0.477 NA 
HETATM    5  H   UNL     1     -11.835   7.645  73.321  1.00  0.00     0.000 HD 
BRANCH   4   6
HETATM    6  C   UNL     1     -11.330   7.929  71.204  1.00  0.00    -0.266 C  
HETATM    7  C   UNL     1      -9.864   8.303  71.456  1.00  0.00    -0.250 C  
BRANCH   6   8
HETATM    8  C   UNL     1     -11.389   6.478  70.656  1.00  0.00    -0.409 C  
BRANCH   8   9
HETATM    9  C   UNL     1     -10.259   5.583  71.120  1.00  0.00    -0.285 A  
HETATM   10  C   UNL     1      -9.041   5.548  70.429  1.00  0.00    -0.164 A  
HETATM   11  C   UNL     1      -7.997   4.733  70.875  1.00  0.00    -0.082 A  
HETATM   12  C   UNL     1      -8.169   3.944  72.012  1.00  0.00    -0.084 A  
HETATM   13  C   UNL     1      -9.380   3.964  72.705  1.00  0.00    -0.145 A  
HETATM   14  I   UNL     1      -6.616   2.740  72.684  1.00  0.00    -0.019 I  
HETATM   15  C   UNL     1     -10.419   4.783  72.262  1.00  0.00    -0.255 A  
ENDBRANCH   8   9
ENDBRANCH   6   8
ENDBRANCH   4   6
ENDBRANCH   2   4
TORSDOF 4
ENDMDL
MODEL      168
REMARK 921   NORMALIZED FREE ENERGY PREDICTED BY IDOCK:   -2.59 KCAL/MOL
REMARK 922        TOTAL FREE ENERGY PREDICTED BY IDOCK:   -3.96 KCAL/MOL
REMARK 923 INTER-LIGAND FREE ENERGY PREDICTED BY IDOCK:   -3.57 KCAL/MOL
REMARK 924 INTRA-LIGAND FREE ENERGY PREDICTED BY IDOCK:   -0.39 KCAL/MOL
REMARK 927      BINDING AFFINITY PREDICTED BY RF-SCORE:    0.00 PKD
ROOT
HETATM    1  C   UNL     1      -8.887   6.937  66.711  1.00  0.00    -0.129 C  
HETATM    2  C   UNL     1      -9.041   8.396  66.276  1.00  0.00    -0.194 C  
HETATM    3  C   UNL     1      -8.545   8.560  64.836  1.00  0.00    -0.135 C  
ENDROOT
BRANCH   2   4
HETATM    4  N   UNL     1     -10.432   8.868  66.330  1.00  0.00    -0.236 NA 
HETATM    5  H   UNL     1     -11.204   8.315  65.956  1.00  0.00     0.000 HD 
BRANCH   4   6
HETATM    6  C   UNL     1     -10.646  10.187  66.957  1.00  0.00    -0.225 C  
HETATM    7  C   UNL     1      -9.594  10.467  68.036  1.00  0.00    -0.159 C  
BRANCH   6   8
HETATM    8  C   UNL     1     -10.589  11.316  65.895  1.00  0.00    -0.309 C  
BRANCH   8   9
HETATM    9  C   UNL     1     -10.556  12.718  66.468  1.00  0.00    -0.270 A  
HETATM   10  C   UNL     1      -9.417  13.522  66.335  1.00  0.00    -0.236 A  
HETATM   11  C   UNL     1      -9.401  14.821  66.851  1.00  0.00    -0.256 A  
HETATM   12  C   UNL     1     -10.526  15.320  67.508  1.00  0.00    -0.265 A  
HETATM   13  C   UNL     1     -11.665  14.526  67.655  1.00  0.00    -0.410 A  
HETATM   14  I   UNL     1     -10.512  17.254  68.266  1.00  0.00    -0.318 I  
HETATM   15  C   UNL     1     -11.679  13.232  67.134  1.00  0.00    -0.425 A  
ENDBRANCH   8   9
ENDBRANCH   6   8
ENDBRANCH   4   6
ENDBRANCH   2   4
TORSDOF 4
ENDMDL
MODEL      169
REMARK 921   NORMALIZED FREE ENERGY PREDICTED BY IDOCK:   -2.57 KCAL/MOL
REMARK 922        TOTAL FREE ENERGY PREDICTED BY IDOCK:   -3.94 KCAL/MOL
REMARK 923 INTER-LIGAND FREE ENERGY PREDICTED BY IDOCK:   -3.96 KCAL/MOL
REMARK 924 INTRA-LIGAND FREE ENERGY PREDICTED BY IDOCK:    0.02 KCAL/MOL
REMARK 927      BINDING AFFINITY PREDICTED BY RF-SCORE:    0.00 PKD
ROOT
HETATM    1  C   UNL     1     -12.105  14.275  64.460  1.00  0.00    -0.499 C  
HETATM    2  C   UNL     1     -11.499  12.932  64.875  1.00  0.00    -0.315 C  
HETATM    3  C   UNL     1     -11.917  11.848  63.877  1.00  0.00    -0.503 C  
ENDROOT
BRANCH   2   4
HETATM    4  N   UNL     1     -10.031  12.955  64.925  1.00  0.00    -0.511 NA 
HETATM    5  H   UNL     1      -9.482  13.607  64.364  1.00  0.00     0.000 HD 
BRANCH   4   6
HETATM    6  C   UNL     1      -9.397  11.983  65.837  1.00  0.00    -0.157 C  
HETATM    7  C   UNL     1      -8.849  12.672  67.092  1.00  0.00    -0.204 C  
BRANCH   6   8
HETATM    8  C   UNL     1     -10.411  10.891  66.268  1.00  0.00    -0.304 C  
BRANCH   8   9
HETATM    9  C   UNL     1      -9.842   9.488  66.318  1.00  0.00    -0.334 A  
HETATM   10  C   UNL     1      -8.577   9.206  65.787  1.00  0.00    -0.171 A  
HETATM   11  C   UNL     1      -8.052   7.913  65.853  1.00  0.00    -0.119 A  
HETATM   12  C   UNL     1      -8.795   6.892  66.447  1.00  0.00    -0.145 A  
HETATM   13  C   UNL     1     -10.060   7.158  66.973  1.00  0.00    -0.308 A  
HETATM   14  I   UNL     1      -8.013   4.971  66.559  1.00  0.00    -0.108 I  
HETATM   15  C   UNL     1     -10.579   8.451  66.910  1.00  0.00    -0.285 A  
ENDBRANCH   8   9
ENDBRANCH   6   8
ENDBRANCH   4   6
ENDBRANCH   2   4
TORSDOF 4
ENDMDL
MODEL      170
REMARK 921   NORMALIZED FREE ENERGY PREDICTED BY IDOCK:   -2.57 KCAL/MOL
REMARK 922        TOTAL FREE ENERGY PREDICTED BY IDOCK:   -3.94 KCAL/MOL
REMARK 923 INTER-LIGAND FREE ENERGY PREDICTED BY IDOCK:   -3.36 KCAL/MOL
REMARK 924 INTRA-LIGAND FREE ENERGY PREDICTED BY IDOCK:   -0.58 KCAL/MOL
REMARK 927      BINDING AFFINITY PREDICTED BY RF-SCORE:    0.00 PKD
ROOT
HETATM    1  C   UNL     1      -6.838   9.720  64.905  1.00  0.00    -0.117 C  
HETATM    2  C   UNL     1      -7.567  10.355  66.092  1.00  0.00    -0.130 C  
HETATM    3  C   UNL     1      -9.021   9.875  66.121  1.00  0.00    -0.177 C  
ENDROOT
BRANCH   2   4
HETATM    4  N   UNL     1      -6.955  10.019  67.386  1.00  0.00    -0.082 NA 
HETATM    5  H   UNL     1      -6.033  10.365  67.652  1.00  0.00     0.000 HD 
BRANCH   4   6
HETATM    6  C   UNL     1      -7.754   9.155  68.276  1.00  0.00    -0.091 C  
HETATM    7  C   UNL     1      -7.075   7.796  68.487  1.00  0.00    -0.073 C  
BRANCH   6   8
HETATM    8  C   UNL     1      -7.962   9.830  69.657  1.00  0.00    -0.152 C  
BRANCH   8   9
HETATM    9  C   UNL     1      -9.340   9.634  70.253  1.00  0.00    -0.292 A  
HETATM   10  C   UNL     1     -10.450  10.314  69.736  1.00  0.00    -0.300 A  
HETATM   11  C   UNL     1     -11.722  10.113  70.280  1.00  0.00    -0.361 A  
HETATM   12  C   UNL     1     -11.887   9.233  71.349  1.00  0.00    -0.358 A  
HETATM   13  C   UNL     1     -10.789   8.555  71.879  1.00  0.00    -0.392 A  
HETATM   14  I   UNL     1     -13.778   8.923  72.153  1.00  0.00    -0.500 I  
HETATM   15  C   UNL     1      -9.522   8.753  71.330  1.00  0.00    -0.330 A  
ENDBRANCH   8   9
ENDBRANCH   6   8
ENDBRANCH   4   6
ENDBRANCH   2   4
TORSDOF 4
ENDMDL
MODEL      171
REMARK 921   NORMALIZED FREE ENERGY PREDICTED BY IDOCK:   -2.57 KCAL/MOL
REMARK 922        TOTAL FREE ENERGY PREDICTED BY IDOCK:   -3.93 KCAL/MOL
REMARK 923 INTER-LIGAND FREE ENERGY PREDICTED BY IDOCK:   -3.65 KCAL/MOL
REMARK 924 INTRA-LIGAND FREE ENERGY PREDICTED BY IDOCK:   -0.28 KCAL/MOL
REMARK 927      BINDING AFFINITY PREDICTED BY RF-SCORE:    0.00 PKD
ROOT
HETATM    1  C   UNL     1      -9.159   9.924  65.437  1.00  0.00    -0.241 C  
HETATM    2  C   UNL     1     -10.184   9.414  66.453  1.00  0.00    -0.230 C  
HETATM    3  C   UNL     1      -9.918   7.937  66.757  1.00  0.00    -0.333 C  
ENDROOT
BRANCH   2   4
HETATM    4  N   UNL     1     -10.145  10.150  67.725  1.00  0.00    -0.171 NA 
HETATM    5  H   UNL     1      -9.305  10.184  68.304  1.00  0.00     0.000 HD 
BRANCH   4   6
HETATM    6  C   UNL     1     -11.391  10.837  68.116  1.00  0.00    -0.308 C  
HETATM    7  C   UNL     1     -11.376  11.212  69.603  1.00  0.00    -0.366 C  
BRANCH   6   8
HETATM    8  C   UNL     1     -11.595  12.126  67.277  1.00  0.00    -0.404 C  
BRANCH   8   9
HETATM    9  C   UNL     1     -10.606  13.234  67.573  1.00  0.00    -0.251 A  
HETATM   10  C   UNL     1     -10.936  14.277  68.448  1.00  0.00    -0.267 A  
HETATM   11  C   UNL     1     -10.010  15.285  68.730  1.00  0.00    -0.215 A  
HETATM   12  C   UNL     1      -8.750  15.257  68.132  1.00  0.00    -0.162 A  
HETATM   13  C   UNL     1      -8.411  14.228  67.253  1.00  0.00    -0.226 A  
HETATM   14  I   UNL     1      -7.367  16.748  68.558  1.00  0.00    -0.238 I  
HETATM   15  C   UNL     1      -9.335  13.220  66.978  1.00  0.00    -0.242 A  
ENDBRANCH   8   9
ENDBRANCH   6   8
ENDBRANCH   4   6
ENDBRANCH   2   4
TORSDOF 4
ENDMDL
MODEL      172
REMARK 921   NORMALIZED FREE ENERGY PREDICTED BY IDOCK:   -2.55 KCAL/MOL
REMARK 922        TOTAL FREE ENERGY PREDICTED BY IDOCK:   -3.91 KCAL/MOL
REMARK 923 INTER-LIGAND FREE ENERGY PREDICTED BY IDOCK:   -3.26 KCAL/MOL
REMARK 924 INTRA-LIGAND FREE ENERGY PREDICTED BY IDOCK:   -0.65 KCAL/MOL
REMARK 927      BINDING AFFINITY PREDICTED BY RF-SCORE:    0.00 PKD
ROOT
HETATM    1  C   UNL     1     -10.054   4.852  69.331  1.00  0.00    -0.270 C  
HETATM    2  C   UNL     1      -9.656   4.084  70.593  1.00  0.00    -0.190 C  
HETATM    3  C   UNL     1      -8.291   3.421  70.386  1.00  0.00    -0.084 C  
ENDROOT
BRANCH   2   4
HETATM    4  N   UNL     1      -9.564   4.943  71.782  1.00  0.00    -0.151 NA 
HETATM    5  H   UNL     1      -8.670   5.155  72.227  1.00  0.00     0.000 HD 
BRANCH   4   6
HETATM    6  C   UNL     1     -10.839   5.482  72.295  1.00  0.00    -0.241 C  
HETATM    7  C   UNL     1     -11.372   4.637  73.457  1.00  0.00    -0.353 C  
BRANCH   6   8
HETATM    8  C   UNL     1     -10.662   6.945  72.779  1.00  0.00    -0.286 C  
BRANCH   8   9
HETATM    9  C   UNL     1     -10.296   7.930  71.689  1.00  0.00    -0.250 A  
HETATM   10  C   UNL     1      -9.047   8.566  71.685  1.00  0.00    -0.296 A  
HETATM   11  C   UNL     1      -8.710   9.459  70.665  1.00  0.00    -0.263 A  
HETATM   12  C   UNL     1      -9.624   9.725  69.645  1.00  0.00    -0.221 A  
HETATM   13  C   UNL     1     -10.874   9.105  69.641  1.00  0.00    -0.210 A  
HETATM   14  I   UNL     1      -9.122  11.044  68.121  1.00  0.00    -0.171 I  
HETATM   15  C   UNL     1     -11.206   8.209  70.658  1.00  0.00    -0.268 A  
ENDBRANCH   8   9
ENDBRANCH   6   8
ENDBRANCH   4   6
ENDBRANCH   2   4
TORSDOF 4
ENDMDL
MODEL      173
REMARK 921   NORMALIZED FREE ENERGY PREDICTED BY IDOCK:   -2.54 KCAL/MOL
REMARK 922        TOTAL FREE ENERGY PREDICTED BY IDOCK:   -3.89 KCAL/MOL
REMARK 923 INTER-LIGAND FREE ENERGY PREDICTED BY IDOCK:   -3.16 KCAL/MOL
REMARK 924 INTRA-LIGAND FREE ENERGY PREDICTED BY IDOCK:   -0.73 KCAL/MOL
REMARK 927      BINDING AFFINITY PREDICTED BY RF-SCORE:    0.00 PKD
ROOT
HETATM    1  C   UNL     1      -8.364  10.881  67.354  1.00  0.00    -0.117 C  
HETATM    2  C   UNL     1      -9.664  10.385  66.717  1.00  0.00    -0.181 C  
HETATM    3  C   UNL     1      -9.642   8.856  66.624  1.00  0.00    -0.281 C  
ENDROOT
BRANCH   2   4
HETATM    4  N   UNL     1     -10.861  10.772  67.477  1.00  0.00    -0.267 NA 
HETATM    5  H   UNL     1     -11.797  10.719  67.074  1.00  0.00     0.000 HD 
BRANCH   4   6
HETATM    6  C   UNL     1     -10.629  11.243  68.857  1.00  0.00    -0.207 C  
HETATM    7  C   UNL     1     -11.071  12.701  69.028  1.00  0.00    -0.291 C  
BRANCH   6   8
HETATM    8  C   UNL     1     -11.401  10.363  69.875  1.00  0.00    -0.370 C  
BRANCH   8   9
HETATM    9  C   UNL     1     -10.522   9.493  70.749  1.00  0.00    -0.384 A  
HETATM   10  C   UNL     1     -11.077   8.485  71.548  1.00  0.00    -0.343 A  
HETATM   11  C   UNL     1     -10.257   7.674  72.338  1.00  0.00    -0.282 A  
HETATM   12  C   UNL     1      -8.876   7.873  72.335  1.00  0.00    -0.154 A  
HETATM   13  C   UNL     1      -8.311   8.878  71.550  1.00  0.00    -0.163 A  
HETATM   14  I   UNL     1      -7.652   6.663  73.499  1.00  0.00    -0.092 I  
HETATM   15  C   UNL     1      -9.132   9.682  70.758  1.00  0.00    -0.031 A  
ENDBRANCH   8   9
ENDBRANCH   6   8
ENDBRANCH   4   6
ENDBRANCH   2   4
TORSDOF 4
ENDMDL
MODEL      174
REMARK 921   NORMALIZED FREE ENERGY PREDICTED BY IDOCK:   -2.52 KCAL/MOL
REMARK 922        TOTAL FREE ENERGY PREDICTED BY IDOCK:   -3.87 KCAL/MOL
REMARK 923 INTER-LIGAND FREE ENERGY PREDICTED BY IDOCK:   -4.18 KCAL/MOL
REMARK 924 INTRA-LIGAND FREE ENERGY PREDICTED BY IDOCK:    0.30 KCAL/MOL
REMARK 927      BINDING AFFINITY PREDICTED BY RF-SCORE:    0.00 PKD
ROOT
HETATM    1  C   UNL     1     -13.326   9.879  71.149  1.00  0.00    -0.371 C  
HETATM    2  C   UNL     1     -11.929  10.399  70.801  1.00  0.00    -0.363 C  
HETATM    3  C   UNL     1     -10.879   9.350  71.180  1.00  0.00    -0.427 C  
ENDROOT
BRANCH   2   4
HETATM    4  N   UNL     1     -11.768  10.702  69.372  1.00  0.00    -0.383 NA 
HETATM    5  H   UNL     1     -12.003  10.023  68.647  1.00  0.00     0.000 HD 
BRANCH   4   6
HETATM    6  C   UNL     1     -11.248  12.044  69.047  1.00  0.00    -0.258 C  
HETATM    7  C   UNL     1      -9.720  12.032  68.921  1.00  0.00     0.071 C  
BRANCH   6   8
HETATM    8  C   UNL     1     -11.856  12.563  67.718  1.00  0.00    -0.375 C  
BRANCH   8   9
HETATM    9  C   UNL     1     -11.092  12.157  66.475  1.00  0.00    -0.352 A  
HETATM   10  C   UNL     1     -10.865  13.074  65.440  1.00  0.00    -0.304 A  
HETATM   11  C   UNL     1     -10.142  12.697  64.304  1.00  0.00    -0.292 A  
HETATM   12  C   UNL     1      -9.649  11.396  64.197  1.00  0.00    -0.191 A  
HETATM   13  C   UNL     1      -9.875  10.471  65.216  1.00  0.00    -0.345 A  
HETATM   14  I   UNL     1      -8.565  10.835  62.516  1.00  0.00    -0.294 I  
HETATM   15  C   UNL     1     -10.591  10.853  66.351  1.00  0.00    -0.289 A  
ENDBRANCH   8   9
ENDBRANCH   6   8
ENDBRANCH   4   6
ENDBRANCH   2   4
TORSDOF 4
ENDMDL
MODEL      175
REMARK 921   NORMALIZED FREE ENERGY PREDICTED BY IDOCK:   -2.52 KCAL/MOL
REMARK 922        TOTAL FREE ENERGY PREDICTED BY IDOCK:   -3.87 KCAL/MOL
REMARK 923 INTER-LIGAND FREE ENERGY PREDICTED BY IDOCK:   -3.80 KCAL/MOL
REMARK 924 INTRA-LIGAND FREE ENERGY PREDICTED BY IDOCK:   -0.07 KCAL/MOL
REMARK 927      BINDING AFFINITY PREDICTED BY RF-SCORE:    0.00 PKD
ROOT
HETATM    1  C   UNL     1     -10.870  18.784  67.647  1.00  0.00    -0.382 C  
HETATM    2  C   UNL     1     -10.206  18.875  66.271  1.00  0.00    -0.438 C  
HETATM    3  C   UNL     1      -9.055  19.883  66.320  1.00  0.00    -0.436 C  
ENDROOT
BRANCH   2   4
HETATM    4  N   UNL     1      -9.661  17.590  65.811  1.00  0.00    -0.540 NA 
HETATM    5  H   UNL     1      -8.712  17.507  65.445  1.00  0.00     0.000 HD 
BRANCH   4   6
HETATM    6  C   UNL     1     -10.566  16.429  65.909  1.00  0.00    -0.285 C  
HETATM    7  C   UNL     1     -11.231  16.127  64.561  1.00  0.00    -0.275 C  
BRANCH   6   8
HETATM    8  C   UNL     1      -9.794  15.168  66.380  1.00  0.00    -0.300 C  
BRANCH   8   9
HETATM    9  C   UNL     1      -8.719  15.438  67.411  1.00  0.00    -0.194 A  
HETATM   10  C   UNL     1      -8.836  14.944  68.718  1.00  0.00    -0.183 A  
HETATM   11  C   UNL     1      -7.830  15.182  69.658  1.00  0.00    -0.125 A  
HETATM   12  C   UNL     1      -6.703  15.921  69.297  1.00  0.00    -0.176 A  
HETATM   13  C   UNL     1      -6.577  16.424  68.002  1.00  0.00    -0.146 A  
HETATM   14  I   UNL     1      -5.201  16.266  70.689  1.00  0.00    -0.063 I  
HETATM   15  C   UNL     1      -7.580  16.181  67.064  1.00  0.00    -0.260 A  
ENDBRANCH   8   9
ENDBRANCH   6   8
ENDBRANCH   4   6
ENDBRANCH   2   4
TORSDOF 4
ENDMDL
MODEL      176
REMARK 921   NORMALIZED FREE ENERGY PREDICTED BY IDOCK:   -2.52 KCAL/MOL
REMARK 922        TOTAL FREE ENERGY PREDICTED BY IDOCK:   -3.87 KCAL/MOL
REMARK 923 INTER-LIGAND FREE ENERGY PREDICTED BY IDOCK:   -3.41 KCAL/MOL
REMARK 924 INTRA-LIGAND FREE ENERGY PREDICTED BY IDOCK:   -0.46 KCAL/MOL
REMARK 927      BINDING AFFINITY PREDICTED BY RF-SCORE:    0.00 PKD
ROOT
HETATM    1  C   UNL     1     -11.005   7.928  70.222  1.00  0.00    -0.249 C  
HETATM    2  C   UNL     1     -10.336   8.992  71.094  1.00  0.00    -0.291 C  
HETATM    3  C   UNL     1      -8.814   8.842  71.015  1.00  0.00    -0.285 C  
ENDROOT
BRANCH   2   4
HETATM    4  N   UNL     1     -10.675  10.363  70.689  1.00  0.00    -0.383 NA 
HETATM    5  H   UNL     1     -10.716  11.130  71.360  1.00  0.00     0.000 HD 
BRANCH   4   6
HETATM    6  C   UNL     1     -10.954  10.566  69.253  1.00  0.00    -0.244 C  
HETATM    7  C   UNL     1     -12.244  11.367  69.045  1.00  0.00    -0.200 C  
BRANCH   6   8
HETATM    8  C   UNL     1      -9.783  11.316  68.566  1.00  0.00    -0.199 C  
BRANCH   8   9
HETATM    9  C   UNL     1      -9.490  10.864  67.151  1.00  0.00    -0.178 A  
HETATM   10  C   UNL     1      -8.319  10.157  66.850  1.00  0.00    -0.122 A  
HETATM   11  C   UNL     1      -8.065   9.727  65.544  1.00  0.00    -0.125 A  
HETATM   12  C   UNL     1      -8.981  10.010  64.531  1.00  0.00    -0.226 A  
HETATM   13  C   UNL     1     -10.148  10.721  64.815  1.00  0.00    -0.396 A  
HETATM   14  I   UNL     1      -8.614   9.364  62.591  1.00  0.00    -0.207 I  
HETATM   15  C   UNL     1     -10.401  11.143  66.121  1.00  0.00    -0.302 A  
ENDBRANCH   8   9
ENDBRANCH   6   8
ENDBRANCH   4   6
ENDBRANCH   2   4
TORSDOF 4
ENDMDL
MODEL      177
REMARK 921   NORMALIZED FREE ENERGY PREDICTED BY IDOCK:   -2.51 KCAL/MOL
REMARK 922        TOTAL FREE ENERGY PREDICTED BY IDOCK:   -3.87 KCAL/MOL
REMARK 923 INTER-LIGAND FREE ENERGY PREDICTED BY IDOCK:   -3.46 KCAL/MOL
REMARK 924 INTRA-LIGAND FREE ENERGY PREDICTED BY IDOCK:   -0.41 KCAL/MOL
REMARK 927      BINDING AFFINITY PREDICTED BY RF-SCORE:    0.00 PKD
ROOT
HETATM    1  C   UNL     1     -12.195  12.358  70.727  1.00  0.00    -0.336 C  
HETATM    2  C   UNL     1     -12.164  11.333  69.592  1.00  0.00    -0.271 C  
HETATM    3  C   UNL     1     -10.794  11.361  68.909  1.00  0.00    -0.259 C  
ENDROOT
BRANCH   2   4
HETATM    4  N   UNL     1     -12.411   9.959  70.052  1.00  0.00    -0.481 NA 
HETATM    5  H   UNL     1     -12.063   9.148  69.540  1.00  0.00     0.000 HD 
BRANCH   4   6
HETATM    6  C   UNL     1     -13.189   9.822  71.299  1.00  0.00    -0.373 C  
HETATM    7  C   UNL     1     -14.350   8.837  71.123  1.00  0.00    -0.099 C  
BRANCH   6   8
HETATM    8  C   UNL     1     -12.286   9.329  72.460  1.00  0.00    -0.059 C  
BRANCH   8   9
HETATM    9  C   UNL     1     -11.127   8.454  72.029  1.00  0.00    -0.397 A  
HETATM   10  C   UNL     1     -11.346   7.152  71.561  1.00  0.00    -0.285 A  
HETATM   11  C   UNL     1     -10.273   6.357  71.147  1.00  0.00    -0.224 A  
HETATM   12  C   UNL     1      -8.974   6.861  71.206  1.00  0.00    -0.142 A  
HETATM   13  C   UNL     1      -8.741   8.154  71.677  1.00  0.00    -0.188 A  
HETATM   14  I   UNL     1      -7.378   5.688  70.581  1.00  0.00    -0.089 I  
HETATM   15  C   UNL     1      -9.815   8.946  72.083  1.00  0.00    -0.252 A  
ENDBRANCH   8   9
ENDBRANCH   6   8
ENDBRANCH   4   6
ENDBRANCH   2   4
TORSDOF 4
ENDMDL
MODEL      178
REMARK 921   NORMALIZED FREE ENERGY PREDICTED BY IDOCK:   -2.51 KCAL/MOL
REMARK 922        TOTAL FREE ENERGY PREDICTED BY IDOCK:   -3.86 KCAL/MOL
REMARK 923 INTER-LIGAND FREE ENERGY PREDICTED BY IDOCK:   -3.55 KCAL/MOL
REMARK 924 INTRA-LIGAND FREE ENERGY PREDICTED BY IDOCK:   -0.31 KCAL/MOL
REMARK 927      BINDING AFFINITY PREDICTED BY RF-SCORE:    0.00 PKD
ROOT
HETATM    1  C   UNL     1      -5.773  19.045  70.106  1.00  0.00    -0.267 C  
HETATM    2  C   UNL     1      -6.932  18.888  69.119  1.00  0.00    -0.281 C  
HETATM    3  C   UNL     1      -7.115  20.187  68.329  1.00  0.00    -0.304 C  
ENDROOT
BRANCH   2   4
HETATM    4  N   UNL     1      -6.720  17.800  68.153  1.00  0.00    -0.199 NA 
HETATM    5  H   UNL     1      -6.670  16.823  68.444  1.00  0.00     0.000 HD 
BRANCH   4   6
HETATM    6  C   UNL     1      -6.585  18.204  66.740  1.00  0.00    -0.185 C  
HETATM    7  C   UNL     1      -5.211  17.816  66.180  1.00  0.00    -0.225 C  
BRANCH   6   8
HETATM    8  C   UNL     1      -7.686  17.540  65.871  1.00  0.00    -0.119 C  
BRANCH   8   9
HETATM    9  C   UNL     1      -8.671  16.689  66.645  1.00  0.00    -0.280 A  
HETATM   10  C   UNL     1      -9.715  17.278  67.369  1.00  0.00    -0.258 A  
HETATM   11  C   UNL     1     -10.631  16.485  68.066  1.00  0.00    -0.328 A  
HETATM   12  C   UNL     1     -10.502  15.096  68.045  1.00  0.00    -0.247 A  
HETATM   13  C   UNL     1      -9.462  14.496  67.334  1.00  0.00    -0.202 A  
HETATM   14  I   UNL     1     -11.868  13.912  69.069  1.00  0.00    -0.349 I  
HETATM   15  C   UNL     1      -8.553  15.291  66.635  1.00  0.00    -0.305 A  
ENDBRANCH   8   9
ENDBRANCH   6   8
ENDBRANCH   4   6
ENDBRANCH   2   4
TORSDOF 4
ENDMDL
MODEL      179
REMARK 921   NORMALIZED FREE ENERGY PREDICTED BY IDOCK:   -2.50 KCAL/MOL
REMARK 922        TOTAL FREE ENERGY PREDICTED BY IDOCK:   -3.85 KCAL/MOL
REMARK 923 INTER-LIGAND FREE ENERGY PREDICTED BY IDOCK:   -3.55 KCAL/MOL
REMARK 924 INTRA-LIGAND FREE ENERGY PREDICTED BY IDOCK:   -0.30 KCAL/MOL
REMARK 927      BINDING AFFINITY PREDICTED BY RF-SCORE:    0.00 PKD
ROOT
HETATM    1  C   UNL     1      -9.393   4.082  66.330  1.00  0.00    -0.180 C  
HETATM    2  C   UNL     1      -9.954   5.460  66.690  1.00  0.00    -0.195 C  
HETATM    3  C   UNL     1      -9.427   5.889  68.062  1.00  0.00    -0.111 C  
ENDROOT
BRANCH   2   4
HETATM    4  N   UNL     1      -9.585   6.501  65.720  1.00  0.00    -0.368 NA 
HETATM    5  H   UNL     1     -10.287   7.068  65.244  1.00  0.00     0.000 HD 
BRANCH   4   6
HETATM    6  C   UNL     1      -8.140   6.678  65.475  1.00  0.00    -0.124 C  
HETATM    7  C   UNL     1      -7.771   6.305  64.035  1.00  0.00    -0.104 C  
BRANCH   6   8
HETATM    8  C   UNL     1      -7.714   8.147  65.737  1.00  0.00    -0.092 C  
BRANCH   8   9
HETATM    9  C   UNL     1      -8.704   9.186  65.253  1.00  0.00    -0.219 A  
HETATM   10  C   UNL     1      -8.748   9.562  63.904  1.00  0.00    -0.238 A  
HETATM   11  C   UNL     1      -9.677  10.508  63.462  1.00  0.00    -0.374 A  
HETATM   12  C   UNL     1     -10.564  11.087  64.370  1.00  0.00    -0.325 A  
HETATM   13  C   UNL     1     -10.525  10.727  65.718  1.00  0.00    -0.256 A  
HETATM   14  I   UNL     1     -11.953  12.484  63.715  1.00  0.00    -0.681 I  
HETATM   15  C   UNL     1      -9.600   9.778  66.155  1.00  0.00    -0.287 A  
ENDBRANCH   8   9
ENDBRANCH   6   8
ENDBRANCH   4   6
ENDBRANCH   2   4
TORSDOF 4
ENDMDL
MODEL      180
REMARK 921   NORMALIZED FREE ENERGY PREDICTED BY IDOCK:   -2.48 KCAL/MOL
REMARK 922        TOTAL FREE ENERGY PREDICTED BY IDOCK:   -3.83 KCAL/MOL
REMARK 923 INTER-LIGAND FREE ENERGY PREDICTED BY IDOCK:   -3.36 KCAL/MOL
REMARK 924 INTRA-LIGAND FREE ENERGY PREDICTED BY IDOCK:   -0.47 KCAL/MOL
REMARK 927      BINDING AFFINITY PREDICTED BY RF-SCORE:    0.00 PKD
ROOT
HETATM    1  C   UNL     1     -10.477   4.778  66.099  1.00  0.00    -0.332 C  
HETATM    2  C   UNL     1      -9.649   5.895  66.740  1.00  0.00    -0.148 C  
HETATM    3  C   UNL     1      -8.195   5.794  66.270  1.00  0.00    -0.109 C  
ENDROOT
BRANCH   2   4
HETATM    4  N   UNL     1     -10.140   7.239  66.401  1.00  0.00    -0.465 NA 
HETATM    5  H   UNL     1     -10.315   7.522  65.437  1.00  0.00     0.000 HD 
BRANCH   4   6
HETATM    6  C   UNL     1     -10.365   8.153  67.538  1.00  0.00    -0.261 C  
HETATM    7  C   UNL     1     -10.560   7.376  68.845  1.00  0.00    -0.191 C  
BRANCH   6   8
HETATM    8  C   UNL     1      -9.169   9.127  67.707  1.00  0.00    -0.145 C  
BRANCH   8   9
HETATM    9  C   UNL     1      -9.519  10.590  67.535  1.00  0.00    -0.166 A  
HETATM   10  C   UNL     1      -8.534  11.531  67.211  1.00  0.00    -0.152 A  
HETATM   11  C   UNL     1      -8.868  12.877  67.036  1.00  0.00    -0.208 A  
HETATM   12  C   UNL     1     -10.193  13.288  67.189  1.00  0.00    -0.246 A  
HETATM   13  C   UNL     1     -11.183  12.362  67.519  1.00  0.00    -0.348 A  
HETATM   14  I   UNL     1     -10.696  15.285  66.918  1.00  0.00    -0.280 I  
HETATM   15  C   UNL     1     -10.847  11.018  67.687  1.00  0.00    -0.306 A  
ENDBRANCH   8   9
ENDBRANCH   6   8
ENDBRANCH   4   6
ENDBRANCH   2   4
TORSDOF 4
ENDMDL
MODEL      181
REMARK 921   NORMALIZED FREE ENERGY PREDICTED BY IDOCK:   -2.48 KCAL/MOL
REMARK 922        TOTAL FREE ENERGY PREDICTED BY IDOCK:   -3.82 KCAL/MOL
REMARK 923 INTER-LIGAND FREE ENERGY PREDICTED BY IDOCK:   -3.23 KCAL/MOL
REMARK 924 INTRA-LIGAND FREE ENERGY PREDICTED BY IDOCK:   -0.59 KCAL/MOL
REMARK 927      BINDING AFFINITY PREDICTED BY RF-SCORE:    0.00 PKD
ROOT
HETATM    1  C   UNL     1      -8.357   4.514  67.145  1.00  0.00    -0.105 C  
HETATM    2  C   UNL     1      -8.027   5.939  67.595  1.00  0.00    -0.102 C  
HETATM    3  C   UNL     1      -8.282   6.915  66.442  1.00  0.00    -0.117 C  
ENDROOT
BRANCH   2   4
HETATM    4  N   UNL     1      -8.831   6.379  68.744  1.00  0.00    -0.125 NA 
HETATM    5  H   UNL     1      -8.559   6.169  69.705  1.00  0.00     0.000 HD 
BRANCH   4   6
HETATM    6  C   UNL     1     -10.052   7.145  68.427  1.00  0.00    -0.168 C  
HETATM    7  C   UNL     1     -11.298   6.254  68.493  1.00  0.00    -0.149 C  
BRANCH   6   8
HETATM    8  C   UNL     1     -10.231   8.329  69.413  1.00  0.00    -0.204 C  
BRANCH   8   9
HETATM    9  C   UNL     1     -10.532   9.658  68.753  1.00  0.00    -0.238 A  
HETATM   10  C   UNL     1     -10.439   9.807  67.363  1.00  0.00    -0.319 A  
HETATM   11  C   UNL     1     -10.736  11.032  66.759  1.00  0.00    -0.319 A  
HETATM   12  C   UNL     1     -11.125  12.117  67.546  1.00  0.00    -0.275 A  
HETATM   13  C   UNL     1     -11.214  11.984  68.932  1.00  0.00    -0.315 A  
HETATM   14  I   UNL     1     -11.579  13.936  66.652  1.00  0.00    -0.475 I  
HETATM   15  C   UNL     1     -10.922  10.758  69.531  1.00  0.00    -0.317 A  
ENDBRANCH   8   9
ENDBRANCH   6   8
ENDBRANCH   4   6
ENDBRANCH   2   4
TORSDOF 4
ENDMDL
MODEL      182
REMARK 921   NORMALIZED FREE ENERGY PREDICTED BY IDOCK:   -2.47 KCAL/MOL
REMARK 922        TOTAL FREE ENERGY PREDICTED BY IDOCK:   -3.81 KCAL/MOL
REMARK 923 INTER-LIGAND FREE ENERGY PREDICTED BY IDOCK:   -5.16 KCAL/MOL
REMARK 924 INTRA-LIGAND FREE ENERGY PREDICTED BY IDOCK:    1.35 KCAL/MOL
REMARK 927      BINDING AFFINITY PREDICTED BY RF-SCORE:    0.00 PKD
ROOT
HETATM    1  C   UNL     1     -11.672  16.359  71.860  1.00  0.00    -0.419 C  
HETATM    2  C   UNL     1     -11.715  15.158  72.807  1.00  0.00    -0.337 C  
HETATM    3  C   UNL     1     -12.458  15.539  74.090  1.00  0.00    -0.805 C  
ENDROOT
BRANCH   2   4
HETATM    4  N   UNL     1     -12.392  13.991  72.224  1.00  0.00    -0.063 NA 
HETATM    5  H   UNL     1     -12.601  13.157  72.774  1.00  0.00     0.000 HD 
BRANCH   4   6
HETATM    6  C   UNL     1     -12.753  14.096  70.796  1.00  0.00    -0.344 C  
HETATM    7  C   UNL     1     -13.756  15.231  70.559  1.00  0.00     0.066 C  
BRANCH   6   8
HETATM    8  C   UNL     1     -11.494  14.351  69.927  1.00  0.00    -0.314 C  
BRANCH   8   9
HETATM    9  C   UNL     1     -11.615  13.886  68.491  1.00  0.00    -0.367 A  
HETATM   10  C   UNL     1     -11.611  12.521  68.176  1.00  0.00    -0.390 A  
HETATM   11  C   UNL     1     -11.742  12.099  66.850  1.00  0.00    -0.374 A  
HETATM   12  C   UNL     1     -11.871  13.044  65.831  1.00  0.00    -0.416 A  
HETATM   13  C   UNL     1     -11.868  14.406  66.131  1.00  0.00    -0.391 A  
HETATM   14  I   UNL     1     -12.077  12.421  63.860  1.00  0.00    -0.634 I  
HETATM   15  C   UNL     1     -11.744  14.824  67.456  1.00  0.00    -0.370 A  
ENDBRANCH   8   9
ENDBRANCH   6   8
ENDBRANCH   4   6
ENDBRANCH   2   4
TORSDOF 4
ENDMDL
MODEL      183
REMARK 921   NORMALIZED FREE ENERGY PREDICTED BY IDOCK:   -2.46 KCAL/MOL
REMARK 922        TOTAL FREE ENERGY PREDICTED BY IDOCK:   -3.80 KCAL/MOL
REMARK 923 INTER-LIGAND FREE ENERGY PREDICTED BY IDOCK:   -3.13 KCAL/MOL
REMARK 924 INTRA-LIGAND FREE ENERGY PREDICTED BY IDOCK:   -0.66 KCAL/MOL
REMARK 927      BINDING AFFINITY PREDICTED BY RF-SCORE:    0.00 PKD
ROOT
HETATM    1  C   UNL     1      -7.126   7.543  66.163  1.00  0.00    -0.070 C  
HETATM    2  C   UNL     1      -8.091   7.688  67.342  1.00  0.00    -0.119 C  
HETATM    3  C   UNL     1      -9.445   7.072  66.977  1.00  0.00    -0.184 C  
ENDROOT
BRANCH   2   4
HETATM    4  N   UNL     1      -7.609   7.026  68.563  1.00  0.00    -0.112 NA 
HETATM    5  H   UNL     1      -6.927   7.466  69.181  1.00  0.00     0.000 HD 
BRANCH   4   6
HETATM    6  C   UNL     1      -8.170   5.690  68.842  1.00  0.00    -0.100 C  
HETATM    7  C   UNL     1      -7.168   4.583  68.495  1.00  0.00    -0.060 C  
BRANCH   6   8
HETATM    8  C   UNL     1      -8.562   5.560  70.338  1.00  0.00    -0.131 C  
BRANCH   8   9
HETATM    9  C   UNL     1      -9.755   6.396  70.751  1.00  0.00    -0.197 A  
HETATM   10  C   UNL     1     -11.049   6.057  70.334  1.00  0.00    -0.399 A  
HETATM   11  C   UNL     1     -12.147   6.823  70.735  1.00  0.00    -0.402 A  
HETATM   12  C   UNL     1     -11.954   7.937  71.552  1.00  0.00    -0.301 A  
HETATM   13  C   UNL     1     -10.669   8.290  71.968  1.00  0.00    -0.366 A  
HETATM   14  I   UNL     1     -13.584   9.072  72.160  1.00  0.00    -0.521 I  
HETATM   15  C   UNL     1      -9.576   7.520  71.571  1.00  0.00    -0.171 A  
ENDBRANCH   8   9
ENDBRANCH   6   8
ENDBRANCH   4   6
ENDBRANCH   2   4
TORSDOF 4
ENDMDL
MODEL      184
REMARK 921   NORMALIZED FREE ENERGY PREDICTED BY IDOCK:   -2.46 KCAL/MOL
REMARK 922        TOTAL FREE ENERGY PREDICTED BY IDOCK:   -3.80 KCAL/MOL
REMARK 923 INTER-LIGAND FREE ENERGY PREDICTED BY IDOCK:   -3.23 KCAL/MOL
REMARK 924 INTRA-LIGAND FREE ENERGY PREDICTED BY IDOCK:   -0.56 KCAL/MOL
REMARK 927      BINDING AFFINITY PREDICTED BY RF-SCORE:    0.00 PKD
ROOT
HETATM    1  C   UNL     1      -7.512  11.985  68.429  1.00  0.00    -0.110 C  
HETATM    2  C   UNL     1      -8.080  10.564  68.481  1.00  0.00    -0.121 C  
HETATM    3  C   UNL     1      -7.018   9.604  69.025  1.00  0.00    -0.058 C  
ENDROOT
BRANCH   2   4
HETATM    4  N   UNL     1      -9.270  10.452  69.336  1.00  0.00    -0.324 NA 
HETATM    5  H   UNL     1      -9.261  10.741  70.314  1.00  0.00     0.000 HD 
BRANCH   4   6
HETATM    6  C   UNL     1     -10.479   9.898  68.696  1.00  0.00    -0.206 C  
HETATM    7  C   UNL     1     -11.675  10.843  68.857  1.00  0.00    -0.376 C  
BRANCH   6   8
HETATM    8  C   UNL     1     -10.237   9.649  67.184  1.00  0.00    -0.305 C  
BRANCH   8   9
HETATM    9  C   UNL     1      -9.973   8.203  66.818  1.00  0.00    -0.349 A  
HETATM   10  C   UNL     1     -10.847   7.188  67.229  1.00  0.00    -0.382 A  
HETATM   11  C   UNL     1     -10.606   5.858  66.872  1.00  0.00    -0.384 A  
HETATM   12  C   UNL     1      -9.486   5.538  66.105  1.00  0.00    -0.151 A  
HETATM   13  C   UNL     1      -8.604   6.538  65.696  1.00  0.00    -0.132 A  
HETATM   14  I   UNL     1      -9.131   3.564  65.562  1.00  0.00    -0.146 I  
HETATM   15  C   UNL     1      -8.849   7.865  66.049  1.00  0.00    -0.191 A  
ENDBRANCH   8   9
ENDBRANCH   6   8
ENDBRANCH   4   6
ENDBRANCH   2   4
TORSDOF 4
ENDMDL
MODEL      185
REMARK 921   NORMALIZED FREE ENERGY PREDICTED BY IDOCK:   -2.46 KCAL/MOL
REMARK 922        TOTAL FREE ENERGY PREDICTED BY IDOCK:   -3.80 KCAL/MOL
REMARK 923 INTER-LIGAND FREE ENERGY PREDICTED BY IDOCK:   -3.59 KCAL/MOL
REMARK 924 INTRA-LIGAND FREE ENERGY PREDICTED BY IDOCK:   -0.21 KCAL/MOL
REMARK 927      BINDING AFFINITY PREDICTED BY RF-SCORE:    0.00 PKD
ROOT
HETATM    1  C   UNL     1      -8.569   2.491  73.655  1.00  0.00    -0.071 C  
HETATM    2  C   UNL     1      -9.848   2.583  72.819  1.00  0.00    -0.127 C  
HETATM    3  C   UNL     1     -11.055   2.198  73.679  1.00  0.00    -0.297 C  
ENDROOT
BRANCH   2   4
HETATM    4  N   UNL     1     -10.087   3.930  72.282  1.00  0.00    -0.169 NA 
HETATM    5  H   UNL     1      -9.910   4.161  71.304  1.00  0.00     0.000 HD 
BRANCH   4   6
HETATM    6  C   UNL     1     -10.600   4.929  73.241  1.00  0.00    -0.232 C  
HETATM    7  C   UNL     1      -9.541   5.992  73.554  1.00  0.00    -0.142 C  
BRANCH   6   8
HETATM    8  C   UNL     1     -11.865   5.631  72.680  1.00  0.00    -0.192 C  
BRANCH   8   9
HETATM    9  C   UNL     1     -11.581   6.819  71.785  1.00  0.00    -0.336 A  
HETATM   10  C   UNL     1     -11.835   8.125  72.222  1.00  0.00    -0.441 A  
HETATM   11  C   UNL     1     -11.553   9.217  71.397  1.00  0.00    -0.437 A  
HETATM   12  C   UNL     1     -11.019   9.005  70.125  1.00  0.00    -0.233 A  
HETATM   13  C   UNL     1     -10.769   7.709  69.674  1.00  0.00    -0.230 A  
HETATM   14  I   UNL     1     -10.588  10.626  68.899  1.00  0.00    -0.322 I  
HETATM   15  C   UNL     1     -11.046   6.622  70.502  1.00  0.00    -0.359 A  
ENDBRANCH   8   9
ENDBRANCH   6   8
ENDBRANCH   4   6
ENDBRANCH   2   4
TORSDOF 4
ENDMDL
MODEL      186
REMARK 921   NORMALIZED FREE ENERGY PREDICTED BY IDOCK:   -2.46 KCAL/MOL
REMARK 922        TOTAL FREE ENERGY PREDICTED BY IDOCK:   -3.79 KCAL/MOL
REMARK 923 INTER-LIGAND FREE ENERGY PREDICTED BY IDOCK:   -3.33 KCAL/MOL
REMARK 924 INTRA-LIGAND FREE ENERGY PREDICTED BY IDOCK:   -0.46 KCAL/MOL
REMARK 927      BINDING AFFINITY PREDICTED BY RF-SCORE:    0.00 PKD
ROOT
HETATM    1  C   UNL     1      -8.778   1.824  64.653  1.00  0.00    -0.100 C  
HETATM    2  C   UNL     1      -9.324   3.240  64.853  1.00  0.00    -0.149 C  
HETATM    3  C   UNL     1     -10.545   3.453  63.953  1.00  0.00    -0.244 C  
ENDROOT
BRANCH   2   4
HETATM    4  N   UNL     1      -9.733   3.507  66.239  1.00  0.00    -0.402 NA 
HETATM    5  H   UNL     1     -10.392   2.904  66.733  1.00  0.00     0.000 HD 
BRANCH   4   6
HETATM    6  C   UNL     1      -9.135   4.697  66.875  1.00  0.00    -0.120 C  
HETATM    7  C   UNL     1      -7.748   4.998  66.296  1.00  0.00    -0.092 C  
BRANCH   6   8
HETATM    8  C   UNL     1     -10.042   5.940  66.676  1.00  0.00    -0.229 C  
BRANCH   8   9
HETATM    9  C   UNL     1     -10.464   6.623  67.960  1.00  0.00    -0.261 A  
HETATM   10  C   UNL     1     -10.352   8.012  68.105  1.00  0.00    -0.250 A  
HETATM   11  C   UNL     1     -10.761   8.637  69.287  1.00  0.00    -0.151 A  
HETATM   12  C   UNL     1     -11.278   7.872  70.332  1.00  0.00    -0.234 A  
HETATM   13  C   UNL     1     -11.387   6.487  70.204  1.00  0.00    -0.463 A  
HETATM   14  I   UNL     1     -11.898   8.798  72.086  1.00  0.00    -0.275 I  
HETATM   15  C   UNL     1     -10.984   5.867  69.021  1.00  0.00    -0.359 A  
ENDBRANCH   8   9
ENDBRANCH   6   8
ENDBRANCH   4   6
ENDBRANCH   2   4
TORSDOF 4
ENDMDL
MODEL      187
REMARK 921   NORMALIZED FREE ENERGY PREDICTED BY IDOCK:   -2.44 KCAL/MOL
REMARK 922        TOTAL FREE ENERGY PREDICTED BY IDOCK:   -3.77 KCAL/MOL
REMARK 923 INTER-LIGAND FREE ENERGY PREDICTED BY IDOCK:   -3.16 KCAL/MOL
REMARK 924 INTRA-LIGAND FREE ENERGY PREDICTED BY IDOCK:   -0.61 KCAL/MOL
REMARK 927      BINDING AFFINITY PREDICTED BY RF-SCORE:    0.00 PKD
ROOT
HETATM    1  C   UNL     1     -10.805   6.480  68.993  1.00  0.00    -0.357 C  
HETATM    2  C   UNL     1     -11.074   5.912  70.389  1.00  0.00    -0.283 C  
HETATM    3  C   UNL     1      -9.773   5.365  70.983  1.00  0.00    -0.235 C  
ENDROOT
BRANCH   2   4
HETATM    4  N   UNL     1     -11.610   6.913  71.322  1.00  0.00    -0.291 NA 
HETATM    5  H   UNL     1     -12.114   6.647  72.168  1.00  0.00     0.000 HD 
BRANCH   4   6
HETATM    6  C   UNL     1     -11.376   8.326  70.963  1.00  0.00    -0.269 C  
HETATM    7  C   UNL     1     -12.543   9.213  71.413  1.00  0.00    -0.390 C  
BRANCH   6   8
HETATM    8  C   UNL     1     -10.069   8.849  71.614  1.00  0.00    -0.411 C  
BRANCH   8   9
HETATM    9  C   UNL     1      -9.129   9.555  70.658  1.00  0.00    -0.236 A  
HETATM   10  C   UNL     1      -9.612  10.157  69.489  1.00  0.00    -0.243 A  
HETATM   11  C   UNL     1      -8.742  10.822  68.622  1.00  0.00    -0.152 A  
HETATM   12  C   UNL     1      -7.380  10.883  68.918  1.00  0.00    -0.111 A  
HETATM   13  C   UNL     1      -6.884  10.280  70.075  1.00  0.00    -0.146 A  
HETATM   14  I   UNL     1      -6.084  11.880  67.637  1.00  0.00    -0.129 I  
HETATM   15  C   UNL     1      -7.757   9.622  70.942  1.00  0.00     0.093 A  
ENDBRANCH   8   9
ENDBRANCH   6   8
ENDBRANCH   4   6
ENDBRANCH   2   4
TORSDOF 4
ENDMDL
MODEL      188
REMARK 921   NORMALIZED FREE ENERGY PREDICTED BY IDOCK:   -2.43 KCAL/MOL
REMARK 922        TOTAL FREE ENERGY PREDICTED BY IDOCK:   -3.77 KCAL/MOL
REMARK 923 INTER-LIGAND FREE ENERGY PREDICTED BY IDOCK:   -3.35 KCAL/MOL
REMARK 924 INTRA-LIGAND FREE ENERGY PREDICTED BY IDOCK:   -0.42 KCAL/MOL
REMARK 927      BINDING AFFINITY PREDICTED BY RF-SCORE:    0.00 PKD
ROOT
HETATM    1  C   UNL     1     -10.081   4.568  66.092  1.00  0.00    -0.282 C  
HETATM    2  C   UNL     1      -8.730   5.273  65.946  1.00  0.00    -0.138 C  
HETATM    3  C   UNL     1      -7.882   4.551  64.896  1.00  0.00    -0.086 C  
ENDROOT
BRANCH   2   4
HETATM    4  N   UNL     1      -8.858   6.678  65.533  1.00  0.00    -0.350 NA 
HETATM    5  H   UNL     1      -9.248   6.941  64.628  1.00  0.00     0.000 HD 
BRANCH   4   6
HETATM    6  C   UNL     1      -8.389   7.686  66.505  1.00  0.00    -0.129 C  
HETATM    7  C   UNL     1      -6.897   7.984  66.320  1.00  0.00    -0.058 C  
BRANCH   6   8
HETATM    8  C   UNL     1      -9.187   9.008  66.354  1.00  0.00    -0.239 C  
BRANCH   8   9
HETATM    9  C   UNL     1     -10.049   9.363  67.548  1.00  0.00    -0.268 A  
HETATM   10  C   UNL     1     -10.098   8.528  68.672  1.00  0.00    -0.207 A  
HETATM   11  C   UNL     1     -10.881   8.872  69.777  1.00  0.00    -0.207 A  
HETATM   12  C   UNL     1     -11.626  10.052  69.759  1.00  0.00    -0.134 A  
HETATM   13  C   UNL     1     -11.593  10.887  68.642  1.00  0.00    -0.373 A  
HETATM   14  I   UNL     1     -12.784  10.572  71.403  1.00  0.00    -0.519 I  
HETATM   15  C   UNL     1     -10.805  10.544  67.543  1.00  0.00    -0.357 A  
ENDBRANCH   8   9
ENDBRANCH   6   8
ENDBRANCH   4   6
ENDBRANCH   2   4
TORSDOF 4
ENDMDL
MODEL      189
REMARK 921   NORMALIZED FREE ENERGY PREDICTED BY IDOCK:   -2.41 KCAL/MOL
REMARK 922        TOTAL FREE ENERGY PREDICTED BY IDOCK:   -3.74 KCAL/MOL
REMARK 923 INTER-LIGAND FREE ENERGY PREDICTED BY IDOCK:   -3.05 KCAL/MOL
REMARK 924 INTRA-LIGAND FREE ENERGY PREDICTED BY IDOCK:   -0.70 KCAL/MOL
REMARK 927      BINDING AFFINITY PREDICTED BY RF-SCORE:    0.00 PKD
ROOT
HETATM    1  C   UNL     1      -8.989   3.129  70.542  1.00  0.00    -0.169 C  
HETATM    2  C   UNL     1      -8.001   4.071  69.851  1.00  0.00    -0.055 C  
HETATM    3  C   UNL     1      -8.759   5.026  68.925  1.00  0.00    -0.100 C  
ENDROOT
BRANCH   2   4
HETATM    4  N   UNL     1      -7.224   4.883  70.798  1.00  0.00    -0.058 NA 
HETATM    5  H   UNL     1      -6.234   5.082  70.652  1.00  0.00     0.000 HD 
BRANCH   4   6
HETATM    6  C   UNL     1      -7.959   5.394  71.971  1.00  0.00    -0.113 C  
HETATM    7  C   UNL     1      -7.179   5.145  73.267  1.00  0.00    -0.086 C  
BRANCH   6   8
HETATM    8  C   UNL     1      -8.228   6.915  71.833  1.00  0.00    -0.104 C  
BRANCH   8   9
HETATM    9  C   UNL     1      -9.693   7.299  71.837  1.00  0.00    -0.171 A  
HETATM   10  C   UNL     1     -10.690   6.330  71.658  1.00  0.00    -0.284 A  
HETATM   11  C   UNL     1     -12.040   6.689  71.682  1.00  0.00    -0.404 A  
HETATM   12  C   UNL     1     -12.400   8.023  71.879  1.00  0.00    -0.323 A  
HETATM   13  C   UNL     1     -11.417   8.999  72.050  1.00  0.00    -0.408 A  
HETATM   14  I   UNL     1     -14.406   8.559  71.926  1.00  0.00    -0.370 I  
HETATM   15  C   UNL     1     -10.070   8.636  72.032  1.00  0.00    -0.401 A  
ENDBRANCH   8   9
ENDBRANCH   6   8
ENDBRANCH   4   6
ENDBRANCH   2   4
TORSDOF 4
ENDMDL
MODEL      190
REMARK 921   NORMALIZED FREE ENERGY PREDICTED BY IDOCK:   -2.41 KCAL/MOL
REMARK 922        TOTAL FREE ENERGY PREDICTED BY IDOCK:   -3.74 KCAL/MOL
REMARK 923 INTER-LIGAND FREE ENERGY PREDICTED BY IDOCK:   -3.36 KCAL/MOL
REMARK 924 INTRA-LIGAND FREE ENERGY PREDICTED BY IDOCK:   -0.38 KCAL/MOL
REMARK 927      BINDING AFFINITY PREDICTED BY RF-SCORE:    0.00 PKD
ROOT
HETATM    1  C   UNL     1      -9.790  11.297  62.750  1.00  0.00    -0.241 C  
HETATM    2  C   UNL     1     -10.215  11.381  64.218  1.00  0.00    -0.315 C  
HETATM    3  C   UNL     1      -9.711  10.147  64.972  1.00  0.00    -0.384 C  
ENDROOT
BRANCH   2   4
HETATM    4  N   UNL     1      -9.688  12.572  64.900  1.00  0.00    -0.484 NA 
HETATM    5  H   UNL     1      -8.710  12.644  65.182  1.00  0.00     0.000 HD 
BRANCH   4   6
HETATM    6  C   UNL     1     -10.656  13.657  65.152  1.00  0.00    -0.361 C  
HETATM    7  C   UNL     1     -12.078  13.234  64.765  1.00  0.00    -0.456 C  
BRANCH   6   8
HETATM    8  C   UNL     1     -10.646  14.066  66.649  1.00  0.00    -0.274 C  
BRANCH   8   9
HETATM    9  C   UNL     1      -9.446  13.570  67.429  1.00  0.00    -0.225 A  
HETATM   10  C   UNL     1      -8.229  14.262  67.392  1.00  0.00    -0.217 A  
HETATM   11  C   UNL     1      -7.132  13.807  68.129  1.00  0.00    -0.118 A  
HETATM   12  C   UNL     1      -7.248  12.652  68.904  1.00  0.00    -0.045 A  
HETATM   13  C   UNL     1      -8.452  11.949  68.943  1.00  0.00     0.133 A  
HETATM   14  I   UNL     1      -5.623  11.979  70.010  1.00  0.00    -0.161 I  
HETATM   15  C   UNL     1      -9.547  12.409  68.210  1.00  0.00    -0.211 A  
ENDBRANCH   8   9
ENDBRANCH   6   8
ENDBRANCH   4   6
ENDBRANCH   2   4
TORSDOF 4
ENDMDL
MODEL      191
REMARK 921   NORMALIZED FREE ENERGY PREDICTED BY IDOCK:   -2.41 KCAL/MOL
REMARK 922        TOTAL FREE ENERGY PREDICTED BY IDOCK:   -3.74 KCAL/MOL
REMARK 923 INTER-LIGAND FREE ENERGY PREDICTED BY IDOCK:   -3.04 KCAL/MOL
REMARK 924 INTRA-LIGAND FREE ENERGY PREDICTED BY IDOCK:   -0.70 KCAL/MOL
REMARK 927      BINDING AFFINITY PREDICTED BY RF-SCORE:    0.00 PKD
ROOT
HETATM    1  C   UNL     1     -10.311   3.699  72.106  1.00  0.00    -0.107 C  
HETATM    2  C   UNL     1      -9.259   4.434  71.272  1.00  0.00    -0.137 C  
HETATM    3  C   UNL     1      -9.952   5.375  70.282  1.00  0.00    -0.298 C  
ENDROOT
BRANCH   2   4
HETATM    4  N   UNL     1      -8.338   5.237  72.088  1.00  0.00    -0.124 NA 
HETATM    5  H   UNL     1      -7.588   5.789  71.671  1.00  0.00     0.000 HD 
BRANCH   4   6
HETATM    6  C   UNL     1      -8.561   5.199  73.547  1.00  0.00    -0.112 C  
HETATM    7  C   UNL     1      -7.318   4.692  74.286  1.00  0.00    -0.077 C  
BRANCH   6   8
HETATM    8  C   UNL     1      -8.923   6.609  74.085  1.00  0.00    -0.194 C  
BRANCH   8   9
HETATM    9  C   UNL     1      -9.676   7.483  73.104  1.00  0.00    -0.301 A  
HETATM   10  C   UNL     1      -9.002   8.426  72.317  1.00  0.00    -0.303 A  
HETATM   11  C   UNL     1      -9.702   9.216  71.401  1.00  0.00    -0.338 A  
HETATM   12  C   UNL     1     -11.083   9.069  71.272  1.00  0.00    -0.312 A  
HETATM   13  C   UNL     1     -11.768   8.139  72.055  1.00  0.00    -0.389 A  
HETATM   14  I   UNL     1     -12.126  10.233  69.903  1.00  0.00     0.043 I  
HETATM   15  C   UNL     1     -11.066   7.348  72.964  1.00  0.00    -0.390 A  
ENDBRANCH   8   9
ENDBRANCH   6   8
ENDBRANCH   4   6
ENDBRANCH   2   4
TORSDOF 4
ENDMDL
MODEL      192
REMARK 921   NORMALIZED FREE ENERGY PREDICTED BY IDOCK:   -2.40 KCAL/MOL
REMARK 922        TOTAL FREE ENERGY PREDICTED BY IDOCK:   -3.72 KCAL/MOL
REMARK 923 INTER-LIGAND FREE ENERGY PREDICTED BY IDOCK:   -3.18 KCAL/MOL
REMARK 924 INTRA-LIGAND FREE ENERGY PREDICTED BY IDOCK:   -0.54 KCAL/MOL
REMARK 927      BINDING AFFINITY PREDICTED BY RF-SCORE:    0.00 PKD
ROOT
HETATM    1  C   UNL     1     -11.905  15.651  69.190  1.00  0.00    -0.378 C  
HETATM    2  C   UNL     1     -11.196  14.858  68.089  1.00  0.00    -0.299 C  
HETATM    3  C   UNL     1     -12.231  14.118  67.238  1.00  0.00    -0.314 C  
ENDROOT
BRANCH   2   4
HETATM    4  N   UNL     1     -10.400  15.708  67.192  1.00  0.00    -0.279 NA 
HETATM    5  H   UNL     1     -10.700  16.648  66.932  1.00  0.00     0.000 HD 
BRANCH   4   6
HETATM    6  C   UNL     1      -9.142  15.123  66.690  1.00  0.00    -0.280 C  
HETATM    7  C   UNL     1      -8.117  16.212  66.354  1.00  0.00    -0.305 C  
BRANCH   6   8
HETATM    8  C   UNL     1      -8.525  14.161  67.740  1.00  0.00    -0.178 C  
BRANCH   8   9
HETATM    9  C   UNL     1      -8.596  12.695  67.369  1.00  0.00    -0.189 A  
HETATM   10  C   UNL     1      -9.271  12.278  66.214  1.00  0.00    -0.171 A  
HETATM   11  C   UNL     1      -9.316  10.924  65.869  1.00  0.00    -0.226 A  
HETATM   12  C   UNL     1      -8.690   9.980  66.683  1.00  0.00    -0.129 A  
HETATM   13  C   UNL     1      -8.022  10.381  67.840  1.00  0.00    -0.102 A  
HETATM   14  I   UNL     1      -8.746   7.968  66.167  1.00  0.00    -0.183 I  
HETATM   15  C   UNL     1      -7.974  11.733  68.179  1.00  0.00    -0.146 A  
ENDBRANCH   8   9
ENDBRANCH   6   8
ENDBRANCH   4   6
ENDBRANCH   2   4
TORSDOF 4
ENDMDL
MODEL      193
REMARK 921   NORMALIZED FREE ENERGY PREDICTED BY IDOCK:   -2.38 KCAL/MOL
REMARK 922        TOTAL FREE ENERGY PREDICTED BY IDOCK:   -3.70 KCAL/MOL
REMARK 923 INTER-LIGAND FREE ENERGY PREDICTED BY IDOCK:   -3.51 KCAL/MOL
REMARK 924 INTRA-LIGAND FREE ENERGY PREDICTED BY IDOCK:   -0.20 KCAL/MOL
REMARK 927      BINDING AFFINITY PREDICTED BY RF-SCORE:    0.00 PKD
ROOT
HETATM    1  C   UNL     1      -9.510   4.229  69.767  1.00  0.00    -0.260 C  
HETATM    2  C   UNL     1     -10.140   5.148  70.817  1.00  0.00    -0.233 C  
HETATM    3  C   UNL     1     -10.060   4.486  72.195  1.00  0.00    -0.260 C  
ENDROOT
BRANCH   2   4
HETATM    4  N   UNL     1      -9.476   6.456  70.906  1.00  0.00    -0.174 NA 
HETATM    5  H   UNL     1      -8.603   6.653  70.416  1.00  0.00     0.000 HD 
BRANCH   4   6
HETATM    6  C   UNL     1     -10.148   7.469  71.744  1.00  0.00    -0.176 C  
HETATM    7  C   UNL     1      -9.195   8.616  72.100  1.00  0.00    -0.326 C  
BRANCH   6   8
HETATM    8  C   UNL     1     -11.386   8.054  71.014  1.00  0.00    -0.294 C  
BRANCH   8   9
HETATM    9  C   UNL     1     -11.063   8.846  69.765  1.00  0.00    -0.099 A  
HETATM   10  C   UNL     1     -10.444   8.236  68.667  1.00  0.00    -0.199 A  
HETATM   11  C   UNL     1     -10.167   8.970  67.510  1.00  0.00    -0.302 A  
HETATM   12  C   UNL     1     -10.504  10.323  67.450  1.00  0.00    -0.251 A  
HETATM   13  C   UNL     1     -11.114  10.945  68.540  1.00  0.00    -0.311 A  
HETATM   14  I   UNL     1     -10.104  11.415  65.729  1.00  0.00    -0.333 I  
HETATM   15  C   UNL     1     -11.395  10.208  69.690  1.00  0.00    -0.289 A  
ENDBRANCH   8   9
ENDBRANCH   6   8
ENDBRANCH   4   6
ENDBRANCH   2   4
TORSDOF 4
ENDMDL
MODEL      194
REMARK 921   NORMALIZED FREE ENERGY PREDICTED BY IDOCK:   -2.38 KCAL/MOL
REMARK 922        TOTAL FREE ENERGY PREDICTED BY IDOCK:   -3.70 KCAL/MOL
REMARK 923 INTER-LIGAND FREE ENERGY PREDICTED BY IDOCK:   -3.68 KCAL/MOL
REMARK 924 INTRA-LIGAND FREE ENERGY PREDICTED BY IDOCK:   -0.02 KCAL/MOL
REMARK 927      BINDING AFFINITY PREDICTED BY RF-SCORE:    0.00 PKD
ROOT
HETATM    1  C   UNL     1     -11.947   6.107  71.942  1.00  0.00    -0.278 C  
HETATM    2  C   UNL     1     -10.897   6.116  70.830  1.00  0.00    -0.288 C  
HETATM    3  C   UNL     1     -10.358   4.699  70.617  1.00  0.00    -0.119 C  
ENDROOT
BRANCH   2   4
HETATM    4  N   UNL     1     -11.426   6.595  69.544  1.00  0.00    -0.603 NA 
HETATM    5  H   UNL     1     -12.378   6.951  69.452  1.00  0.00     0.000 HD 
BRANCH   4   6
HETATM    6  C   UNL     1     -10.500   6.530  68.397  1.00  0.00    -0.218 C  
HETATM    7  C   UNL     1     -11.260   6.331  67.080  1.00  0.00    -0.260 C  
BRANCH   6   8
HETATM    8  C   UNL     1      -9.657   7.829  68.297  1.00  0.00    -0.162 C  
BRANCH   8   9
HETATM    9  C   UNL     1     -10.349   9.071  68.819  1.00  0.00    -0.236 A  
HETATM   10  C   UNL     1     -10.420   9.329  70.194  1.00  0.00    -0.265 A  
HETATM   11  C   UNL     1     -11.044  10.486  70.667  1.00  0.00    -0.186 A  
HETATM   12  C   UNL     1     -11.607  11.389  69.765  1.00  0.00    -0.332 A  
HETATM   13  C   UNL     1     -11.550  11.140  68.393  1.00  0.00    -0.376 A  
HETATM   14  I   UNL     1     -12.525  13.117  70.463  1.00  0.00    -0.046 I  
HETATM   15  C   UNL     1     -10.921   9.987  67.924  1.00  0.00    -0.311 A  
ENDBRANCH   8   9
ENDBRANCH   6   8
ENDBRANCH   4   6
ENDBRANCH   2   4
TORSDOF 4
ENDMDL
MODEL      195
REMARK 921   NORMALIZED FREE ENERGY PREDICTED BY IDOCK:   -2.36 KCAL/MOL
REMARK 922        TOTAL FREE ENERGY PREDICTED BY IDOCK:   -3.67 KCAL/MOL
REMARK 923 INTER-LIGAND FREE ENERGY PREDICTED BY IDOCK:   -3.27 KCAL/MOL
REMARK 924 INTRA-LIGAND FREE ENERGY PREDICTED BY IDOCK:   -0.40 KCAL/MOL
REMARK 927      BINDING AFFINITY PREDICTED BY RF-SCORE:    0.00 PKD
ROOT
HETATM    1  C   UNL     1      -5.984  13.627  68.467  1.00  0.00    -0.092 C  
HETATM    2  C   UNL     1      -6.877  14.850  68.687  1.00  0.00    -0.106 C  
HETATM    3  C   UNL     1      -6.041  16.004  69.248  1.00  0.00    -0.138 C  
ENDROOT
BRANCH   2   4
HETATM    4  N   UNL     1      -7.522  15.319  67.452  1.00  0.00    -0.194 NA 
HETATM    5  H   UNL     1      -7.372  14.856  66.556  1.00  0.00     0.000 HD 
BRANCH   4   6
HETATM    6  C   UNL     1      -8.398  16.499  67.586  1.00  0.00    -0.165 C  
HETATM    7  C   UNL     1      -7.932  17.643  66.678  1.00  0.00    -0.285 C  
BRANCH   6   8
HETATM    8  C   UNL     1      -9.864  16.139  67.225  1.00  0.00    -0.241 C  
BRANCH   8   9
HETATM    9  C   UNL     1     -10.763  15.891  68.418  1.00  0.00    -0.281 A  
HETATM   10  C   UNL     1     -10.820  16.806  69.478  1.00  0.00    -0.225 A  
HETATM   11  C   UNL     1     -11.666  16.579  70.567  1.00  0.00     0.209 A  
HETATM   12  C   UNL     1     -12.456  15.430  70.603  1.00  0.00    -0.428 A  
HETATM   13  C   UNL     1     -12.402  14.506  69.559  1.00  0.00    -0.247 A  
HETATM   14  I   UNL     1     -13.723  15.094  72.214  1.00  0.00    -0.727 I  
HETATM   15  C   UNL     1     -11.561  14.739  68.470  1.00  0.00    -0.348 A  
ENDBRANCH   8   9
ENDBRANCH   6   8
ENDBRANCH   4   6
ENDBRANCH   2   4
TORSDOF 4
ENDMDL
MODEL      196
REMARK 921   NORMALIZED FREE ENERGY PREDICTED BY IDOCK:   -2.35 KCAL/MOL
REMARK 922        TOTAL FREE ENERGY PREDICTED BY IDOCK:   -3.66 KCAL/MOL
REMARK 923 INTER-LIGAND FREE ENERGY PREDICTED BY IDOCK:   -3.11 KCAL/MOL
REMARK 924 INTRA-LIGAND FREE ENERGY PREDICTED BY IDOCK:   -0.54 KCAL/MOL
REMARK 927      BINDING AFFINITY PREDICTED BY RF-SCORE:    0.00 PKD
ROOT
HETATM    1  C   UNL     1      -9.612  10.869  68.028  1.00  0.00    -0.170 C  
HETATM    2  C   UNL     1      -9.941   9.392  67.800  1.00  0.00    -0.184 C  
HETATM    3  C   UNL     1      -8.742   8.528  68.203  1.00  0.00    -0.142 C  
ENDROOT
BRANCH   2   4
HETATM    4  N   UNL     1     -11.105   8.937  68.574  1.00  0.00    -0.442 NA 
HETATM    5  H   UNL     1     -12.014   8.778  68.139  1.00  0.00     0.000 HD 
BRANCH   4   6
HETATM    6  C   UNL     1     -10.881   8.722  70.017  1.00  0.00    -0.223 C  
HETATM    7  C   UNL     1     -11.490   9.857  70.849  1.00  0.00    -0.456 C  
BRANCH   6   8
HETATM    8  C   UNL     1     -11.503   7.376  70.476  1.00  0.00    -0.281 C  
BRANCH   8   9
HETATM    9  C   UNL     1     -10.653   6.591  71.453  1.00  0.00    -0.266 A  
HETATM   10  C   UNL     1     -11.159   5.451  72.090  1.00  0.00    -0.234 A  
HETATM   11  C   UNL     1     -10.363   4.721  72.977  1.00  0.00    -0.235 A  
HETATM   12  C   UNL     1      -9.056   5.135  73.236  1.00  0.00    -0.122 A  
HETATM   13  C   UNL     1      -8.542   6.274  72.615  1.00  0.00    -0.123 A  
HETATM   14  I   UNL     1      -7.864   4.047  74.545  1.00  0.00    -0.087 I  
HETATM   15  C   UNL     1      -9.338   6.996  71.725  1.00  0.00    -0.150 A  
ENDBRANCH   8   9
ENDBRANCH   6   8
ENDBRANCH   4   6
ENDBRANCH   2   4
TORSDOF 4
ENDMDL
MODEL      197
REMARK 921   NORMALIZED FREE ENERGY PREDICTED BY IDOCK:   -2.34 KCAL/MOL
REMARK 922        TOTAL FREE ENERGY PREDICTED BY IDOCK:   -3.65 KCAL/MOL
REMARK 923 INTER-LIGAND FREE ENERGY PREDICTED BY IDOCK:   -3.16 KCAL/MOL
REMARK 924 INTRA-LIGAND FREE ENERGY PREDICTED BY IDOCK:   -0.49 KCAL/MOL
REMARK 927      BINDING AFFINITY PREDICTED BY RF-SCORE:    0.00 PKD
ROOT
HETATM    1  C   UNL     1      -7.102   7.942  66.434  1.00  0.00    -0.071 C  
HETATM    2  C   UNL     1      -8.034   9.148  66.573  1.00  0.00    -0.100 C  
HETATM    3  C   UNL     1      -9.449   8.760  66.133  1.00  0.00    -0.315 C  
ENDROOT
BRANCH   2   4
HETATM    4  N   UNL     1      -8.114   9.657  67.949  1.00  0.00    -0.105 NA 
HETATM    5  H   UNL     1      -7.392  10.259  68.345  1.00  0.00     0.000 HD 
BRANCH   4   6
HETATM    6  C   UNL     1      -9.301   9.247  68.725  1.00  0.00    -0.139 C  
HETATM    7  C   UNL     1      -8.910   8.355  69.908  1.00  0.00    -0.137 C  
BRANCH   6   8
HETATM    8  C   UNL     1     -10.062  10.488  69.263  1.00  0.00    -0.244 C  
BRANCH   8   9
HETATM    9  C   UNL     1     -10.266  11.591  68.246  1.00  0.00    -0.205 A  
HETATM   10  C   UNL     1     -11.334  11.545  67.340  1.00  0.00    -0.367 A  
HETATM   11  C   UNL     1     -11.527  12.576  66.417  1.00  0.00    -0.418 A  
HETATM   12  C   UNL     1     -10.645  13.657  66.391  1.00  0.00    -0.284 A  
HETATM   13  C   UNL     1      -9.573  13.712  67.282  1.00  0.00    -0.238 A  
HETATM   14  I   UNL     1     -10.934  15.198  65.028  1.00  0.00    -0.343 I  
HETATM   15  C   UNL     1      -9.387  12.684  68.207  1.00  0.00    -0.195 A  
ENDBRANCH   8   9
ENDBRANCH   6   8
ENDBRANCH   4   6
ENDBRANCH   2   4
TORSDOF 4
ENDMDL
MODEL      198
REMARK 921   NORMALIZED FREE ENERGY PREDICTED BY IDOCK:   -2.32 KCAL/MOL
REMARK 922        TOTAL FREE ENERGY PREDICTED BY IDOCK:   -3.63 KCAL/MOL
REMARK 923 INTER-LIGAND FREE ENERGY PREDICTED BY IDOCK:   -3.05 KCAL/MOL
REMARK 924 INTRA-LIGAND FREE ENERGY PREDICTED BY IDOCK:   -0.59 KCAL/MOL
REMARK 927      BINDING AFFINITY PREDICTED BY RF-SCORE:    0.00 PKD
ROOT
HETATM    1  C   UNL     1      -8.259  12.138  68.209  1.00  0.00    -0.168 C  
HETATM    2  C   UNL     1      -8.529  10.638  68.351  1.00  0.00    -0.132 C  
HETATM    3  C   UNL     1      -9.939  10.419  68.907  1.00  0.00    -0.208 C  
ENDROOT
BRANCH   2   4
HETATM    4  N   UNL     1      -8.431   9.915  67.075  1.00  0.00    -0.121 NA 
HETATM    5  H   UNL     1      -7.539   9.785  66.596  1.00  0.00     0.000 HD 
BRANCH   4   6
HETATM    6  C   UNL     1      -9.696   9.387  66.529  1.00  0.00    -0.236 C  
HETATM    7  C   UNL     1     -10.010  10.002  65.160  1.00  0.00    -0.350 C  
BRANCH   6   8
HETATM    8  C   UNL     1      -9.630   7.844  66.381  1.00  0.00    -0.251 C  
BRANCH   8   9
HETATM    9  C   UNL     1      -9.743   7.081  67.684  1.00  0.00    -0.163 A  
HETATM   10  C   UNL     1      -8.605   6.787  68.446  1.00  0.00    -0.125 A  
HETATM   11  C   UNL     1      -8.720   6.099  69.657  1.00  0.00    -0.135 A  
HETATM   12  C   UNL     1      -9.976   5.695  70.108  1.00  0.00    -0.207 A  
HETATM   13  C   UNL     1     -11.117   5.974  69.355  1.00  0.00    -0.445 A  
HETATM   14  I   UNL     1     -10.153   4.682  71.913  1.00  0.00    -0.183 I  
HETATM   15  C   UNL     1     -11.000   6.666  68.150  1.00  0.00    -0.323 A  
ENDBRANCH   8   9
ENDBRANCH   6   8
ENDBRANCH   4   6
ENDBRANCH   2   4
TORSDOF 4
ENDMDL
MODEL      199
REMARK 921   NORMALIZED FREE ENERGY PREDICTED BY IDOCK:   -2.27 KCAL/MOL
REMARK 922        TOTAL FREE ENERGY PREDICTED BY IDOCK:   -3.56 KCAL/MOL
REMARK 923 INTER-LIGAND FREE ENERGY PREDICTED BY IDOCK:   -2.81 KCAL/MOL
REMARK 924 INTRA-LIGAND FREE ENERGY PREDICTED BY IDOCK:   -0.75 KCAL/MOL
REMARK 927      BINDING AFFINITY PREDICTED BY RF-SCORE:    0.00 PKD
ROOT
HETATM    1  C   UNL     1      -6.829   9.068  67.034  1.00  0.00    -0.077 C  
HETATM    2  C   UNL     1      -7.314   8.634  65.649  1.00  0.00    -0.084 C  
HETATM    3  C   UNL     1      -7.476   7.112  65.613  1.00  0.00    -0.082 C  
ENDROOT
BRANCH   2   4
HETATM    4  N   UNL     1      -8.603   9.234  65.278  1.00  0.00    -0.156 NA 
HETATM    5  H   UNL     1      -8.907   9.302  64.306  1.00  0.00     0.000 HD 
BRANCH   4   6
HETATM    6  C   UNL     1      -9.433   9.731  66.392  1.00  0.00    -0.184 C  
HETATM    7  C   UNL     1      -9.999  11.123  66.086  1.00  0.00    -0.273 C  
BRANCH   6   8
HETATM    8  C   UNL     1     -10.611   8.762  66.675  1.00  0.00    -0.141 C  
BRANCH   8   9
HETATM    9  C   UNL     1     -10.574   8.107  68.040  1.00  0.00    -0.188 A  
HETATM   10  C   UNL     1     -10.368   8.870  69.198  1.00  0.00    -0.230 A  
HETATM   11  C   UNL     1     -10.354   8.260  70.455  1.00  0.00    -0.217 A  
HETATM   12  C   UNL     1     -10.539   6.882  70.560  1.00  0.00    -0.220 A  
HETATM   13  C   UNL     1     -10.736   6.109  69.415  1.00  0.00    -0.385 A  
HETATM   14  I   UNL     1     -10.529   5.973  72.428  1.00  0.00    -0.281 I  
HETATM   15  C   UNL     1     -10.757   6.722  68.161  1.00  0.00    -0.295 A  
ENDBRANCH   8   9
ENDBRANCH   6   8
ENDBRANCH   4   6
ENDBRANCH   2   4
TORSDOF 4
ENDMDL
MODEL      200
REMARK 921   NORMALIZED FREE ENERGY PREDICTED BY IDOCK:   -2.25 KCAL/MOL
REMARK 922        TOTAL FREE ENERGY PREDICTED BY IDOCK:   -3.55 KCAL/MOL
REMARK 923 INTER-LIGAND FREE ENERGY PREDICTED BY IDOCK:   -3.53 KCAL/MOL
REMARK 924 INTRA-LIGAND FREE ENERGY PREDICTED BY IDOCK:   -0.02 KCAL/MOL
REMARK 927      BINDING AFFINITY PREDICTED BY RF-SCORE:    0.00 PKD
ROOT
HETATM    1  C   UNL     1     -12.179  15.863  72.758  1.00  0.00    -0.604 C  
HETATM    2  C   UNL     1     -11.996  15.192  71.395  1.00  0.00    -0.350 C  
HETATM    3  C   UNL     1     -13.052  14.098  71.213  1.00  0.00    -0.420 C  
ENDROOT
BRANCH   2   4
HETATM    4  N   UNL     1     -12.122  16.131  70.272  1.00  0.00    -0.374 NA 
HETATM    5  H   UNL     1     -12.606  17.024  70.366  1.00  0.00     0.000 HD 
BRANCH   4   6
HETATM    6  C   UNL     1     -11.505  15.708  68.999  1.00  0.00    -0.363 C  
HETATM    7  C   UNL     1     -11.397  16.880  68.017  1.00  0.00     0.073 C  
BRANCH   6   8
HETATM    8  C   UNL     1     -10.088  15.124  69.241  1.00  0.00    -0.246 C  
BRANCH   8   9
HETATM    9  C   UNL     1      -8.985  15.806  68.461  1.00  0.00    -0.194 A  
HETATM   10  C   UNL     1      -8.683  15.413  67.150  1.00  0.00    -0.243 A  
HETATM   11  C   UNL     1      -7.675  16.060  66.430  1.00  0.00    -0.049 A  
HETATM   12  C   UNL     1      -6.960  17.102  67.021  1.00  0.00    -0.193 A  
HETATM   13  C   UNL     1      -7.245  17.498  68.328  1.00  0.00    -0.217 A  
HETATM   14  I   UNL     1      -5.469  18.074  65.950  1.00  0.00    -0.195 I  
HETATM   15  C   UNL     1      -8.255  16.854  69.043  1.00  0.00    -0.153 A  
ENDBRANCH   8   9
ENDBRANCH   6   8
ENDBRANCH   4   6
ENDBRANCH   2   4
TORSDOF 4
ENDMDL
MODEL      201
REMARK 921   NORMALIZED FREE ENERGY PREDICTED BY IDOCK:   -2.25 KCAL/MOL
REMARK 922        TOTAL FREE ENERGY PREDICTED BY IDOCK:   -3.53 KCAL/MOL
REMARK 923 INTER-LIGAND FREE ENERGY PREDICTED BY IDOCK:   -3.10 KCAL/MOL
REMARK 924 INTRA-LIGAND FREE ENERGY PREDICTED BY IDOCK:   -0.43 KCAL/MOL
REMARK 927      BINDING AFFINITY PREDICTED BY RF-SCORE:    0.00 PKD
ROOT
HETATM    1  C   UNL     1     -13.261   9.293  72.550  1.00  0.00    -0.439 C  
HETATM    2  C   UNL     1     -12.479   9.556  71.261  1.00  0.00    -0.346 C  
HETATM    3  C   UNL     1     -12.460  11.059  70.966  1.00  0.00    -0.512 C  
ENDROOT
BRANCH   2   4
HETATM    4  N   UNL     1     -11.085   9.093  71.331  1.00  0.00    -0.317 NA 
HETATM    5  H   UNL     1     -10.394   9.551  71.925  1.00  0.00     0.000 HD 
BRANCH   4   6
HETATM    6  C   UNL     1     -10.745   7.928  70.491  1.00  0.00    -0.233 C  
HETATM    7  C   UNL     1     -10.711   8.305  69.005  1.00  0.00    -0.098 C  
BRANCH   6   8
HETATM    8  C   UNL     1      -9.364   7.346  70.892  1.00  0.00    -0.155 C  
BRANCH   8   9
HETATM    9  C   UNL     1      -9.005   6.046  70.202  1.00  0.00    -0.150 A  
HETATM   10  C   UNL     1      -7.836   5.937  69.438  1.00  0.00    -0.094 A  
HETATM   11  C   UNL     1      -7.502   4.729  68.820  1.00  0.00    -0.065 A  
HETATM   12  C   UNL     1      -8.342   3.624  68.959  1.00  0.00    -0.068 A  
HETATM   13  C   UNL     1      -9.514   3.721  69.710  1.00  0.00    -0.256 A  
HETATM   14  I   UNL     1      -7.845   1.823  68.052  1.00  0.00    -0.068 I  
HETATM   15  C   UNL     1      -9.841   4.927  70.330  1.00  0.00    -0.302 A  
ENDBRANCH   8   9
ENDBRANCH   6   8
ENDBRANCH   4   6
ENDBRANCH   2   4
TORSDOF 4
ENDMDL
MODEL      202
REMARK 921   NORMALIZED FREE ENERGY PREDICTED BY IDOCK:   -2.22 KCAL/MOL
REMARK 922        TOTAL FREE ENERGY PREDICTED BY IDOCK:   -3.50 KCAL/MOL
REMARK 923 INTER-LIGAND FREE ENERGY PREDICTED BY IDOCK:   -2.90 KCAL/MOL
REMARK 924 INTRA-LIGAND FREE ENERGY PREDICTED BY IDOCK:   -0.60 KCAL/MOL
REMARK 927      BINDING AFFINITY PREDICTED BY RF-SCORE:    0.00 PKD
ROOT
HETATM    1  C   UNL     1     -12.406  14.746  70.145  1.00  0.00    -0.381 C  
HETATM    2  C   UNL     1     -11.431  14.636  68.971  1.00  0.00    -0.291 C  
HETATM    3  C   UNL     1     -12.122  13.951  67.789  1.00  0.00    -0.328 C  
ENDROOT
BRANCH   2   4
HETATM    4  N   UNL     1     -10.938  15.942  68.510  1.00  0.00    -0.306 NA 
HETATM    5  H   UNL     1     -11.517  16.781  68.549  1.00  0.00     0.000 HD 
BRANCH   4   6
HETATM    6  C   UNL     1      -9.558  15.968  67.988  1.00  0.00    -0.215 C  
HETATM    7  C   UNL     1      -9.072  17.406  67.774  1.00  0.00    -0.243 C  
BRANCH   6   8
HETATM    8  C   UNL     1      -8.587  15.251  68.962  1.00  0.00    -0.226 C  
BRANCH   8   9
HETATM    9  C   UNL     1      -7.774  14.138  68.336  1.00  0.00    -0.140 A  
HETATM   10  C   UNL     1      -8.397  12.987  67.835  1.00  0.00    -0.170 A  
HETATM   11  C   UNL     1      -7.642  11.972  67.241  1.00  0.00    -0.157 A  
HETATM   12  C   UNL     1      -6.255  12.102  67.151  1.00  0.00    -0.143 A  
HETATM   13  C   UNL     1      -5.621  13.240  67.653  1.00  0.00    -0.070 A  
HETATM   14  I   UNL     1      -5.130  10.602  66.259  1.00  0.00    -0.116 I  
HETATM   15  C   UNL     1      -6.379  14.253  68.239  1.00  0.00    -0.118 A  
ENDBRANCH   8   9
ENDBRANCH   6   8
ENDBRANCH   4   6
ENDBRANCH   2   4
TORSDOF 4
ENDMDL
MODEL      203
REMARK 921   NORMALIZED FREE ENERGY PREDICTED BY IDOCK:   -2.21 KCAL/MOL
REMARK 922        TOTAL FREE ENERGY PREDICTED BY IDOCK:   -3.50 KCAL/MOL
REMARK 923 INTER-LIGAND FREE ENERGY PREDICTED BY IDOCK:   -3.35 KCAL/MOL
REMARK 924 INTRA-LIGAND FREE ENERGY PREDICTED BY IDOCK:   -0.15 KCAL/MOL
REMARK 927      BINDING AFFINITY PREDICTED BY RF-SCORE:    0.00 PKD
ROOT
HETATM    1  C   UNL     1      -8.690   3.365  73.973  1.00  0.00    -0.087 C  
HETATM    2  C   UNL     1      -9.821   3.426  72.943  1.00  0.00    -0.142 C  
HETATM    3  C   UNL     1     -11.125   2.940  73.581  1.00  0.00    -0.326 C  
ENDROOT
BRANCH   2   4
HETATM    4  N   UNL     1     -10.051   4.781  72.422  1.00  0.00    -0.173 NA 
HETATM    5  H   UNL     1     -10.977   5.209  72.423  1.00  0.00     0.000 HD 
BRANCH   4   6
HETATM    6  C   UNL     1      -8.864   5.486  71.900  1.00  0.00    -0.135 C  
HETATM    7  C   UNL     1      -8.943   5.654  70.378  1.00  0.00    -0.153 C  
BRANCH   6   8
HETATM    8  C   UNL     1      -8.725   6.887  72.552  1.00  0.00    -0.135 C  
BRANCH   8   9
HETATM    9  C   UNL     1      -9.527   7.978  71.875  1.00  0.00    -0.240 A  
HETATM   10  C   UNL     1     -10.864   8.211  72.227  1.00  0.00    -0.388 A  
HETATM   11  C   UNL     1     -11.591   9.232  71.610  1.00  0.00    -0.463 A  
HETATM   12  C   UNL     1     -10.986  10.023  70.634  1.00  0.00    -0.322 A  
HETATM   13  C   UNL     1      -9.658   9.797  70.268  1.00  0.00    -0.264 A  
HETATM   14  I   UNL     1     -12.061  11.550  69.723  1.00  0.00    -0.273 I  
HETATM   15  C   UNL     1      -8.933   8.781  70.890  1.00  0.00    -0.247 A  
ENDBRANCH   8   9
ENDBRANCH   6   8
ENDBRANCH   4   6
ENDBRANCH   2   4
TORSDOF 4
ENDMDL
MODEL      204
REMARK 921   NORMALIZED FREE ENERGY PREDICTED BY IDOCK:   -2.19 KCAL/MOL
REMARK 922        TOTAL FREE ENERGY PREDICTED BY IDOCK:   -3.47 KCAL/MOL
REMARK 923 INTER-LIGAND FREE ENERGY PREDICTED BY IDOCK:   -3.08 KCAL/MOL
REMARK 924 INTRA-LIGAND FREE ENERGY PREDICTED BY IDOCK:   -0.39 KCAL/MOL
REMARK 927      BINDING AFFINITY PREDICTED BY RF-SCORE:    0.00 PKD
ROOT
HETATM    1  C   UNL     1      -8.224  10.010  70.251  1.00  0.00     0.012 C  
HETATM    2  C   UNL     1      -9.415  10.513  69.432  1.00  0.00    -0.136 C  
HETATM    3  C   UNL     1     -10.722  10.065  70.093  1.00  0.00    -0.361 C  
ENDROOT
BRANCH   2   4
HETATM    4  N   UNL     1      -9.450  11.977  69.309  1.00  0.00    -0.095 NA 
HETATM    5  H   UNL     1      -9.725  12.577  70.087  1.00  0.00     0.000 HD 
BRANCH   4   6
HETATM    6  C   UNL     1      -9.065  12.528  67.995  1.00  0.00    -0.200 C  
HETATM    7  C   UNL     1      -8.743  11.410  66.997  1.00  0.00    -0.160 C  
BRANCH   6   8
HETATM    8  C   UNL     1     -10.202  13.408  67.412  1.00  0.00    -0.237 C  
BRANCH   8   9
HETATM    9  C   UNL     1      -9.995  14.898  67.582  1.00  0.00    -0.226 A  
HETATM   10  C   UNL     1     -11.080  15.752  67.823  1.00  0.00    -0.313 A  
HETATM   11  C   UNL     1     -10.878  17.124  67.997  1.00  0.00    -0.317 A  
HETATM   12  C   UNL     1      -9.587  17.649  67.924  1.00  0.00    -0.282 A  
HETATM   13  C   UNL     1      -8.499  16.812  67.676  1.00  0.00    -0.197 A  
HETATM   14  I   UNL     1      -9.282  19.686  68.193  1.00  0.00    -0.379 I  
HETATM   15  C   UNL     1      -8.704  15.442  67.509  1.00  0.00    -0.186 A  
ENDBRANCH   8   9
ENDBRANCH   6   8
ENDBRANCH   4   6
ENDBRANCH   2   4
TORSDOF 4
ENDMDL
MODEL      205
REMARK 921   NORMALIZED FREE ENERGY PREDICTED BY IDOCK:   -2.18 KCAL/MOL
REMARK 922        TOTAL FREE ENERGY PREDICTED BY IDOCK:   -3.46 KCAL/MOL
REMARK 923 INTER-LIGAND FREE ENERGY PREDICTED BY IDOCK:   -3.06 KCAL/MOL
REMARK 924 INTRA-LIGAND FREE ENERGY PREDICTED BY IDOCK:   -0.40 KCAL/MOL
REMARK 927      BINDING AFFINITY PREDICTED BY RF-SCORE:    0.00 PKD
ROOT
HETATM    1  C   UNL     1      -8.126  10.933  68.796  1.00  0.00    -0.145 C  
HETATM    2  C   UNL     1      -8.221   9.487  69.290  1.00  0.00    -0.112 C  
HETATM    3  C   UNL     1      -9.044   9.436  70.580  1.00  0.00    -0.308 C  
ENDROOT
BRANCH   2   4
HETATM    4  N   UNL     1      -8.855   8.589  68.314  1.00  0.00    -0.142 NA 
HETATM    5  H   UNL     1      -8.307   7.981  67.705  1.00  0.00     0.000 HD 
BRANCH   4   6
HETATM    6  C   UNL     1     -10.330   8.616  68.269  1.00  0.00    -0.207 C  
HETATM    7  C   UNL     1     -10.837   9.726  67.340  1.00  0.00    -0.265 C  
BRANCH   6   8
HETATM    8  C   UNL     1     -10.891   7.256  67.776  1.00  0.00    -0.214 C  
BRANCH   8   9
HETATM    9  C   UNL     1     -10.486   6.065  68.620  1.00  0.00    -0.297 A  
HETATM   10  C   UNL     1     -10.886   5.964  69.959  1.00  0.00    -0.421 A  
HETATM   11  C   UNL     1     -10.523   4.853  70.726  1.00  0.00    -0.166 A  
HETATM   12  C   UNL     1      -9.752   3.840  70.156  1.00  0.00    -0.147 A  
HETATM   13  C   UNL     1      -9.340   3.932  68.826  1.00  0.00    -0.231 A  
HETATM   14  I   UNL     1      -9.221   2.181  71.289  1.00  0.00    -0.208 I  
HETATM   15  C   UNL     1      -9.709   5.039  68.062  1.00  0.00    -0.197 A  
ENDBRANCH   8   9
ENDBRANCH   6   8
ENDBRANCH   4   6
ENDBRANCH   2   4
TORSDOF 4
ENDMDL
MODEL      206
REMARK 921   NORMALIZED FREE ENERGY PREDICTED BY IDOCK:   -2.18 KCAL/MOL
REMARK 922        TOTAL FREE ENERGY PREDICTED BY IDOCK:   -3.45 KCAL/MOL
REMARK 923 INTER-LIGAND FREE ENERGY PREDICTED BY IDOCK:   -3.46 KCAL/MOL
REMARK 924 INTRA-LIGAND FREE ENERGY PREDICTED BY IDOCK:    0.01 KCAL/MOL
REMARK 927      BINDING AFFINITY PREDICTED BY RF-SCORE:    0.00 PKD
ROOT
HETATM    1  C   UNL     1      -9.483   4.778  66.506  1.00  0.00    -0.159 C  
HETATM    2  C   UNL     1      -8.388   5.757  66.076  1.00  0.00    -0.126 C  
HETATM    3  C   UNL     1      -7.466   5.083  65.056  1.00  0.00    -0.076 C  
ENDROOT
BRANCH   2   4
HETATM    4  N   UNL     1      -8.921   6.981  65.462  1.00  0.00    -0.373 NA 
HETATM    5  H   UNL     1      -9.332   6.982  64.528  1.00  0.00     0.000 HD 
BRANCH   4   6
HETATM    6  C   UNL     1      -8.827   8.209  66.275  1.00  0.00    -0.164 C  
HETATM    7  C   UNL     1      -7.887   9.233  65.629  1.00  0.00    -0.099 C  
BRANCH   6   8
HETATM    8  C   UNL     1     -10.225   8.858  66.456  1.00  0.00    -0.319 C  
BRANCH   8   9
HETATM    9  C   UNL     1     -10.266  10.348  66.192  1.00  0.00    -0.288 A  
HETATM   10  C   UNL     1     -10.515  10.843  64.905  1.00  0.00    -0.352 A  
HETATM   11  C   UNL     1     -10.570  12.220  64.674  1.00  0.00    -0.338 A  
HETATM   12  C   UNL     1     -10.370  13.110  65.729  1.00  0.00    -0.289 A  
HETATM   13  C   UNL     1     -10.113  12.630  67.014  1.00  0.00    -0.228 A  
HETATM   14  I   UNL     1     -10.462  15.157  65.391  1.00  0.00    -0.439 I  
HETATM   15  C   UNL     1     -10.065  11.255  67.244  1.00  0.00    -0.214 A  
ENDBRANCH   8   9
ENDBRANCH   6   8
ENDBRANCH   4   6
ENDBRANCH   2   4
TORSDOF 4
ENDMDL
MODEL      207
REMARK 921   NORMALIZED FREE ENERGY PREDICTED BY IDOCK:   -2.17 KCAL/MOL
REMARK 922        TOTAL FREE ENERGY PREDICTED BY IDOCK:   -3.44 KCAL/MOL
REMARK 923 INTER-LIGAND FREE ENERGY PREDICTED BY IDOCK:   -2.96 KCAL/MOL
REMARK 924 INTRA-LIGAND FREE ENERGY PREDICTED BY IDOCK:   -0.48 KCAL/MOL
REMARK 927      BINDING AFFINITY PREDICTED BY RF-SCORE:    0.00 PKD
ROOT
HETATM    1  C   UNL     1     -11.386   8.341  70.497  1.00  0.00    -0.225 C  
HETATM    2  C   UNL     1     -10.467   9.416  71.084  1.00  0.00    -0.322 C  
HETATM    3  C   UNL     1      -9.038   8.875  71.181  1.00  0.00    -0.315 C  
ENDROOT
BRANCH   2   4
HETATM    4  N   UNL     1     -10.432  10.644  70.277  1.00  0.00    -0.390 NA 
HETATM    5  H   UNL     1     -10.150  11.541  70.673  1.00  0.00     0.000 HD 
BRANCH   4   6
HETATM    6  C   UNL     1     -10.826  10.502  68.862  1.00  0.00    -0.235 C  
HETATM    7  C   UNL     1     -11.872  11.551  68.469  1.00  0.00    -0.365 C  
BRANCH   6   8
HETATM    8  C   UNL     1      -9.594  10.650  67.931  1.00  0.00    -0.174 C  
BRANCH   8   9
HETATM    9  C   UNL     1      -8.595  11.700  68.370  1.00  0.00    -0.156 A  
HETATM   10  C   UNL     1      -7.375  11.332  68.952  1.00  0.00    -0.115 A  
HETATM   11  C   UNL     1      -6.451  12.307  69.338  1.00  0.00    -0.105 A  
HETATM   12  C   UNL     1      -6.746  13.657  69.147  1.00  0.00    -0.109 A  
HETATM   13  C   UNL     1      -7.961  14.037  68.575  1.00  0.00    -0.141 A  
HETATM   14  I   UNL     1      -5.371  15.109  69.708  1.00  0.00    -0.111 I  
HETATM   15  C   UNL     1      -8.879  13.062  68.186  1.00  0.00    -0.194 A  
ENDBRANCH   8   9
ENDBRANCH   6   8
ENDBRANCH   4   6
ENDBRANCH   2   4
TORSDOF 4
ENDMDL
MODEL      208
REMARK 921   NORMALIZED FREE ENERGY PREDICTED BY IDOCK:   -2.16 KCAL/MOL
REMARK 922        TOTAL FREE ENERGY PREDICTED BY IDOCK:   -3.43 KCAL/MOL
REMARK 923 INTER-LIGAND FREE ENERGY PREDICTED BY IDOCK:   -2.81 KCAL/MOL
REMARK 924 INTRA-LIGAND FREE ENERGY PREDICTED BY IDOCK:   -0.62 KCAL/MOL
REMARK 927      BINDING AFFINITY PREDICTED BY RF-SCORE:    0.00 PKD
ROOT
HETATM    1  C   UNL     1     -11.102   6.205  68.757  1.00  0.00    -0.398 C  
HETATM    2  C   UNL     1     -11.043   6.383  70.276  1.00  0.00    -0.354 C  
HETATM    3  C   UNL     1      -9.817   5.653  70.833  1.00  0.00    -0.237 C  
ENDROOT
BRANCH   2   4
HETATM    4  N   UNL     1     -10.953   7.792  70.685  1.00  0.00    -0.246 NA 
HETATM    5  H   UNL     1     -10.990   8.072  71.666  1.00  0.00     0.000 HD 
BRANCH   4   6
HETATM    6  C   UNL     1     -10.807   8.777  69.596  1.00  0.00    -0.169 C  
HETATM    7  C   UNL     1     -11.598  10.056  69.893  1.00  0.00    -0.237 C  
BRANCH   6   8
HETATM    8  C   UNL     1      -9.315   9.148  69.388  1.00  0.00    -0.160 C  
BRANCH   8   9
HETATM    9  C   UNL     1      -8.793   8.896  67.989  1.00  0.00    -0.133 A  
HETATM   10  C   UNL     1      -9.547   9.255  66.864  1.00  0.00    -0.229 A  
HETATM   11  C   UNL     1      -9.050   9.036  65.577  1.00  0.00    -0.271 A  
HETATM   12  C   UNL     1      -7.796   8.449  65.408  1.00  0.00    -0.108 A  
HETATM   13  C   UNL     1      -7.038   8.078  66.519  1.00  0.00    -0.075 A  
HETATM   14  I   UNL     1      -7.049   8.131  63.496  1.00  0.00    -0.100 I  
HETATM   15  C   UNL     1      -7.534   8.304  67.803  1.00  0.00    -0.094 A  
ENDBRANCH   8   9
ENDBRANCH   6   8
ENDBRANCH   4   6
ENDBRANCH   2   4
TORSDOF 4
ENDMDL
MODEL      209
REMARK 921   NORMALIZED FREE ENERGY PREDICTED BY IDOCK:   -2.14 KCAL/MOL
REMARK 922        TOTAL FREE ENERGY PREDICTED BY IDOCK:   -3.41 KCAL/MOL
REMARK 923 INTER-LIGAND FREE ENERGY PREDICTED BY IDOCK:   -3.34 KCAL/MOL
REMARK 924 INTRA-LIGAND FREE ENERGY PREDICTED BY IDOCK:   -0.07 KCAL/MOL
REMARK 927      BINDING AFFINITY PREDICTED BY RF-SCORE:    0.00 PKD
ROOT
HETATM    1  C   UNL     1      -9.487  11.112  64.863  1.00  0.00    -0.251 C  
HETATM    2  C   UNL     1      -9.627   9.595  65.015  1.00  0.00    -0.214 C  
HETATM    3  C   UNL     1      -8.611   8.890  64.112  1.00  0.00    -0.128 C  
ENDROOT
BRANCH   2   4
HETATM    4  N   UNL     1      -9.403   9.133  66.392  1.00  0.00    -0.187 NA 
HETATM    5  H   UNL     1      -9.298   9.785  67.170  1.00  0.00     0.000 HD 
BRANCH   4   6
HETATM    6  C   UNL     1      -9.340   7.671  66.584  1.00  0.00    -0.190 C  
HETATM    7  C   UNL     1      -8.235   7.288  67.575  1.00  0.00    -0.113 C  
BRANCH   6   8
HETATM    8  C   UNL     1     -10.694   7.125  67.108  1.00  0.00    -0.422 C  
BRANCH   8   9
HETATM    9  C   UNL     1     -10.681   6.698  68.560  1.00  0.00    -0.308 A  
HETATM   10  C   UNL     1     -10.411   5.370  68.917  1.00  0.00    -0.238 A  
HETATM   11  C   UNL     1     -10.383   4.988  70.261  1.00  0.00    -0.299 A  
HETATM   12  C   UNL     1     -10.631   5.934  71.256  1.00  0.00    -0.252 A  
HETATM   13  C   UNL     1     -10.908   7.258  70.915  1.00  0.00    -0.262 A  
HETATM   14  I   UNL     1     -10.578   5.373  73.255  1.00  0.00    -0.369 I  
HETATM   15  C   UNL     1     -10.930   7.638  69.572  1.00  0.00    -0.108 A  
ENDBRANCH   8   9
ENDBRANCH   6   8
ENDBRANCH   4   6
ENDBRANCH   2   4
TORSDOF 4
ENDMDL
MODEL      210
REMARK 921   NORMALIZED FREE ENERGY PREDICTED BY IDOCK:   -2.13 KCAL/MOL
REMARK 922        TOTAL FREE ENERGY PREDICTED BY IDOCK:   -3.40 KCAL/MOL
REMARK 923 INTER-LIGAND FREE ENERGY PREDICTED BY IDOCK:   -3.19 KCAL/MOL
REMARK 924 INTRA-LIGAND FREE ENERGY PREDICTED BY IDOCK:   -0.21 KCAL/MOL
REMARK 927      BINDING AFFINITY PREDICTED BY RF-SCORE:    0.00 PKD
ROOT
HETATM    1  C   UNL     1     -12.040  11.340  68.572  1.00  0.00    -0.161 C  
HETATM    2  C   UNL     1     -11.118  12.502  68.193  1.00  0.00    -0.243 C  
HETATM    3  C   UNL     1     -11.632  13.796  68.830  1.00  0.00    -0.358 C  
ENDROOT
BRANCH   2   4
HETATM    4  N   UNL     1      -9.731  12.301  68.636  1.00  0.00    -0.387 NA 
HETATM    5  H   UNL     1      -9.503  12.041  69.596  1.00  0.00     0.000 HD 
BRANCH   4   6
HETATM    6  C   UNL     1      -8.687  12.498  67.610  1.00  0.00    -0.177 C  
HETATM    7  C   UNL     1      -7.437  13.153  68.208  1.00  0.00    -0.129 C  
BRANCH   6   8
HETATM    8  C   UNL     1      -8.285  11.144  66.969  1.00  0.00    -0.146 C  
BRANCH   8   9
HETATM    9  C   UNL     1      -8.881   9.926  67.643  1.00  0.00    -0.126 A  
HETATM   10  C   UNL     1      -9.855   9.152  66.999  1.00  0.00    -0.267 A  
HETATM   11  C   UNL     1     -10.387   8.019  67.621  1.00  0.00    -0.312 A  
HETATM   12  C   UNL     1      -9.948   7.658  68.896  1.00  0.00    -0.176 A  
HETATM   13  C   UNL     1      -8.984   8.424  69.551  1.00  0.00    -0.149 A  
HETATM   14  I   UNL     1     -10.727   5.968  69.819  1.00  0.00    -0.432 I  
HETATM   15  C   UNL     1      -8.451   9.551  68.925  1.00  0.00    -0.123 A  
ENDBRANCH   8   9
ENDBRANCH   6   8
ENDBRANCH   4   6
ENDBRANCH   2   4
TORSDOF 4
ENDMDL
MODEL      211
REMARK 921   NORMALIZED FREE ENERGY PREDICTED BY IDOCK:   -2.13 KCAL/MOL
REMARK 922        TOTAL FREE ENERGY PREDICTED BY IDOCK:   -3.40 KCAL/MOL
REMARK 923 INTER-LIGAND FREE ENERGY PREDICTED BY IDOCK:   -3.22 KCAL/MOL
REMARK 924 INTRA-LIGAND FREE ENERGY PREDICTED BY IDOCK:   -0.18 KCAL/MOL
REMARK 927      BINDING AFFINITY PREDICTED BY RF-SCORE:    0.00 PKD
ROOT
HETATM    1  C   UNL     1      -9.478  13.161  66.455  1.00  0.00    -0.226 C  
HETATM    2  C   UNL     1     -10.073  13.138  67.864  1.00  0.00    -0.232 C  
HETATM    3  C   UNL     1     -11.594  13.299  67.784  1.00  0.00    -0.380 C  
ENDROOT
BRANCH   2   4
HETATM    4  N   UNL     1      -9.789  11.891  68.587  1.00  0.00    -0.339 NA 
HETATM    5  H   UNL     1      -9.251  11.880  69.454  1.00  0.00     0.000 HD 
BRANCH   4   6
HETATM    6  C   UNL     1     -10.328  10.655  67.986  1.00  0.00    -0.178 C  
HETATM    7  C   UNL     1      -9.209   9.654  67.676  1.00  0.00    -0.144 C  
BRANCH   6   8
HETATM    8  C   UNL     1     -11.352   9.982  68.938  1.00  0.00    -0.123 C  
BRANCH   8   9
HETATM    9  C   UNL     1     -10.744   9.032  69.948  1.00  0.00    -0.240 A  
HETATM   10  C   UNL     1     -10.877   7.645  69.800  1.00  0.00    -0.222 A  
HETATM   11  C   UNL     1     -10.297   6.774  70.726  1.00  0.00    -0.227 A  
HETATM   12  C   UNL     1      -9.584   7.288  71.809  1.00  0.00    -0.150 A  
HETATM   13  C   UNL     1      -9.450   8.668  71.973  1.00  0.00    -0.370 A  
HETATM   14  I   UNL     1      -8.710   5.997  73.182  1.00  0.00    -0.117 I  
HETATM   15  C   UNL     1     -10.026   9.534  71.043  1.00  0.00    -0.269 A  
ENDBRANCH   8   9
ENDBRANCH   6   8
ENDBRANCH   4   6
ENDBRANCH   2   4
TORSDOF 4
ENDMDL
MODEL      212
REMARK 921   NORMALIZED FREE ENERGY PREDICTED BY IDOCK:   -2.12 KCAL/MOL
REMARK 922        TOTAL FREE ENERGY PREDICTED BY IDOCK:   -3.37 KCAL/MOL
REMARK 923 INTER-LIGAND FREE ENERGY PREDICTED BY IDOCK:   -2.96 KCAL/MOL
REMARK 924 INTRA-LIGAND FREE ENERGY PREDICTED BY IDOCK:   -0.42 KCAL/MOL
REMARK 927      BINDING AFFINITY PREDICTED BY RF-SCORE:    0.00 PKD
ROOT
HETATM    1  C   UNL     1      -9.487   2.855  68.303  1.00  0.00    -0.217 C  
HETATM    2  C   UNL     1      -8.168   3.591  68.058  1.00  0.00    -0.083 C  
HETATM    3  C   UNL     1      -8.050   3.958  66.576  1.00  0.00    -0.097 C  
ENDROOT
BRANCH   2   4
HETATM    4  N   UNL     1      -8.048   4.830  68.840  1.00  0.00    -0.082 NA 
HETATM    5  H   UNL     1      -7.942   5.741  68.394  1.00  0.00     0.000 HD 
BRANCH   4   6
HETATM    6  C   UNL     1      -8.090   4.678  70.307  1.00  0.00    -0.067 C  
HETATM    7  C   UNL     1      -6.992   3.728  70.800  1.00  0.00    -0.033 C  
BRANCH   6   8
HETATM    8  C   UNL     1      -7.915   6.051  71.008  1.00  0.00    -0.116 C  
BRANCH   8   9
HETATM    9  C   UNL     1      -9.210   6.790  71.276  1.00  0.00    -0.154 A  
HETATM   10  C   UNL     1      -9.231   8.187  71.382  1.00  0.00    -0.195 A  
HETATM   11  C   UNL     1     -10.433   8.862  71.612  1.00  0.00    -0.408 A  
HETATM   12  C   UNL     1     -11.620   8.141  71.743  1.00  0.00    -0.291 A  
HETATM   13  C   UNL     1     -11.611   6.749  71.647  1.00  0.00    -0.336 A  
HETATM   14  I   UNL     1     -13.410   9.142  72.072  1.00  0.00    -0.592 I  
HETATM   15  C   UNL     1     -10.411   6.078  71.412  1.00  0.00    -0.282 A  
ENDBRANCH   8   9
ENDBRANCH   6   8
ENDBRANCH   4   6
ENDBRANCH   2   4
TORSDOF 4
ENDMDL
MODEL      213
REMARK 921   NORMALIZED FREE ENERGY PREDICTED BY IDOCK:   -2.11 KCAL/MOL
REMARK 922        TOTAL FREE ENERGY PREDICTED BY IDOCK:   -3.37 KCAL/MOL
REMARK 923 INTER-LIGAND FREE ENERGY PREDICTED BY IDOCK:   -2.47 KCAL/MOL
REMARK 924 INTRA-LIGAND FREE ENERGY PREDICTED BY IDOCK:   -0.90 KCAL/MOL
REMARK 927      BINDING AFFINITY PREDICTED BY RF-SCORE:    0.00 PKD
ROOT
HETATM    1  C   UNL     1      -6.546   9.062  71.329  1.00  0.00    -0.086 C  
HETATM    2  C   UNL     1      -6.288   7.567  71.132  1.00  0.00    -0.035 C  
HETATM    3  C   UNL     1      -7.213   6.759  72.047  1.00  0.00    -0.080 C  
ENDROOT
BRANCH   2   4
HETATM    4  N   UNL     1      -6.521   7.122  69.750  1.00  0.00    -0.038 NA 
HETATM    5  H   UNL     1      -6.483   6.137  69.487  1.00  0.00     0.000 HD 
BRANCH   4   6
HETATM    6  C   UNL     1      -6.814   8.183  68.767  1.00  0.00    -0.066 C  
HETATM    7  C   UNL     1      -5.749   8.228  67.665  1.00  0.00    -0.039 C  
BRANCH   6   8
HETATM    8  C   UNL     1      -8.203   7.958  68.112  1.00  0.00    -0.123 C  
BRANCH   8   9
HETATM    9  C   UNL     1      -9.380   8.238  69.023  1.00  0.00    -0.147 A  
HETATM   10  C   UNL     1     -10.150   7.190  69.545  1.00  0.00    -0.182 A  
HETATM   11  C   UNL     1     -11.223   7.456  70.399  1.00  0.00    -0.284 A  
HETATM   12  C   UNL     1     -11.536   8.775  70.731  1.00  0.00    -0.270 A  
HETATM   13  C   UNL     1     -10.782   9.828  70.211  1.00  0.00    -0.358 A  
HETATM   14  I   UNL     1     -13.123   9.174  72.009  1.00  0.00    -0.571 I  
HETATM   15  C   UNL     1      -9.708   9.559  69.364  1.00  0.00    -0.190 A  
ENDBRANCH   8   9
ENDBRANCH   6   8
ENDBRANCH   4   6
ENDBRANCH   2   4
TORSDOF 4
ENDMDL
MODEL      214
REMARK 921   NORMALIZED FREE ENERGY PREDICTED BY IDOCK:   -2.10 KCAL/MOL
REMARK 922        TOTAL FREE ENERGY PREDICTED BY IDOCK:   -3.35 KCAL/MOL
REMARK 923 INTER-LIGAND FREE ENERGY PREDICTED BY IDOCK:   -3.22 KCAL/MOL
REMARK 924 INTRA-LIGAND FREE ENERGY PREDICTED BY IDOCK:   -0.13 KCAL/MOL
REMARK 927      BINDING AFFINITY PREDICTED BY RF-SCORE:    0.00 PKD
ROOT
HETATM    1  C   UNL     1     -10.888   8.358  71.729  1.00  0.00    -0.353 C  
HETATM    2  C   UNL     1      -9.387   8.593  71.542  1.00  0.00    -0.249 C  
HETATM    3  C   UNL     1      -8.638   8.171  72.808  1.00  0.00    -0.269 C  
ENDROOT
BRANCH   2   4
HETATM    4  N   UNL     1      -8.825   7.839  70.412  1.00  0.00    -0.145 NA 
HETATM    5  H   UNL     1      -8.619   6.842  70.478  1.00  0.00     0.000 HD 
BRANCH   4   6
HETATM    6  C   UNL     1      -8.576   8.609  69.178  1.00  0.00    -0.129 C  
HETATM    7  C   UNL     1      -9.364   8.033  67.995  1.00  0.00    -0.146 C  
BRANCH   6   8
HETATM    8  C   UNL     1      -8.974  10.097  69.367  1.00  0.00    -0.205 C  
BRANCH   8   9
HETATM    9  C   UNL     1      -9.700  10.709  68.188  1.00  0.00    -0.167 A  
HETATM   10  C   UNL     1      -8.990  11.233  67.100  1.00  0.00    -0.155 A  
HETATM   11  C   UNL     1      -9.668  11.780  66.007  1.00  0.00    -0.254 A  
HETATM   12  C   UNL     1     -11.063  11.810  66.001  1.00  0.00    -0.312 A  
HETATM   13  C   UNL     1     -11.782  11.299  67.082  1.00  0.00     0.035 A  
HETATM   14  I   UNL     1     -12.075  12.612  64.374  1.00  0.00    -0.537 I  
HETATM   15  C   UNL     1     -11.103  10.749  68.168  1.00  0.00    -0.337 A  
ENDBRANCH   8   9
ENDBRANCH   6   8
ENDBRANCH   4   6
ENDBRANCH   2   4
TORSDOF 4
ENDMDL
MODEL      215
REMARK 921   NORMALIZED FREE ENERGY PREDICTED BY IDOCK:   -2.09 KCAL/MOL
REMARK 922        TOTAL FREE ENERGY PREDICTED BY IDOCK:   -3.35 KCAL/MOL
REMARK 923 INTER-LIGAND FREE ENERGY PREDICTED BY IDOCK:   -2.93 KCAL/MOL
REMARK 924 INTRA-LIGAND FREE ENERGY PREDICTED BY IDOCK:   -0.42 KCAL/MOL
REMARK 927      BINDING AFFINITY PREDICTED BY RF-SCORE:    0.00 PKD
ROOT
HETATM    1  C   UNL     1     -13.086   9.072  72.455  1.00  0.00    -0.487 C  
HETATM    2  C   UNL     1     -12.209   9.428  71.253  1.00  0.00    -0.345 C  
HETATM    3  C   UNL     1     -12.426  10.895  70.873  1.00  0.00    -0.507 C  
ENDROOT
BRANCH   2   4
HETATM    4  N   UNL     1     -10.775   9.238  71.513  1.00  0.00    -0.357 NA 
HETATM    5  H   UNL     1     -10.265   9.819  72.180  1.00  0.00     0.000 HD 
BRANCH   4   6
HETATM    6  C   UNL     1     -10.115   8.158  70.754  1.00  0.00    -0.189 C  
HETATM    7  C   UNL     1     -11.139   7.306  69.996  1.00  0.00    -0.262 C  
BRANCH   6   8
HETATM    8  C   UNL     1      -9.098   8.741  69.738  1.00  0.00    -0.151 C  
BRANCH   8   9
HETATM    9  C   UNL     1      -8.403   7.706  68.879  1.00  0.00    -0.129 A  
HETATM   10  C   UNL     1      -8.457   7.779  67.481  1.00  0.00    -0.120 A  
HETATM   11  C   UNL     1      -7.797   6.830  66.695  1.00  0.00    -0.107 A  
HETATM   12  C   UNL     1      -7.083   5.799  67.306  1.00  0.00    -0.074 A  
HETATM   13  C   UNL     1      -7.028   5.710  68.697  1.00  0.00    -0.064 A  
HETATM   14  I   UNL     1      -6.092   4.393  66.141  1.00  0.00    -0.033 I  
HETATM   15  C   UNL     1      -7.682   6.662  69.479  1.00  0.00    -0.104 A  
ENDBRANCH   8   9
ENDBRANCH   6   8
ENDBRANCH   4   6
ENDBRANCH   2   4
TORSDOF 4
ENDMDL
MODEL      216
REMARK 921   NORMALIZED FREE ENERGY PREDICTED BY IDOCK:   -2.09 KCAL/MOL
REMARK 922        TOTAL FREE ENERGY PREDICTED BY IDOCK:   -3.35 KCAL/MOL
REMARK 923 INTER-LIGAND FREE ENERGY PREDICTED BY IDOCK:   -3.26 KCAL/MOL
REMARK 924 INTRA-LIGAND FREE ENERGY PREDICTED BY IDOCK:   -0.08 KCAL/MOL
REMARK 927      BINDING AFFINITY PREDICTED BY RF-SCORE:    0.00 PKD
ROOT
HETATM    1  C   UNL     1      -9.509  11.337  64.970  1.00  0.00    -0.237 C  
HETATM    2  C   UNL     1      -9.532   9.807  64.978  1.00  0.00    -0.272 C  
HETATM    3  C   UNL     1      -8.428   9.269  64.064  1.00  0.00    -0.202 C  
ENDROOT
BRANCH   2   4
HETATM    4  N   UNL     1      -9.327   9.236  66.317  1.00  0.00    -0.182 NA 
HETATM    5  H   UNL     1      -8.396   9.134  66.722  1.00  0.00     0.000 HD 
BRANCH   4   6
HETATM    6  C   UNL     1     -10.545   8.821  67.040  1.00  0.00    -0.213 C  
HETATM    7  C   UNL     1     -10.455   7.357  67.485  1.00  0.00    -0.338 C  
BRANCH   6   8
HETATM    8  C   UNL     1     -10.773   9.712  68.289  1.00  0.00    -0.262 C  
BRANCH   8   9
HETATM    9  C   UNL     1     -10.308   9.098  69.593  1.00  0.00    -0.226 A  
HETATM   10  C   UNL     1     -11.193   8.374  70.403  1.00  0.00    -0.220 A  
HETATM   11  C   UNL     1     -10.752   7.795  71.596  1.00  0.00    -0.257 A  
HETATM   12  C   UNL     1      -9.421   7.943  71.987  1.00  0.00    -0.174 A  
HETATM   13  C   UNL     1      -8.530   8.667  71.194  1.00  0.00    -0.211 A  
HETATM   14  I   UNL     1      -8.758   7.073  73.753  1.00  0.00    -0.252 I  
HETATM   15  C   UNL     1      -8.973   9.239  70.001  1.00  0.00    -0.216 A  
ENDBRANCH   8   9
ENDBRANCH   6   8
ENDBRANCH   4   6
ENDBRANCH   2   4
TORSDOF 4
ENDMDL
MODEL      217
REMARK 921   NORMALIZED FREE ENERGY PREDICTED BY IDOCK:   -2.05 KCAL/MOL
REMARK 922        TOTAL FREE ENERGY PREDICTED BY IDOCK:   -3.30 KCAL/MOL
REMARK 923 INTER-LIGAND FREE ENERGY PREDICTED BY IDOCK:   -2.85 KCAL/MOL
REMARK 924 INTRA-LIGAND FREE ENERGY PREDICTED BY IDOCK:   -0.44 KCAL/MOL
REMARK 927      BINDING AFFINITY PREDICTED BY RF-SCORE:    0.00 PKD
ROOT
HETATM    1  C   UNL     1      -5.912  13.759  67.932  1.00  0.00    -0.145 C  
HETATM    2  C   UNL     1      -7.436  13.901  67.920  1.00  0.00    -0.152 C  
HETATM    3  C   UNL     1      -7.856  15.035  68.859  1.00  0.00    -0.162 C  
ENDROOT
BRANCH   2   4
HETATM    4  N   UNL     1      -7.974  14.200  66.585  1.00  0.00    -0.187 NA 
HETATM    5  H   UNL     1      -7.378  14.230  65.757  1.00  0.00     0.000 HD 
BRANCH   4   6
HETATM    6  C   UNL     1      -9.427  14.452  66.512  1.00  0.00    -0.289 C  
HETATM    7  C   UNL     1      -9.728  15.743  65.742  1.00  0.00    -0.372 C  
BRANCH   6   8
HETATM    8  C   UNL     1     -10.156  13.272  65.816  1.00  0.00    -0.293 C  
BRANCH   8   9
HETATM    9  C   UNL     1      -9.763  11.901  66.326  1.00  0.00    -0.247 A  
HETATM   10  C   UNL     1     -10.104  11.491  67.622  1.00  0.00    -0.202 A  
HETATM   11  C   UNL     1      -9.754  10.218  68.078  1.00  0.00    -0.167 A  
HETATM   12  C   UNL     1      -9.054   9.349  67.241  1.00  0.00    -0.133 A  
HETATM   13  C   UNL     1      -8.701   9.747  65.951  1.00  0.00    -0.156 A  
HETATM   14  I   UNL     1      -8.542   7.451  67.911  1.00  0.00    -0.121 I  
HETATM   15  C   UNL     1      -9.057  11.017  65.496  1.00  0.00    -0.225 A  
ENDBRANCH   8   9
ENDBRANCH   6   8
ENDBRANCH   4   6
ENDBRANCH   2   4
TORSDOF 4
ENDMDL
MODEL      218
REMARK 921   NORMALIZED FREE ENERGY PREDICTED BY IDOCK:   -2.03 KCAL/MOL
REMARK 922        TOTAL FREE ENERGY PREDICTED BY IDOCK:   -3.27 KCAL/MOL
REMARK 923 INTER-LIGAND FREE ENERGY PREDICTED BY IDOCK:   -2.79 KCAL/MOL
REMARK 924 INTRA-LIGAND FREE ENERGY PREDICTED BY IDOCK:   -0.48 KCAL/MOL
REMARK 927      BINDING AFFINITY PREDICTED BY RF-SCORE:    0.00 PKD
ROOT
HETATM    1  C   UNL     1      -6.111   8.270  64.316  1.00  0.00    -0.065 C  
HETATM    2  C   UNL     1      -7.030   7.298  65.059  1.00  0.00    -0.055 C  
HETATM    3  C   UNL     1      -6.630   5.857  64.730  1.00  0.00    -0.042 C  
ENDROOT
BRANCH   2   4
HETATM    4  N   UNL     1      -6.975   7.459  66.519  1.00  0.00    -0.068 NA 
HETATM    5  H   UNL     1      -6.130   7.256  67.053  1.00  0.00     0.000 HD 
BRANCH   4   6
HETATM    6  C   UNL     1      -8.214   7.932  67.167  1.00  0.00    -0.118 C  
HETATM    7  C   UNL     1      -8.411   7.271  68.536  1.00  0.00    -0.125 C  
BRANCH   6   8
HETATM    8  C   UNL     1      -8.184   9.472  67.354  1.00  0.00    -0.114 C  
BRANCH   8   9
HETATM    9  C   UNL     1      -9.168  10.230  66.488  1.00  0.00    -0.179 A  
HETATM   10  C   UNL     1     -10.167  11.026  67.064  1.00  0.00    -0.250 A  
HETATM   11  C   UNL     1     -11.060  11.737  66.257  1.00  0.00    -0.364 A  
HETATM   12  C   UNL     1     -10.961  11.650  64.869  1.00  0.00    -0.284 A  
HETATM   13  C   UNL     1      -9.976  10.854  64.282  1.00  0.00    -0.392 A  
HETATM   14  I   UNL     1     -12.279  12.714  63.667  1.00  0.00    -0.490 I  
HETATM   15  C   UNL     1      -9.082  10.151  65.090  1.00  0.00    -0.242 A  
ENDBRANCH   8   9
ENDBRANCH   6   8
ENDBRANCH   4   6
ENDBRANCH   2   4
TORSDOF 4
ENDMDL
MODEL      219
REMARK 921   NORMALIZED FREE ENERGY PREDICTED BY IDOCK:   -2.01 KCAL/MOL
REMARK 922        TOTAL FREE ENERGY PREDICTED BY IDOCK:   -3.25 KCAL/MOL
REMARK 923 INTER-LIGAND FREE ENERGY PREDICTED BY IDOCK:   -2.58 KCAL/MOL
REMARK 924 INTRA-LIGAND FREE ENERGY PREDICTED BY IDOCK:   -0.67 KCAL/MOL
REMARK 927      BINDING AFFINITY PREDICTED BY RF-SCORE:    0.00 PKD
ROOT
HETATM    1  C   UNL     1      -7.477  10.214  66.815  1.00  0.00    -0.104 C  
HETATM    2  C   UNL     1      -8.714   9.962  65.949  1.00  0.00    -0.139 C  
HETATM    3  C   UNL     1      -8.677   8.533  65.402  1.00  0.00    -0.194 C  
ENDROOT
BRANCH   2   4
HETATM    4  N   UNL     1      -9.974  10.130  66.686  1.00  0.00    -0.206 NA 
HETATM    5  H   UNL     1     -10.878  10.153  66.213  1.00  0.00     0.000 HD 
BRANCH   4   6
HETATM    6  C   UNL     1      -9.857  10.262  68.152  1.00  0.00    -0.148 C  
HETATM    7  C   UNL     1     -10.092  11.709  68.599  1.00  0.00    -0.206 C  
BRANCH   6   8
HETATM    8  C   UNL     1     -10.879   9.343  68.871  1.00  0.00    -0.151 C  
BRANCH   8   9
HETATM    9  C   UNL     1     -10.325   8.003  69.304  1.00  0.00    -0.224 A  
HETATM   10  C   UNL     1      -8.948   7.744  69.255  1.00  0.00    -0.139 A  
HETATM   11  C   UNL     1      -8.443   6.511  69.674  1.00  0.00    -0.131 A  
HETATM   12  C   UNL     1      -9.314   5.526  70.141  1.00  0.00    -0.146 A  
HETATM   13  C   UNL     1     -10.688   5.768  70.188  1.00  0.00    -0.390 A  
HETATM   14  I   UNL     1      -8.565   3.696  70.776  1.00  0.00    -0.146 I  
HETATM   15  C   UNL     1     -11.189   7.002  69.774  1.00  0.00    -0.257 A  
ENDBRANCH   8   9
ENDBRANCH   6   8
ENDBRANCH   4   6
ENDBRANCH   2   4
TORSDOF 4
ENDMDL
MODEL      220
REMARK 921   NORMALIZED FREE ENERGY PREDICTED BY IDOCK:   -2.01 KCAL/MOL
REMARK 922        TOTAL FREE ENERGY PREDICTED BY IDOCK:   -3.24 KCAL/MOL
REMARK 923 INTER-LIGAND FREE ENERGY PREDICTED BY IDOCK:   -4.89 KCAL/MOL
REMARK 924 INTRA-LIGAND FREE ENERGY PREDICTED BY IDOCK:    1.65 KCAL/MOL
REMARK 927      BINDING AFFINITY PREDICTED BY RF-SCORE:    0.00 PKD
ROOT
HETATM    1  C   UNL     1     -11.946   6.900  70.899  1.00  0.00    -0.430 C  
HETATM    2  C   UNL     1     -12.012   7.639  72.238  1.00  0.00    -0.285 C  
HETATM    3  C   UNL     1     -10.621   7.670  72.878  1.00  0.00    -0.411 C  
ENDROOT
BRANCH   2   4
HETATM    4  N   UNL     1     -12.479   9.026  72.106  1.00  0.00    -0.379 NA 
HETATM    5  H   UNL     1     -13.360   9.340  72.513  1.00  0.00     0.000 HD 
BRANCH   4   6
HETATM    6  C   UNL     1     -11.598   9.938  71.351  1.00  0.00    -0.352 C  
HETATM    7  C   UNL     1     -10.370   9.200  70.806  1.00  0.00    -0.323 C  
BRANCH   6   8
HETATM    8  C   UNL     1     -12.361  10.583  70.164  1.00  0.00    -0.339 C  
BRANCH   8   9
HETATM    9  C   UNL     1     -11.929  11.996  69.831  1.00  0.00    -0.391 A  
HETATM   10  C   UNL     1     -11.073  12.250  68.752  1.00  0.00    -0.295 A  
HETATM   11  C   UNL     1     -10.694  13.559  68.440  1.00  0.00    -0.273 A  
HETATM   12  C   UNL     1     -11.166  14.620  69.212  1.00  0.00    -0.282 A  
HETATM   13  C   UNL     1     -12.014  14.381  70.294  1.00  0.00    -0.388 A  
HETATM   14  I   UNL     1     -10.615  16.568  68.745  1.00  0.00    -0.351 I  
HETATM   15  C   UNL     1     -12.395  13.074  70.599  1.00  0.00    -0.391 A  
ENDBRANCH   8   9
ENDBRANCH   6   8
ENDBRANCH   4   6
ENDBRANCH   2   4
TORSDOF 4
ENDMDL
MODEL      221
REMARK 921   NORMALIZED FREE ENERGY PREDICTED BY IDOCK:   -2.00 KCAL/MOL
REMARK 922        TOTAL FREE ENERGY PREDICTED BY IDOCK:   -3.23 KCAL/MOL
REMARK 923 INTER-LIGAND FREE ENERGY PREDICTED BY IDOCK:   -3.05 KCAL/MOL
REMARK 924 INTRA-LIGAND FREE ENERGY PREDICTED BY IDOCK:   -0.18 KCAL/MOL
REMARK 927      BINDING AFFINITY PREDICTED BY RF-SCORE:    0.00 PKD
ROOT
HETATM    1  C   UNL     1      -9.272   3.435  66.752  1.00  0.00    -0.194 C  
HETATM    2  C   UNL     1      -8.375   4.345  67.593  1.00  0.00    -0.099 C  
HETATM    3  C   UNL     1      -7.064   4.609  66.847  1.00  0.00    -0.075 C  
ENDROOT
BRANCH   2   4
HETATM    4  N   UNL     1      -8.994   5.644  67.892  1.00  0.00    -0.109 NA 
HETATM    5  H   UNL     1      -8.437   6.488  68.030  1.00  0.00     0.000 HD 
BRANCH   4   6
HETATM    6  C   UNL     1     -10.467   5.657  67.980  1.00  0.00    -0.200 C  
HETATM    7  C   UNL     1     -10.936   5.920  69.415  1.00  0.00    -0.421 C  
BRANCH   6   8
HETATM    8  C   UNL     1     -11.065   6.746  67.050  1.00  0.00    -0.369 C  
BRANCH   8   9
HETATM    9  C   UNL     1     -10.399   8.102  67.161  1.00  0.00    -0.391 A  
HETATM   10  C   UNL     1      -9.630   8.613  66.107  1.00  0.00    -0.305 A  
HETATM   11  C   UNL     1      -9.034   9.873  66.210  1.00  0.00    -0.169 A  
HETATM   12  C   UNL     1      -9.202  10.626  67.372  1.00  0.00    -0.143 A  
HETATM   13  C   UNL     1      -9.960  10.126  68.432  1.00  0.00    -0.173 A  
HETATM   14  I   UNL     1      -8.329  12.505  67.525  1.00  0.00    -0.201 I  
HETATM   15  C   UNL     1     -10.558   8.870  68.324  1.00  0.00    -0.203 A  
ENDBRANCH   8   9
ENDBRANCH   6   8
ENDBRANCH   4   6
ENDBRANCH   2   4
TORSDOF 4
ENDMDL
MODEL      222
REMARK 921   NORMALIZED FREE ENERGY PREDICTED BY IDOCK:   -2.00 KCAL/MOL
REMARK 922        TOTAL FREE ENERGY PREDICTED BY IDOCK:   -3.23 KCAL/MOL
REMARK 923 INTER-LIGAND FREE ENERGY PREDICTED BY IDOCK:   -3.24 KCAL/MOL
REMARK 924 INTRA-LIGAND FREE ENERGY PREDICTED BY IDOCK:    0.01 KCAL/MOL
REMARK 927      BINDING AFFINITY PREDICTED BY RF-SCORE:    0.00 PKD
ROOT
HETATM    1  C   UNL     1      -6.426   7.795  65.437  1.00  0.00    -0.041 C  
HETATM    2  C   UNL     1      -6.926   8.635  64.260  1.00  0.00    -0.081 C  
HETATM    3  C   UNL     1      -7.911   7.815  63.423  1.00  0.00    -0.131 C  
ENDROOT
BRANCH   2   4
HETATM    4  N   UNL     1      -7.610   9.866  64.683  1.00  0.00    -0.135 NA 
HETATM    5  H   UNL     1      -7.482  10.750  64.190  1.00  0.00     0.000 HD 
BRANCH   4   6
HETATM    6  C   UNL     1      -8.491   9.747  65.861  1.00  0.00    -0.128 C  
HETATM    7  C   UNL     1      -7.912  10.498  67.065  1.00  0.00    -0.118 C  
BRANCH   6   8
HETATM    8  C   UNL     1      -9.903  10.311  65.550  1.00  0.00    -0.347 C  
BRANCH   8   9
HETATM    9  C   UNL     1     -10.478  11.199  66.634  1.00  0.00    -0.298 A  
HETATM   10  C   UNL     1     -11.188  10.651  67.710  1.00  0.00    -0.383 A  
HETATM   11  C   UNL     1     -11.700  11.476  68.716  1.00  0.00    -0.397 A  
HETATM   12  C   UNL     1     -11.508  12.856  68.645  1.00  0.00    -0.308 A  
HETATM   13  C   UNL     1     -10.811  13.415  67.574  1.00  0.00    -0.276 A  
HETATM   14  I   UNL     1     -12.258  14.084  70.143  1.00  0.00    -0.339 I  
HETATM   15  C   UNL     1     -10.296  12.589  66.575  1.00  0.00    -0.254 A  
ENDBRANCH   8   9
ENDBRANCH   6   8
ENDBRANCH   4   6
ENDBRANCH   2   4
TORSDOF 4
ENDMDL
MODEL      223
REMARK 921   NORMALIZED FREE ENERGY PREDICTED BY IDOCK:   -1.99 KCAL/MOL
REMARK 922        TOTAL FREE ENERGY PREDICTED BY IDOCK:   -3.21 KCAL/MOL
REMARK 923 INTER-LIGAND FREE ENERGY PREDICTED BY IDOCK:   -2.82 KCAL/MOL
REMARK 924 INTRA-LIGAND FREE ENERGY PREDICTED BY IDOCK:   -0.39 KCAL/MOL
REMARK 927      BINDING AFFINITY PREDICTED BY RF-SCORE:    0.00 PKD
ROOT
HETATM    1  C   UNL     1      -8.678  10.738  68.370  1.00  0.00    -0.142 C  
HETATM    2  C   UNL     1      -8.867   9.248  68.663  1.00  0.00    -0.132 C  
HETATM    3  C   UNL     1      -7.996   8.843  69.855  1.00  0.00    -0.108 C  
ENDROOT
BRANCH   2   4
HETATM    4  N   UNL     1     -10.259   8.898  68.982  1.00  0.00    -0.201 NA 
HETATM    5  H   UNL     1     -11.043   9.476  68.678  1.00  0.00     0.000 HD 
BRANCH   4   6
HETATM    6  C   UNL     1     -10.454   7.664  69.766  1.00  0.00    -0.232 C  
HETATM    7  C   UNL     1     -11.125   7.961  71.112  1.00  0.00    -0.278 C  
BRANCH   6   8
HETATM    8  C   UNL     1     -11.329   6.648  68.985  1.00  0.00    -0.235 C  
BRANCH   8   9
HETATM    9  C   UNL     1     -10.556   5.514  68.345  1.00  0.00    -0.210 A  
HETATM   10  C   UNL     1     -10.520   5.364  66.952  1.00  0.00    -0.337 A  
HETATM   11  C   UNL     1      -9.789   4.326  66.369  1.00  0.00    -0.236 A  
HETATM   12  C   UNL     1      -9.095   3.426  67.178  1.00  0.00    -0.173 A  
HETATM   13  C   UNL     1      -9.129   3.559  68.567  1.00  0.00    -0.202 A  
HETATM   14  I   UNL     1      -7.998   1.888  66.315  1.00  0.00    -0.088 I  
HETATM   15  C   UNL     1      -9.854   4.600  69.146  1.00  0.00    -0.242 A  
ENDBRANCH   8   9
ENDBRANCH   6   8
ENDBRANCH   4   6
ENDBRANCH   2   4
TORSDOF 4
ENDMDL
MODEL      224
REMARK 921   NORMALIZED FREE ENERGY PREDICTED BY IDOCK:   -1.96 KCAL/MOL
REMARK 922        TOTAL FREE ENERGY PREDICTED BY IDOCK:   -3.18 KCAL/MOL
REMARK 923 INTER-LIGAND FREE ENERGY PREDICTED BY IDOCK:   -3.18 KCAL/MOL
REMARK 924 INTRA-LIGAND FREE ENERGY PREDICTED BY IDOCK:    0.00 KCAL/MOL
REMARK 927      BINDING AFFINITY PREDICTED BY RF-SCORE:    0.00 PKD
ROOT
HETATM    1  C   UNL     1      -9.886   4.892  67.634  1.00  0.00    -0.205 C  
HETATM    2  C   UNL     1      -9.299   4.996  66.225  1.00  0.00    -0.149 C  
HETATM    3  C   UNL     1     -10.085   4.093  65.271  1.00  0.00    -0.213 C  
ENDROOT
BRANCH   2   4
HETATM    4  N   UNL     1      -9.337   6.363  65.686  1.00  0.00    -0.377 NA 
HETATM    5  H   UNL     1     -10.193   6.918  65.682  1.00  0.00     0.000 HD 
BRANCH   4   6
HETATM    6  C   UNL     1      -8.065   6.885  65.151  1.00  0.00    -0.132 C  
HETATM    7  C   UNL     1      -7.651   6.142  63.875  1.00  0.00    -0.089 C  
BRANCH   6   8
HETATM    8  C   UNL     1      -8.182   8.399  64.833  1.00  0.00    -0.155 C  
BRANCH   8   9
HETATM    9  C   UNL     1      -8.996   9.192  65.834  1.00  0.00    -0.231 A  
HETATM   10  C   UNL     1      -9.870  10.202  65.411  1.00  0.00    -0.375 A  
HETATM   11  C   UNL     1     -10.631  10.916  66.341  1.00  0.00    -0.289 A  
HETATM   12  C   UNL     1     -10.516  10.626  67.700  1.00  0.00    -0.227 A  
HETATM   13  C   UNL     1      -9.644   9.628  68.136  1.00  0.00    -0.159 A  
HETATM   14  I   UNL     1     -11.655  11.677  69.084  1.00  0.00    -0.440 I  
HETATM   15  C   UNL     1      -8.890   8.912  67.205  1.00  0.00    -0.137 A  
ENDBRANCH   8   9
ENDBRANCH   6   8
ENDBRANCH   4   6
ENDBRANCH   2   4
TORSDOF 4
ENDMDL
MODEL      225
REMARK 921   NORMALIZED FREE ENERGY PREDICTED BY IDOCK:   -1.95 KCAL/MOL
REMARK 922        TOTAL FREE ENERGY PREDICTED BY IDOCK:   -3.17 KCAL/MOL
REMARK 923 INTER-LIGAND FREE ENERGY PREDICTED BY IDOCK:   -2.82 KCAL/MOL
REMARK 924 INTRA-LIGAND FREE ENERGY PREDICTED BY IDOCK:   -0.35 KCAL/MOL
REMARK 927      BINDING AFFINITY PREDICTED BY RF-SCORE:    0.00 PKD
ROOT
HETATM    1  C   UNL     1     -12.817  15.536  72.757  1.00  0.00    -0.539 C  
HETATM    2  C   UNL     1     -12.628  14.388  71.764  1.00  0.00    -0.351 C  
HETATM    3  C   UNL     1     -13.658  13.289  72.043  1.00  0.00    -0.573 C  
ENDROOT
BRANCH   2   4
HETATM    4  N   UNL     1     -12.786  14.808  70.364  1.00  0.00    -0.488 NA 
HETATM    5  H   UNL     1     -13.546  15.421  70.067  1.00  0.00     0.000 HD 
BRANCH   4   6
HETATM    6  C   UNL     1     -11.781  14.291  69.414  1.00  0.00    -0.316 C  
HETATM    7  C   UNL     1     -12.306  14.332  67.974  1.00  0.00    -0.007 C  
BRANCH   6   8
HETATM    8  C   UNL     1     -10.472  15.120  69.494  1.00  0.00    -0.268 C  
BRANCH   8   9
HETATM    9  C   UNL     1      -9.241  14.401  68.983  1.00  0.00    -0.014 A  
HETATM   10  C   UNL     1      -8.103  15.117  68.587  1.00  0.00    -0.154 A  
HETATM   11  C   UNL     1      -6.964  14.445  68.134  1.00  0.00    -0.126 A  
HETATM   12  C   UNL     1      -6.960  13.052  68.071  1.00  0.00    -0.112 A  
HETATM   13  C   UNL     1      -8.089  12.327  68.456  1.00  0.00    -0.101 A  
HETATM   14  I   UNL     1      -5.265  12.049  67.410  1.00  0.00    -0.070 I  
HETATM   15  C   UNL     1      -9.222  13.000  68.912  1.00  0.00     0.297 A  
ENDBRANCH   8   9
ENDBRANCH   6   8
ENDBRANCH   4   6
ENDBRANCH   2   4
TORSDOF 4
ENDMDL
MODEL      226
REMARK 921   NORMALIZED FREE ENERGY PREDICTED BY IDOCK:   -1.94 KCAL/MOL
REMARK 922        TOTAL FREE ENERGY PREDICTED BY IDOCK:   -3.15 KCAL/MOL
REMARK 923 INTER-LIGAND FREE ENERGY PREDICTED BY IDOCK:   -2.63 KCAL/MOL
REMARK 924 INTRA-LIGAND FREE ENERGY PREDICTED BY IDOCK:   -0.52 KCAL/MOL
REMARK 927      BINDING AFFINITY PREDICTED BY RF-SCORE:    0.00 PKD
ROOT
HETATM    1  C   UNL     1      -9.626   4.471  65.593  1.00  0.00    -0.191 C  
HETATM    2  C   UNL     1      -9.598   5.783  66.380  1.00  0.00    -0.153 C  
HETATM    3  C   UNL     1     -11.005   6.108  66.890  1.00  0.00    -0.384 C  
ENDROOT
BRANCH   2   4
HETATM    4  N   UNL     1      -8.698   5.738  67.541  1.00  0.00    -0.109 NA 
HETATM    5  H   UNL     1      -8.606   4.903  68.120  1.00  0.00     0.000 HD 
BRANCH   4   6
HETATM    6  C   UNL     1      -7.934   6.970  67.819  1.00  0.00    -0.114 C  
HETATM    7  C   UNL     1      -7.886   7.883  66.589  1.00  0.00    -0.102 C  
BRANCH   6   8
HETATM    8  C   UNL     1      -8.565   7.753  69.000  1.00  0.00    -0.135 C  
BRANCH   8   9
HETATM    9  C   UNL     1      -9.047   6.887  70.144  1.00  0.00    -0.152 A  
HETATM   10  C   UNL     1      -8.144   6.132  70.905  1.00  0.00    -0.121 A  
HETATM   11  C   UNL     1      -8.596   5.350  71.971  1.00  0.00    -0.131 A  
HETATM   12  C   UNL     1      -9.956   5.314  72.278  1.00  0.00    -0.177 A  
HETATM   13  C   UNL     1     -10.867   6.054  71.523  1.00  0.00    -0.322 A  
HETATM   14  I   UNL     1     -10.630   4.160  73.869  1.00  0.00    -0.304 I  
HETATM   15  C   UNL     1     -10.413   6.839  70.464  1.00  0.00    -0.238 A  
ENDBRANCH   8   9
ENDBRANCH   6   8
ENDBRANCH   4   6
ENDBRANCH   2   4
TORSDOF 4
ENDMDL
MODEL      227
REMARK 921   NORMALIZED FREE ENERGY PREDICTED BY IDOCK:   -1.92 KCAL/MOL
REMARK 922        TOTAL FREE ENERGY PREDICTED BY IDOCK:   -3.13 KCAL/MOL
REMARK 923 INTER-LIGAND FREE ENERGY PREDICTED BY IDOCK:   -2.91 KCAL/MOL
REMARK 924 INTRA-LIGAND FREE ENERGY PREDICTED BY IDOCK:   -0.22 KCAL/MOL
REMARK 927      BINDING AFFINITY PREDICTED BY RF-SCORE:    0.00 PKD
ROOT
HETATM    1  C   UNL     1     -11.968  12.534  69.742  1.00  0.00    -0.359 C  
HETATM    2  C   UNL     1     -10.820  12.928  68.810  1.00  0.00    -0.242 C  
HETATM    3  C   UNL     1     -10.600  14.442  68.875  1.00  0.00    -0.250 C  
ENDROOT
BRANCH   2   4
HETATM    4  N   UNL     1      -9.551  12.273  69.154  1.00  0.00    -0.227 NA 
HETATM    5  H   UNL     1      -8.872  12.706  69.782  1.00  0.00     0.000 HD 
BRANCH   4   6
HETATM    6  C   UNL     1      -9.315  10.951  68.540  1.00  0.00    -0.181 C  
HETATM    7  C   UNL     1      -9.763   9.819  69.471  1.00  0.00    -0.228 C  
BRANCH   6   8
HETATM    8  C   UNL     1     -10.076  10.826  67.195  1.00  0.00    -0.243 C  
BRANCH   8   9
HETATM    9  C   UNL     1      -9.316  10.098  66.106  1.00  0.00    -0.217 A  
HETATM   10  C   UNL     1      -9.327  10.567  64.786  1.00  0.00    -0.285 A  
HETATM   11  C   UNL     1      -8.607   9.900  63.791  1.00  0.00    -0.205 A  
HETATM   12  C   UNL     1      -7.876   8.756  64.112  1.00  0.00    -0.139 A  
HETATM   13  C   UNL     1      -7.863   8.274  65.421  1.00  0.00    -0.113 A  
HETATM   14  I   UNL     1      -6.796   7.768  62.638  1.00  0.00    -0.085 I  
HETATM   15  C   UNL     1      -8.578   8.945  66.414  1.00  0.00    -0.136 A  
ENDBRANCH   8   9
ENDBRANCH   6   8
ENDBRANCH   4   6
ENDBRANCH   2   4
TORSDOF 4
ENDMDL
MODEL      228
REMARK 921   NORMALIZED FREE ENERGY PREDICTED BY IDOCK:   -1.92 KCAL/MOL
REMARK 922        TOTAL FREE ENERGY PREDICTED BY IDOCK:   -3.13 KCAL/MOL
REMARK 923 INTER-LIGAND FREE ENERGY PREDICTED BY IDOCK:   -2.99 KCAL/MOL
REMARK 924 INTRA-LIGAND FREE ENERGY PREDICTED BY IDOCK:   -0.14 KCAL/MOL
REMARK 927      BINDING AFFINITY PREDICTED BY RF-SCORE:    0.00 PKD
ROOT
HETATM    1  C   UNL     1      -8.952  13.871  66.981  1.00  0.00    -0.251 C  
HETATM    2  C   UNL     1      -9.487  13.278  68.286  1.00  0.00    -0.209 C  
HETATM    3  C   UNL     1     -10.954  13.678  68.471  1.00  0.00    -0.289 C  
ENDROOT
BRANCH   2   4
HETATM    4  N   UNL     1      -9.412  11.811  68.324  1.00  0.00    -0.190 NA 
HETATM    5  H   UNL     1      -8.903  11.316  69.056  1.00  0.00     0.000 HD 
BRANCH   4   6
HETATM    6  C   UNL     1     -10.115  11.097  67.241  1.00  0.00    -0.188 C  
HETATM    7  C   UNL     1      -9.124  10.473  66.251  1.00  0.00    -0.184 C  
BRANCH   6   8
HETATM    8  C   UNL     1     -11.019   9.975  67.818  1.00  0.00    -0.310 C  
BRANCH   8   9
HETATM    9  C   UNL     1     -10.350   8.621  67.926  1.00  0.00    -0.286 A  
HETATM   10  C   UNL     1     -10.653   7.595  67.021  1.00  0.00    -0.406 A  
HETATM   11  C   UNL     1     -10.017   6.354  67.117  1.00  0.00    -0.197 A  
HETATM   12  C   UNL     1      -9.078   6.132  68.125  1.00  0.00    -0.111 A  
HETATM   13  C   UNL     1      -8.773   7.142  69.038  1.00  0.00    -0.132 A  
HETATM   14  I   UNL     1      -8.123   4.293  68.264  1.00  0.00    -0.089 I  
HETATM   15  C   UNL     1      -9.405   8.382  68.936  1.00  0.00    -0.147 A  
ENDBRANCH   8   9
ENDBRANCH   6   8
ENDBRANCH   4   6
ENDBRANCH   2   4
TORSDOF 4
ENDMDL
MODEL      229
REMARK 921   NORMALIZED FREE ENERGY PREDICTED BY IDOCK:   -1.89 KCAL/MOL
REMARK 922        TOTAL FREE ENERGY PREDICTED BY IDOCK:   -3.10 KCAL/MOL
REMARK 923 INTER-LIGAND FREE ENERGY PREDICTED BY IDOCK:   -3.00 KCAL/MOL
REMARK 924 INTRA-LIGAND FREE ENERGY PREDICTED BY IDOCK:   -0.10 KCAL/MOL
REMARK 927      BINDING AFFINITY PREDICTED BY RF-SCORE:    0.00 PKD
ROOT
HETATM    1  C   UNL     1     -10.189   3.739  63.873  1.00  0.00    -0.225 C  
HETATM    2  C   UNL     1      -9.517   3.127  65.104  1.00  0.00    -0.122 C  
HETATM    3  C   UNL     1      -8.558   2.015  64.667  1.00  0.00    -0.098 C  
ENDROOT
BRANCH   2   4
HETATM    4  N   UNL     1      -8.746   4.106  65.884  1.00  0.00    -0.114 NA 
HETATM    5  H   UNL     1      -8.609   5.064  65.562  1.00  0.00     0.000 HD 
BRANCH   4   6
HETATM    6  C   UNL     1      -8.183   3.621  67.159  1.00  0.00    -0.091 C  
HETATM    7  C   UNL     1      -7.303   4.688  67.819  1.00  0.00    -0.073 C  
BRANCH   6   8
HETATM    8  C   UNL     1      -9.315   3.225  68.145  1.00  0.00    -0.244 C  
BRANCH   8   9
HETATM    9  C   UNL     1      -9.866   4.373  68.964  1.00  0.00    -0.182 A  
HETATM   10  C   UNL     1     -10.350   5.532  68.342  1.00  0.00    -0.243 A  
HETATM   11  C   UNL     1     -10.875   6.579  69.104  1.00  0.00    -0.354 A  
HETATM   12  C   UNL     1     -10.912   6.474  70.495  1.00  0.00    -0.294 A  
HETATM   13  C   UNL     1     -10.427   5.329  71.127  1.00  0.00    -0.275 A  
HETATM   14  I   UNL     1     -11.702   8.024  71.630  1.00  0.00    -0.414 I  
HETATM   15  C   UNL     1      -9.909   4.283  70.363  1.00  0.00    -0.268 A  
ENDBRANCH   8   9
ENDBRANCH   6   8
ENDBRANCH   4   6
ENDBRANCH   2   4
TORSDOF 4
ENDMDL
MODEL      230
REMARK 921   NORMALIZED FREE ENERGY PREDICTED BY IDOCK:   -1.88 KCAL/MOL
REMARK 922        TOTAL FREE ENERGY PREDICTED BY IDOCK:   -3.08 KCAL/MOL
REMARK 923 INTER-LIGAND FREE ENERGY PREDICTED BY IDOCK:   -2.90 KCAL/MOL
REMARK 924 INTRA-LIGAND FREE ENERGY PREDICTED BY IDOCK:   -0.19 KCAL/MOL
REMARK 927      BINDING AFFINITY PREDICTED BY RF-SCORE:    0.00 PKD
ROOT
HETATM    1  C   UNL     1      -6.412   3.497  66.730  1.00  0.00    -0.040 C  
HETATM    2  C   UNL     1      -7.567   2.995  67.599  1.00  0.00    -0.061 C  
HETATM    3  C   UNL     1      -7.031   2.033  68.663  1.00  0.00    -0.039 C  
ENDROOT
BRANCH   2   4
HETATM    4  N   UNL     1      -8.279   4.080  68.289  1.00  0.00    -0.090 NA 
HETATM    5  H   UNL     1      -8.724   4.843  67.779  1.00  0.00     0.000 HD 
BRANCH   4   6
HETATM    6  C   UNL     1      -8.314   3.999  69.763  1.00  0.00    -0.060 C  
HETATM    7  C   UNL     1      -7.730   5.264  70.402  1.00  0.00    -0.076 C  
BRANCH   6   8
HETATM    8  C   UNL     1      -9.768   3.807  70.269  1.00  0.00    -0.222 C  
BRANCH   8   9
HETATM    9  C   UNL     1     -10.486   5.093  70.622  1.00  0.00    -0.269 A  
HETATM   10  C   UNL     1     -10.899   5.984  69.623  1.00  0.00    -0.439 A  
HETATM   11  C   UNL     1     -11.577   7.159  69.957  1.00  0.00    -0.153 A  
HETATM   12  C   UNL     1     -11.841   7.451  71.295  1.00  0.00    -0.301 A  
HETATM   13  C   UNL     1     -11.428   6.577  72.301  1.00  0.00    -0.326 A  
HETATM   14  I   UNL     1     -12.859   9.192  71.795  1.00  0.00    -0.538 I  
HETATM   15  C   UNL     1     -10.757   5.401  71.964  1.00  0.00    -0.281 A  
ENDBRANCH   8   9
ENDBRANCH   6   8
ENDBRANCH   4   6
ENDBRANCH   2   4
TORSDOF 4
ENDMDL
MODEL      231
REMARK 921   NORMALIZED FREE ENERGY PREDICTED BY IDOCK:   -1.88 KCAL/MOL
REMARK 922        TOTAL FREE ENERGY PREDICTED BY IDOCK:   -3.08 KCAL/MOL
REMARK 923 INTER-LIGAND FREE ENERGY PREDICTED BY IDOCK:   -2.17 KCAL/MOL
REMARK 924 INTRA-LIGAND FREE ENERGY PREDICTED BY IDOCK:   -0.90 KCAL/MOL
REMARK 927      BINDING AFFINITY PREDICTED BY RF-SCORE:    0.00 PKD
ROOT
HETATM    1  C   UNL     1     -10.176   7.361  66.641  1.00  0.00    -0.247 C  
HETATM    2  C   UNL     1     -10.175   8.877  66.431  1.00  0.00    -0.203 C  
HETATM    3  C   UNL     1     -10.778   9.568  67.657  1.00  0.00    -0.314 C  
ENDROOT
BRANCH   2   4
HETATM    4  N   UNL     1      -8.828   9.427  66.220  1.00  0.00    -0.142 NA 
HETATM    5  H   UNL     1      -8.665  10.427  66.106  1.00  0.00     0.000 HD 
BRANCH   4   6
HETATM    6  C   UNL     1      -7.726   8.446  66.184  1.00  0.00    -0.097 C  
HETATM    7  C   UNL     1      -6.941   8.540  64.871  1.00  0.00    -0.072 C  
BRANCH   6   8
HETATM    8  C   UNL     1      -6.749   8.673  67.368  1.00  0.00    -0.063 C  
BRANCH   8   9
HETATM    9  C   UNL     1      -7.344   8.407  68.735  1.00  0.00    -0.087 A  
HETATM   10  C   UNL     1      -7.586   7.098  69.171  1.00  0.00    -0.099 A  
HETATM   11  C   UNL     1      -8.119   6.860  70.441  1.00  0.00    -0.116 A  
HETATM   12  C   UNL     1      -8.418   7.934  71.280  1.00  0.00    -0.117 A  
HETATM   13  C   UNL     1      -8.189   9.243  70.855  1.00  0.00    -0.179 A  
HETATM   14  I   UNL     1      -9.199   7.585  73.173  1.00  0.00    -0.334 I  
HETATM   15  C   UNL     1      -7.652   9.477  69.589  1.00  0.00    -0.103 A  
ENDBRANCH   8   9
ENDBRANCH   6   8
ENDBRANCH   4   6
ENDBRANCH   2   4
TORSDOF 4
ENDMDL
MODEL      232
REMARK 921   NORMALIZED FREE ENERGY PREDICTED BY IDOCK:   -1.87 KCAL/MOL
REMARK 922        TOTAL FREE ENERGY PREDICTED BY IDOCK:   -3.08 KCAL/MOL
REMARK 923 INTER-LIGAND FREE ENERGY PREDICTED BY IDOCK:   -2.96 KCAL/MOL
REMARK 924 INTRA-LIGAND FREE ENERGY PREDICTED BY IDOCK:   -0.12 KCAL/MOL
REMARK 927      BINDING AFFINITY PREDICTED BY RF-SCORE:    0.00 PKD
ROOT
HETATM    1  C   UNL     1      -9.925  13.700  67.172  1.00  0.00    -0.247 C  
HETATM    2  C   UNL     1     -11.237  13.259  67.825  1.00  0.00    -0.280 C  
HETATM    3  C   UNL     1     -12.418  13.682  66.947  1.00  0.00    -0.189 C  
ENDROOT
BRANCH   2   4
HETATM    4  N   UNL     1     -11.320  11.805  68.021  1.00  0.00    -0.263 NA 
HETATM    5  H   UNL     1     -11.865  11.207  67.400  1.00  0.00     0.000 HD 
BRANCH   4   6
HETATM    6  C   UNL     1     -10.568  11.260  69.169  1.00  0.00    -0.187 C  
HETATM    7  C   UNL     1     -11.392  10.212  69.925  1.00  0.00    -0.335 C  
BRANCH   6   8
HETATM    8  C   UNL     1      -9.240  10.610  68.698  1.00  0.00    -0.181 C  
BRANCH   8   9
HETATM    9  C   UNL     1      -9.341   9.133  68.380  1.00  0.00    -0.139 A  
HETATM   10  C   UNL     1      -9.985   8.691  67.217  1.00  0.00    -0.282 A  
HETATM   11  C   UNL     1     -10.058   7.328  66.920  1.00  0.00    -0.317 A  
HETATM   12  C   UNL     1      -9.489   6.398  67.792  1.00  0.00    -0.115 A  
HETATM   13  C   UNL     1      -8.852   6.824  68.957  1.00  0.00    -0.129 A  
HETATM   14  I   UNL     1      -9.585   4.370  67.349  1.00  0.00    -0.156 I  
HETATM   15  C   UNL     1      -8.776   8.186  69.247  1.00  0.00    -0.140 A  
ENDBRANCH   8   9
ENDBRANCH   6   8
ENDBRANCH   4   6
ENDBRANCH   2   4
TORSDOF 4
ENDMDL
MODEL      233
REMARK 921   NORMALIZED FREE ENERGY PREDICTED BY IDOCK:   -1.87 KCAL/MOL
REMARK 922        TOTAL FREE ENERGY PREDICTED BY IDOCK:   -3.07 KCAL/MOL
REMARK 923 INTER-LIGAND FREE ENERGY PREDICTED BY IDOCK:   -2.87 KCAL/MOL
REMARK 924 INTRA-LIGAND FREE ENERGY PREDICTED BY IDOCK:   -0.20 KCAL/MOL
REMARK 927      BINDING AFFINITY PREDICTED BY RF-SCORE:    0.00 PKD
ROOT
HETATM    1  C   UNL     1     -11.995  12.519  69.747  1.00  0.00    -0.359 C  
HETATM    2  C   UNL     1     -10.993  12.684  68.602  1.00  0.00    -0.256 C  
HETATM    3  C   UNL     1     -10.513  14.137  68.542  1.00  0.00    -0.252 C  
ENDROOT
BRANCH   2   4
HETATM    4  N   UNL     1      -9.809  11.824  68.747  1.00  0.00    -0.374 NA 
HETATM    5  H   UNL     1      -8.919  12.185  69.092  1.00  0.00     0.000 HD 
BRANCH   4   6
HETATM    6  C   UNL     1      -9.984  10.409  68.365  1.00  0.00    -0.162 C  
HETATM    7  C   UNL     1     -10.550  10.283  66.946  1.00  0.00    -0.282 C  
BRANCH   6   8
HETATM    8  C   UNL     1      -8.632   9.650  68.434  1.00  0.00    -0.119 C  
BRANCH   8   9
HETATM    9  C   UNL     1      -8.743   8.208  68.883  1.00  0.00    -0.137 A  
HETATM   10  C   UNL     1      -7.785   7.646  69.738  1.00  0.00    -0.098 A  
HETATM   11  C   UNL     1      -7.905   6.320  70.163  1.00  0.00    -0.106 A  
HETATM   12  C   UNL     1      -8.982   5.547  69.728  1.00  0.00    -0.125 A  
HETATM   13  C   UNL     1      -9.938   6.092  68.871  1.00  0.00    -0.192 A  
HETATM   14  I   UNL     1      -9.169   3.579  70.367  1.00  0.00    -0.243 I  
HETATM   15  C   UNL     1      -9.819   7.418  68.453  1.00  0.00    -0.165 A  
ENDBRANCH   8   9
ENDBRANCH   6   8
ENDBRANCH   4   6
ENDBRANCH   2   4
TORSDOF 4
ENDMDL
MODEL      234
REMARK 921   NORMALIZED FREE ENERGY PREDICTED BY IDOCK:   -1.86 KCAL/MOL
REMARK 922        TOTAL FREE ENERGY PREDICTED BY IDOCK:   -3.05 KCAL/MOL
REMARK 923 INTER-LIGAND FREE ENERGY PREDICTED BY IDOCK:   -3.02 KCAL/MOL
REMARK 924 INTRA-LIGAND FREE ENERGY PREDICTED BY IDOCK:   -0.03 KCAL/MOL
REMARK 927      BINDING AFFINITY PREDICTED BY RF-SCORE:    0.00 PKD
ROOT
HETATM    1  C   UNL     1     -10.042  14.442  68.040  1.00  0.00    -0.232 C  
HETATM    2  C   UNL     1     -10.723  13.654  66.918  1.00  0.00    -0.275 C  
HETATM    3  C   UNL     1     -10.402  14.299  65.567  1.00  0.00    -0.374 C  
ENDROOT
BRANCH   2   4
HETATM    4  N   UNL     1     -10.294  12.250  66.861  1.00  0.00    -0.216 NA 
HETATM    5  H   UNL     1      -9.375  11.980  66.508  1.00  0.00     0.000 HD 
BRANCH   4   6
HETATM    6  C   UNL     1     -11.268  11.252  67.344  1.00  0.00    -0.303 C  
HETATM    7  C   UNL     1     -10.907   9.843  66.861  1.00  0.00    -0.137 C  
BRANCH   6   8
HETATM    8  C   UNL     1     -11.330  11.250  68.895  1.00  0.00    -0.340 C  
BRANCH   8   9
HETATM    9  C   UNL     1     -10.709  10.033  69.548  1.00  0.00    -0.269 A  
HETATM   10  C   UNL     1      -9.330   9.970  69.786  1.00  0.00    -0.233 A  
HETATM   11  C   UNL     1      -8.767   8.851  70.405  1.00  0.00    -0.200 A  
HETATM   12  C   UNL     1      -9.583   7.785  70.785  1.00  0.00    -0.165 A  
HETATM   13  C   UNL     1     -10.957   7.831  70.547  1.00  0.00    -0.251 A  
HETATM   14  I   UNL     1      -8.753   6.125  71.717  1.00  0.00    -0.136 I  
HETATM   15  C   UNL     1     -11.517   8.952  69.933  1.00  0.00     0.104 A  
ENDBRANCH   8   9
ENDBRANCH   6   8
ENDBRANCH   4   6
ENDBRANCH   2   4
TORSDOF 4
ENDMDL
MODEL      235
REMARK 921   NORMALIZED FREE ENERGY PREDICTED BY IDOCK:   -1.81 KCAL/MOL
REMARK 922        TOTAL FREE ENERGY PREDICTED BY IDOCK:   -3.00 KCAL/MOL
REMARK 923 INTER-LIGAND FREE ENERGY PREDICTED BY IDOCK:   -2.47 KCAL/MOL
REMARK 924 INTRA-LIGAND FREE ENERGY PREDICTED BY IDOCK:   -0.53 KCAL/MOL
REMARK 927      BINDING AFFINITY PREDICTED BY RF-SCORE:    0.00 PKD
ROOT
HETATM    1  C   UNL     1      -8.121   7.624  64.583  1.00  0.00    -0.112 C  
HETATM    2  C   UNL     1      -8.303   8.772  65.578  1.00  0.00    -0.147 C  
HETATM    3  C   UNL     1      -9.726   8.743  66.144  1.00  0.00    -0.320 C  
ENDROOT
BRANCH   2   4
HETATM    4  N   UNL     1      -7.367   8.705  66.709  1.00  0.00    -0.078 NA 
HETATM    5  H   UNL     1      -6.772   7.892  66.870  1.00  0.00     0.000 HD 
BRANCH   4   6
HETATM    6  C   UNL     1      -7.336   9.884  67.597  1.00  0.00    -0.090 C  
HETATM    7  C   UNL     1      -6.134   9.833  68.546  1.00  0.00    -0.042 C  
BRANCH   6   8
HETATM    8  C   UNL     1      -7.265  11.195  66.769  1.00  0.00    -0.146 C  
BRANCH   8   9
HETATM    9  C   UNL     1      -8.228  12.274  67.217  1.00  0.00    -0.182 A  
HETATM   10  C   UNL     1      -7.841  13.236  68.159  1.00  0.00    -0.145 A  
HETATM   11  C   UNL     1      -8.730  14.240  68.554  1.00  0.00    -0.175 A  
HETATM   12  C   UNL     1     -10.014  14.283  68.009  1.00  0.00    -0.220 A  
HETATM   13  C   UNL     1     -10.415  13.327  67.076  1.00  0.00    -0.249 A  
HETATM   14  I   UNL     1     -11.334  15.781  68.584  1.00  0.00    -0.336 I  
HETATM   15  C   UNL     1      -9.523  12.329  66.680  1.00  0.00    -0.227 A  
ENDBRANCH   8   9
ENDBRANCH   6   8
ENDBRANCH   4   6
ENDBRANCH   2   4
TORSDOF 4
ENDMDL
MODEL      236
REMARK 921   NORMALIZED FREE ENERGY PREDICTED BY IDOCK:   -1.80 KCAL/MOL
REMARK 922        TOTAL FREE ENERGY PREDICTED BY IDOCK:   -2.99 KCAL/MOL
REMARK 923 INTER-LIGAND FREE ENERGY PREDICTED BY IDOCK:   -3.42 KCAL/MOL
REMARK 924 INTRA-LIGAND FREE ENERGY PREDICTED BY IDOCK:    0.43 KCAL/MOL
REMARK 927      BINDING AFFINITY PREDICTED BY RF-SCORE:    0.00 PKD
ROOT
HETATM    1  C   UNL     1      -9.422  19.479  67.592  1.00  0.00    -0.416 C  
HETATM    2  C   UNL     1      -8.629  18.387  66.871  1.00  0.00    -0.271 C  
HETATM    3  C   UNL     1      -7.151  18.780  66.807  1.00  0.00    -0.228 C  
ENDROOT
BRANCH   2   4
HETATM    4  N   UNL     1      -8.719  17.079  67.535  1.00  0.00    -0.208 NA 
HETATM    5  H   UNL     1      -8.012  16.760  68.198  1.00  0.00     0.000 HD 
BRANCH   4   6
HETATM    6  C   UNL     1      -9.892  16.253  67.186  1.00  0.00    -0.243 C  
HETATM    7  C   UNL     1      -9.587  15.323  66.006  1.00  0.00    -0.372 C  
BRANCH   6   8
HETATM    8  C   UNL     1     -10.340  15.394  68.398  1.00  0.00    -0.229 C  
BRANCH   8   9
HETATM    9  C   UNL     1     -10.047  13.914  68.263  1.00  0.00    -0.241 A  
HETATM   10  C   UNL     1     -11.044  12.960  68.505  1.00  0.00    -0.299 A  
HETATM   11  C   UNL     1     -10.771  11.597  68.360  1.00  0.00    -0.248 A  
HETATM   12  C   UNL     1      -9.495  11.182  67.977  1.00  0.00    -0.174 A  
HETATM   13  C   UNL     1      -8.491  12.121  67.740  1.00  0.00    -0.160 A  
HETATM   14  I   UNL     1      -9.089   9.158  67.749  1.00  0.00    -0.143 I  
HETATM   15  C   UNL     1      -8.769  13.481  67.880  1.00  0.00    -0.183 A  
ENDBRANCH   8   9
ENDBRANCH   6   8
ENDBRANCH   4   6
ENDBRANCH   2   4
TORSDOF 4
ENDMDL
MODEL      237
REMARK 921   NORMALIZED FREE ENERGY PREDICTED BY IDOCK:   -1.80 KCAL/MOL
REMARK 922        TOTAL FREE ENERGY PREDICTED BY IDOCK:   -2.98 KCAL/MOL
REMARK 923 INTER-LIGAND FREE ENERGY PREDICTED BY IDOCK:   -2.43 KCAL/MOL
REMARK 924 INTRA-LIGAND FREE ENERGY PREDICTED BY IDOCK:   -0.55 KCAL/MOL
REMARK 927      BINDING AFFINITY PREDICTED BY RF-SCORE:    0.00 PKD
ROOT
HETATM    1  C   UNL     1     -10.284  14.063  67.423  1.00  0.00    -0.248 C  
HETATM    2  C   UNL     1      -9.561  12.714  67.425  1.00  0.00    -0.194 C  
HETATM    3  C   UNL     1      -9.708  12.048  66.055  1.00  0.00    -0.256 C  
ENDROOT
BRANCH   2   4
HETATM    4  N   UNL     1      -8.125  12.834  67.717  1.00  0.00    -0.154 NA 
HETATM    5  H   UNL     1      -7.699  13.725  67.973  1.00  0.00     0.000 HD 
BRANCH   4   6
HETATM    6  C   UNL     1      -7.337  11.590  67.619  1.00  0.00    -0.105 C  
HETATM    7  C   UNL     1      -5.969  11.848  66.978  1.00  0.00    -0.153 C  
BRANCH   6   8
HETATM    8  C   UNL     1      -7.123  10.962  69.022  1.00  0.00    -0.095 C  
BRANCH   8   9
HETATM    9  C   UNL     1      -7.872   9.667  69.254  1.00  0.00    -0.098 A  
HETATM   10  C   UNL     1      -8.183   8.816  68.185  1.00  0.00    -0.114 A  
HETATM   11  C   UNL     1      -8.858   7.613  68.410  1.00  0.00    -0.130 A  
HETATM   12  C   UNL     1      -9.233   7.260  69.706  1.00  0.00    -0.140 A  
HETATM   13  C   UNL     1      -8.937   8.102  70.778  1.00  0.00    -0.156 A  
HETATM   14  I   UNL     1     -10.227   5.468  70.046  1.00  0.00    -0.366 I  
HETATM   15  C   UNL     1      -8.257   9.299  70.552  1.00  0.00    -0.219 A  
ENDBRANCH   8   9
ENDBRANCH   6   8
ENDBRANCH   4   6
ENDBRANCH   2   4
TORSDOF 4
ENDMDL
MODEL      238
REMARK 921   NORMALIZED FREE ENERGY PREDICTED BY IDOCK:   -1.77 KCAL/MOL
REMARK 922        TOTAL FREE ENERGY PREDICTED BY IDOCK:   -2.95 KCAL/MOL
REMARK 923 INTER-LIGAND FREE ENERGY PREDICTED BY IDOCK:   -2.59 KCAL/MOL
REMARK 924 INTRA-LIGAND FREE ENERGY PREDICTED BY IDOCK:   -0.36 KCAL/MOL
REMARK 927      BINDING AFFINITY PREDICTED BY RF-SCORE:    0.00 PKD
ROOT
HETATM    1  C   UNL     1     -11.643  12.940  68.652  1.00  0.00    -0.353 C  
HETATM    2  C   UNL     1     -10.246  13.246  68.106  1.00  0.00    -0.243 C  
HETATM    3  C   UNL     1      -9.895  14.711  68.381  1.00  0.00    -0.220 C  
ENDROOT
BRANCH   2   4
HETATM    4  N   UNL     1      -9.198  12.411  68.710  1.00  0.00    -0.399 NA 
HETATM    5  H   UNL     1      -8.953  12.482  69.698  1.00  0.00     0.000 HD 
BRANCH   4   6
HETATM    6  C   UNL     1      -8.521  11.463  67.803  1.00  0.00    -0.128 C  
HETATM    7  C   UNL     1      -7.420  12.158  66.994  1.00  0.00    -0.086 C  
BRANCH   6   8
HETATM    8  C   UNL     1      -7.892  10.291  68.602  1.00  0.00    -0.101 C  
BRANCH   8   9
HETATM    9  C   UNL     1      -8.277   8.913  68.107  1.00  0.00    -0.114 A  
HETATM   10  C   UNL     1      -8.367   7.831  68.992  1.00  0.00    -0.131 A  
HETATM   11  C   UNL     1      -8.741   6.566  68.530  1.00  0.00    -0.122 A  
HETATM   12  C   UNL     1      -9.022   6.377  67.177  1.00  0.00    -0.109 A  
HETATM   13  C   UNL     1      -8.928   7.445  66.283  1.00  0.00    -0.192 A  
HETATM   14  I   UNL     1      -9.590   4.501  66.488  1.00  0.00    -0.265 I  
HETATM   15  C   UNL     1      -8.560   8.707  66.748  1.00  0.00    -0.126 A  
ENDBRANCH   8   9
ENDBRANCH   6   8
ENDBRANCH   4   6
ENDBRANCH   2   4
TORSDOF 4
ENDMDL
MODEL      239
REMARK 921   NORMALIZED FREE ENERGY PREDICTED BY IDOCK:   -1.76 KCAL/MOL
REMARK 922        TOTAL FREE ENERGY PREDICTED BY IDOCK:   -2.94 KCAL/MOL
REMARK 923 INTER-LIGAND FREE ENERGY PREDICTED BY IDOCK:   -4.65 KCAL/MOL
REMARK 924 INTRA-LIGAND FREE ENERGY PREDICTED BY IDOCK:    1.71 KCAL/MOL
REMARK 927      BINDING AFFINITY PREDICTED BY RF-SCORE:    0.00 PKD
ROOT
HETATM    1  C   UNL     1     -10.749   5.791  71.741  1.00  0.00    -0.305 C  
HETATM    2  C   UNL     1     -11.204   6.464  73.037  1.00  0.00    -0.143 C  
HETATM    3  C   UNL     1      -9.983   6.802  73.898  1.00  0.00    -0.340 C  
ENDROOT
BRANCH   2   4
HETATM    4  N   UNL     1     -11.951   7.709  72.807  1.00  0.00    -0.592 NA 
HETATM    5  H   UNL     1     -12.921   7.819  73.105  1.00  0.00     0.000 HD 
BRANCH   4   6
HETATM    6  C   UNL     1     -11.217   8.789  72.119  1.00  0.00    -0.338 C  
HETATM    7  C   UNL     1      -9.707   8.674  72.357  1.00  0.00    -0.313 C  
BRANCH   6   8
HETATM    8  C   UNL     1     -11.488   8.752  70.592  1.00  0.00    -0.263 C  
BRANCH   8   9
HETATM    9  C   UNL     1     -11.509  10.110  69.923  1.00  0.00    -0.317 A  
HETATM   10  C   UNL     1     -11.875  11.258  70.638  1.00  0.00    -0.368 A  
HETATM   11  C   UNL     1     -11.874  12.510  70.019  1.00  0.00    -0.363 A  
HETATM   12  C   UNL     1     -11.511  12.619  68.676  1.00  0.00    -0.308 A  
HETATM   13  C   UNL     1     -11.152  11.484  67.950  1.00  0.00    -0.317 A  
HETATM   14  I   UNL     1     -11.497  14.481  67.754  1.00  0.00    -0.387 I  
HETATM   15  C   UNL     1     -11.148  10.236  68.573  1.00  0.00    -0.294 A  
ENDBRANCH   8   9
ENDBRANCH   6   8
ENDBRANCH   4   6
ENDBRANCH   2   4
TORSDOF 4
ENDMDL
MODEL      240
REMARK 921   NORMALIZED FREE ENERGY PREDICTED BY IDOCK:   -1.72 KCAL/MOL
REMARK 922        TOTAL FREE ENERGY PREDICTED BY IDOCK:   -2.88 KCAL/MOL
REMARK 923 INTER-LIGAND FREE ENERGY PREDICTED BY IDOCK:   -2.37 KCAL/MOL
REMARK 924 INTRA-LIGAND FREE ENERGY PREDICTED BY IDOCK:   -0.51 KCAL/MOL
REMARK 927      BINDING AFFINITY PREDICTED BY RF-SCORE:    0.00 PKD
ROOT
HETATM    1  C   UNL     1      -7.360  10.563  66.020  1.00  0.00    -0.137 C  
HETATM    2  C   UNL     1      -8.700  10.542  65.280  1.00  0.00    -0.188 C  
HETATM    3  C   UNL     1      -8.993   9.123  64.786  1.00  0.00    -0.177 C  
ENDROOT
BRANCH   2   4
HETATM    4  N   UNL     1      -9.827  10.969  66.122  1.00  0.00    -0.217 NA 
HETATM    5  H   UNL     1     -10.794  10.749  65.880  1.00  0.00     0.000 HD 
BRANCH   4   6
HETATM    6  C   UNL     1      -9.479  11.732  67.335  1.00  0.00    -0.173 C  
HETATM    7  C   UNL     1     -10.059  13.150  67.285  1.00  0.00    -0.233 C  
BRANCH   6   8
HETATM    8  C   UNL     1     -10.010  11.018  68.606  1.00  0.00    -0.205 C  
BRANCH   8   9
HETATM    9  C   UNL     1      -8.938  10.377  69.462  1.00  0.00    -0.127 A  
HETATM   10  C   UNL     1      -7.604  10.796  69.377  1.00  0.00    -0.114 A  
HETATM   11  C   UNL     1      -6.624  10.212  70.184  1.00  0.00    -0.128 A  
HETATM   12  C   UNL     1      -6.974   9.199  71.077  1.00  0.00    -0.099 A  
HETATM   13  C   UNL     1      -8.298   8.766  71.166  1.00  0.00    -0.219 A  
HETATM   14  I   UNL     1      -5.522   8.335  72.286  1.00  0.00    -0.052 I  
HETATM   15  C   UNL     1      -9.275   9.356  70.364  1.00  0.00    -0.305 A  
ENDBRANCH   8   9
ENDBRANCH   6   8
ENDBRANCH   4   6
ENDBRANCH   2   4
TORSDOF 4
ENDMDL
MODEL      241
REMARK 921   NORMALIZED FREE ENERGY PREDICTED BY IDOCK:   -1.65 KCAL/MOL
REMARK 922        TOTAL FREE ENERGY PREDICTED BY IDOCK:   -2.80 KCAL/MOL
REMARK 923 INTER-LIGAND FREE ENERGY PREDICTED BY IDOCK:   -2.52 KCAL/MOL
REMARK 924 INTRA-LIGAND FREE ENERGY PREDICTED BY IDOCK:   -0.28 KCAL/MOL
REMARK 927      BINDING AFFINITY PREDICTED BY RF-SCORE:    0.00 PKD
ROOT
HETATM    1  C   UNL     1      -9.396   4.853  69.679  1.00  0.00    -0.190 C  
HETATM    2  C   UNL     1      -9.957   6.229  70.045  1.00  0.00    -0.171 C  
HETATM    3  C   UNL     1     -11.153   6.064  70.987  1.00  0.00    -0.348 C  
ENDROOT
BRANCH   2   4
HETATM    4  N   UNL     1      -8.972   7.091  70.713  1.00  0.00    -0.149 NA 
HETATM    5  H   UNL     1      -8.693   6.940  71.683  1.00  0.00     0.000 HD 
BRANCH   4   6
HETATM    6  C   UNL     1      -8.411   8.188  69.900  1.00  0.00    -0.125 C  
HETATM    7  C   UNL     1      -7.032   7.817  69.343  1.00  0.00    -0.063 C  
BRANCH   6   8
HETATM    8  C   UNL     1      -9.354   8.533  68.717  1.00  0.00    -0.143 C  
BRANCH   8   9
HETATM    9  C   UNL     1      -9.361   9.996  68.324  1.00  0.00    -0.136 A  
HETATM   10  C   UNL     1     -10.566  10.698  68.191  1.00  0.00    -0.237 A  
HETATM   11  C   UNL     1     -10.564  12.052  67.846  1.00  0.00    -0.227 A  
HETATM   12  C   UNL     1      -9.353  12.709  67.626  1.00  0.00    -0.190 A  
HETATM   13  C   UNL     1      -8.146  12.020  67.747  1.00  0.00    -0.149 A  
HETATM   14  I   UNL     1      -9.344  14.725  67.125  1.00  0.00    -0.276 I  
HETATM   15  C   UNL     1      -8.152  10.670  68.097  1.00  0.00    -0.114 A  
ENDBRANCH   8   9
ENDBRANCH   6   8
ENDBRANCH   4   6
ENDBRANCH   2   4
TORSDOF 4
ENDMDL
MODEL      242
REMARK 921   NORMALIZED FREE ENERGY PREDICTED BY IDOCK:   -1.58 KCAL/MOL
REMARK 922        TOTAL FREE ENERGY PREDICTED BY IDOCK:   -2.71 KCAL/MOL
REMARK 923 INTER-LIGAND FREE ENERGY PREDICTED BY IDOCK:   -2.24 KCAL/MOL
REMARK 924 INTRA-LIGAND FREE ENERGY PREDICTED BY IDOCK:   -0.47 KCAL/MOL
REMARK 927      BINDING AFFINITY PREDICTED BY RF-SCORE:    0.00 PKD
ROOT
HETATM    1  C   UNL     1      -8.245   1.930  64.960  1.00  0.00    -0.080 C  
HETATM    2  C   UNL     1      -8.737   3.343  65.284  1.00  0.00    -0.121 C  
HETATM    3  C   UNL     1      -9.932   3.690  64.391  1.00  0.00    -0.197 C  
ENDROOT
BRANCH   2   4
HETATM    4  N   UNL     1      -9.160   3.498  66.683  1.00  0.00    -0.150 NA 
HETATM    5  H   UNL     1      -9.861   2.889  67.105  1.00  0.00     0.000 HD 
BRANCH   4   6
HETATM    6  C   UNL     1      -8.511   4.585  67.441  1.00  0.00    -0.104 C  
HETATM    7  C   UNL     1      -7.237   4.092  68.138  1.00  0.00    -0.059 C  
BRANCH   6   8
HETATM    8  C   UNL     1      -8.143   5.766  66.504  1.00  0.00    -0.102 C  
BRANCH   8   9
HETATM    9  C   UNL     1      -8.863   7.062  66.813  1.00  0.00    -0.130 A  
HETATM   10  C   UNL     1     -10.255   7.091  66.968  1.00  0.00    -0.330 A  
HETATM   11  C   UNL     1     -10.910   8.288  67.272  1.00  0.00    -0.103 A  
HETATM   12  C   UNL     1     -10.174   9.464  67.416  1.00  0.00    -0.239 A  
HETATM   13  C   UNL     1      -8.787   9.450  67.257  1.00  0.00    -0.136 A  
HETATM   14  I   UNL     1     -11.142  11.243  67.879  1.00  0.00    -0.382 I  
HETATM   15  C   UNL     1      -8.136   8.253  66.960  1.00  0.00    -0.104 A  
ENDBRANCH   8   9
ENDBRANCH   6   8
ENDBRANCH   4   6
ENDBRANCH   2   4
TORSDOF 4
ENDMDL
MODEL      243
REMARK 921   NORMALIZED FREE ENERGY PREDICTED BY IDOCK:   -1.55 KCAL/MOL
REMARK 922        TOTAL FREE ENERGY PREDICTED BY IDOCK:   -2.67 KCAL/MOL
REMARK 923 INTER-LIGAND FREE ENERGY PREDICTED BY IDOCK:   -2.07 KCAL/MOL
REMARK 924 INTRA-LIGAND FREE ENERGY PREDICTED BY IDOCK:   -0.60 KCAL/MOL
REMARK 927      BINDING AFFINITY PREDICTED BY RF-SCORE:    0.00 PKD
ROOT
HETATM    1  C   UNL     1      -9.507   2.990  67.852  1.00  0.00    -0.210 C  
HETATM    2  C   UNL     1      -8.503   3.972  68.461  1.00  0.00    -0.091 C  
HETATM    3  C   UNL     1      -8.056   4.977  67.397  1.00  0.00    -0.103 C  
ENDROOT
BRANCH   2   4
HETATM    4  N   UNL     1      -9.056   4.729  69.593  1.00  0.00    -0.106 NA 
HETATM    5  H   UNL     1      -9.061   4.354  70.542  1.00  0.00     0.000 HD 
BRANCH   4   6
HETATM    6  C   UNL     1      -9.603   6.063  69.276  1.00  0.00    -0.136 C  
HETATM    7  C   UNL     1     -11.135   6.059  69.316  1.00  0.00    -0.424 C  
BRANCH   6   8
HETATM    8  C   UNL     1      -9.079   7.125  70.279  1.00  0.00    -0.156 C  
BRANCH   8   9
HETATM    9  C   UNL     1      -8.389   8.310  69.637  1.00  0.00    -0.123 A  
HETATM   10  C   UNL     1      -8.942   9.595  69.720  1.00  0.00    -0.226 A  
HETATM   11  C   UNL     1      -8.290  10.687  69.141  1.00  0.00    -0.140 A  
HETATM   12  C   UNL     1      -7.082  10.496  68.469  1.00  0.00    -0.075 A  
HETATM   13  C   UNL     1      -6.524   9.221  68.372  1.00  0.00    -0.054 A  
HETATM   14  I   UNL     1      -6.104  12.118  67.617  1.00  0.00    -0.151 I  
HETATM   15  C   UNL     1      -7.174   8.134  68.957  1.00  0.00    -0.074 A  
ENDBRANCH   8   9
ENDBRANCH   6   8
ENDBRANCH   4   6
ENDBRANCH   2   4
TORSDOF 4
ENDMDL
MODEL      244
REMARK 921   NORMALIZED FREE ENERGY PREDICTED BY IDOCK:   -1.54 KCAL/MOL
REMARK 922        TOTAL FREE ENERGY PREDICTED BY IDOCK:   -2.67 KCAL/MOL
REMARK 923 INTER-LIGAND FREE ENERGY PREDICTED BY IDOCK:   -2.20 KCAL/MOL
REMARK 924 INTRA-LIGAND FREE ENERGY PREDICTED BY IDOCK:   -0.47 KCAL/MOL
REMARK 927      BINDING AFFINITY PREDICTED BY RF-SCORE:    0.00 PKD
ROOT
HETATM    1  C   UNL     1      -7.846   2.004  63.116  1.00  0.00    -0.056 C  
HETATM    2  C   UNL     1      -8.536   3.283  63.595  1.00  0.00    -0.090 C  
HETATM    3  C   UNL     1     -10.055   3.125  63.478  1.00  0.00    -0.169 C  
ENDROOT
BRANCH   2   4
HETATM    4  N   UNL     1      -8.224   3.615  64.993  1.00  0.00    -0.096 NA 
HETATM    5  H   UNL     1      -8.293   2.923  65.740  1.00  0.00     0.000 HD 
BRANCH   4   6
HETATM    6  C   UNL     1      -7.806   5.007  65.252  1.00  0.00    -0.089 C  
HETATM    7  C   UNL     1      -7.226   5.656  63.990  1.00  0.00    -0.055 C  
BRANCH   6   8
HETATM    8  C   UNL     1      -9.004   5.858  65.748  1.00  0.00    -0.131 C  
BRANCH   8   9
HETATM    9  C   UNL     1      -9.292   5.736  67.230  1.00  0.00    -0.113 A  
HETATM   10  C   UNL     1     -10.559   6.041  67.743  1.00  0.00    -0.337 A  
HETATM   11  C   UNL     1     -10.822   5.909  69.109  1.00  0.00    -0.406 A  
HETATM   12  C   UNL     1      -9.814   5.475  69.971  1.00  0.00    -0.198 A  
HETATM   13  C   UNL     1      -8.545   5.176  69.474  1.00  0.00    -0.099 A  
HETATM   14  I   UNL     1     -10.203   5.266  72.000  1.00  0.00    -0.269 I  
HETATM   15  C   UNL     1      -8.287   5.303  68.109  1.00  0.00    -0.097 A  
ENDBRANCH   8   9
ENDBRANCH   6   8
ENDBRANCH   4   6
ENDBRANCH   2   4
TORSDOF 4
ENDMDL
MODEL      245
REMARK 921   NORMALIZED FREE ENERGY PREDICTED BY IDOCK:   -1.53 KCAL/MOL
REMARK 922        TOTAL FREE ENERGY PREDICTED BY IDOCK:   -2.65 KCAL/MOL
REMARK 923 INTER-LIGAND FREE ENERGY PREDICTED BY IDOCK:   -2.20 KCAL/MOL
REMARK 924 INTRA-LIGAND FREE ENERGY PREDICTED BY IDOCK:   -0.46 KCAL/MOL
REMARK 927      BINDING AFFINITY PREDICTED BY RF-SCORE:    0.00 PKD
ROOT
HETATM    1  C   UNL     1     -11.075  16.405  69.176  1.00  0.00    -0.303 C  
HETATM    2  C   UNL     1     -10.325  15.843  67.966  1.00  0.00    -0.262 C  
HETATM    3  C   UNL     1     -11.328  15.319  66.935  1.00  0.00    -0.209 C  
ENDROOT
BRANCH   2   4
HETATM    4  N   UNL     1      -9.477  16.843  67.301  1.00  0.00    -0.239 NA 
HETATM    5  H   UNL     1      -9.870  17.669  66.849  1.00  0.00     0.000 HD 
BRANCH   4   6
HETATM    6  C   UNL     1      -8.024  16.584  67.328  1.00  0.00    -0.164 C  
HETATM    7  C   UNL     1      -7.229  17.835  66.938  1.00  0.00    -0.228 C  
BRANCH   6   8
HETATM    8  C   UNL     1      -7.574  16.123  68.739  1.00  0.00    -0.193 C  
BRANCH   8   9
HETATM    9  C   UNL     1      -7.008  14.719  68.792  1.00  0.00    -0.103 A  
HETATM   10  C   UNL     1      -6.749  14.095  70.020  1.00  0.00     0.002 A  
HETATM   11  C   UNL     1      -6.245  12.792  70.060  1.00  0.00    -0.060 A  
HETATM   12  C   UNL     1      -5.991  12.110  68.870  1.00  0.00    -0.064 A  
HETATM   13  C   UNL     1      -6.237  12.723  67.641  1.00  0.00    -0.153 A  
HETATM   14  I   UNL     1      -5.252  10.169  68.926  1.00  0.00    -0.033 I  
HETATM   15  C   UNL     1      -6.746  14.021  67.604  1.00  0.00    -0.188 A  
ENDBRANCH   8   9
ENDBRANCH   6   8
ENDBRANCH   4   6
ENDBRANCH   2   4
TORSDOF 4
ENDMDL
MODEL      246
REMARK 921   NORMALIZED FREE ENERGY PREDICTED BY IDOCK:   -1.52 KCAL/MOL
REMARK 922        TOTAL FREE ENERGY PREDICTED BY IDOCK:   -2.63 KCAL/MOL
REMARK 923 INTER-LIGAND FREE ENERGY PREDICTED BY IDOCK:   -2.05 KCAL/MOL
REMARK 924 INTRA-LIGAND FREE ENERGY PREDICTED BY IDOCK:   -0.58 KCAL/MOL
REMARK 927      BINDING AFFINITY PREDICTED BY RF-SCORE:    0.00 PKD
ROOT
HETATM    1  C   UNL     1      -9.397   2.868  67.760  1.00  0.00    -0.247 C  
HETATM    2  C   UNL     1      -8.309   3.848  68.205  1.00  0.00    -0.091 C  
HETATM    3  C   UNL     1      -7.680   4.512  66.976  1.00  0.00    -0.090 C  
ENDROOT
BRANCH   2   4
HETATM    4  N   UNL     1      -8.818   4.912  69.081  1.00  0.00    -0.091 NA 
HETATM    5  H   UNL     1      -8.666   4.900  70.090  1.00  0.00     0.000 HD 
BRANCH   4   6
HETATM    6  C   UNL     1      -9.563   6.000  68.416  1.00  0.00    -0.120 C  
HETATM    7  C   UNL     1     -11.012   6.065  68.912  1.00  0.00    -0.395 C  
BRANCH   6   8
HETATM    8  C   UNL     1      -8.882   7.370  68.675  1.00  0.00    -0.126 C  
BRANCH   8   9
HETATM    9  C   UNL     1      -8.240   7.995  67.454  1.00  0.00    -0.123 A  
HETATM   10  C   UNL     1      -6.881   8.334  67.451  1.00  0.00    -0.070 A  
HETATM   11  C   UNL     1      -6.292   8.893  66.314  1.00  0.00    -0.065 A  
HETATM   12  C   UNL     1      -7.064   9.121  65.174  1.00  0.00    -0.088 A  
HETATM   13  C   UNL     1      -8.421   8.796  65.167  1.00  0.00    -0.192 A  
HETATM   14  I   UNL     1      -6.190   9.942  63.478  1.00  0.00    -0.129 I  
HETATM   15  C   UNL     1      -9.004   8.233  66.301  1.00  0.00    -0.221 A  
ENDBRANCH   8   9
ENDBRANCH   6   8
ENDBRANCH   4   6
ENDBRANCH   2   4
TORSDOF 4
ENDMDL
MODEL      247
REMARK 921   NORMALIZED FREE ENERGY PREDICTED BY IDOCK:   -1.51 KCAL/MOL
REMARK 922        TOTAL FREE ENERGY PREDICTED BY IDOCK:   -2.63 KCAL/MOL
REMARK 923 INTER-LIGAND FREE ENERGY PREDICTED BY IDOCK:   -2.02 KCAL/MOL
REMARK 924 INTRA-LIGAND FREE ENERGY PREDICTED BY IDOCK:   -0.61 KCAL/MOL
REMARK 927      BINDING AFFINITY PREDICTED BY RF-SCORE:    0.00 PKD
ROOT
HETATM    1  C   UNL     1      -6.961   9.263  64.498  1.00  0.00    -0.093 C  
HETATM    2  C   UNL     1      -7.051   8.002  65.360  1.00  0.00    -0.060 C  
HETATM    3  C   UNL     1      -6.153   6.910  64.773  1.00  0.00    -0.036 C  
ENDROOT
BRANCH   2   4
HETATM    4  N   UNL     1      -6.636   8.227  66.752  1.00  0.00    -0.056 NA 
HETATM    5  H   UNL     1      -5.659   8.375  67.006  1.00  0.00     0.000 HD 
BRANCH   4   6
HETATM    6  C   UNL     1      -7.714   8.228  67.760  1.00  0.00    -0.103 C  
HETATM    7  C   UNL     1      -7.617   7.005  68.679  1.00  0.00    -0.108 C  
BRANCH   6   8
HETATM    8  C   UNL     1      -7.655   9.513  68.627  1.00  0.00    -0.080 C  
BRANCH   8   9
HETATM    9  C   UNL     1      -8.310  10.726  68.000  1.00  0.00    -0.120 A  
HETATM   10  C   UNL     1      -7.613  11.935  67.875  1.00  0.00    -0.128 A  
HETATM   11  C   UNL     1      -8.218  13.045  67.279  1.00  0.00    -0.174 A  
HETATM   12  C   UNL     1      -9.529  12.951  66.809  1.00  0.00    -0.245 A  
HETATM   13  C   UNL     1     -10.237  11.755  66.935  1.00  0.00    -0.236 A  
HETATM   14  I   UNL     1     -10.428  14.594  65.912  1.00  0.00    -0.403 I  
HETATM   15  C   UNL     1      -9.628  10.648  67.525  1.00  0.00    -0.180 A  
ENDBRANCH   8   9
ENDBRANCH   6   8
ENDBRANCH   4   6
ENDBRANCH   2   4
TORSDOF 4
ENDMDL
MODEL      248
REMARK 921   NORMALIZED FREE ENERGY PREDICTED BY IDOCK:   -1.50 KCAL/MOL
REMARK 922        TOTAL FREE ENERGY PREDICTED BY IDOCK:   -2.62 KCAL/MOL
REMARK 923 INTER-LIGAND FREE ENERGY PREDICTED BY IDOCK:   -2.23 KCAL/MOL
REMARK 924 INTRA-LIGAND FREE ENERGY PREDICTED BY IDOCK:   -0.38 KCAL/MOL
REMARK 927      BINDING AFFINITY PREDICTED BY RF-SCORE:    0.00 PKD
ROOT
HETATM    1  C   UNL     1      -5.318  11.802  66.832  1.00  0.00    -0.115 C  
HETATM    2  C   UNL     1      -5.882  11.752  68.254  1.00  0.00    -0.049 C  
HETATM    3  C   UNL     1      -5.215  10.615  69.033  1.00  0.00    -0.041 C  
ENDROOT
BRANCH   2   4
HETATM    4  N   UNL     1      -5.666  12.999  69.002  1.00  0.00    -0.073 NA 
HETATM    5  H   UNL     1      -4.739  13.283  69.320  1.00  0.00     0.000 HD 
BRANCH   4   6
HETATM    6  C   UNL     1      -6.867  13.815  69.264  1.00  0.00    -0.078 C  
HETATM    7  C   UNL     1      -6.684  14.687  70.512  1.00  0.00     0.117 C  
BRANCH   6   8
HETATM    8  C   UNL     1      -7.183  14.733  68.054  1.00  0.00    -0.145 C  
BRANCH   8   9
HETATM    9  C   UNL     1      -8.451  14.375  67.307  1.00  0.00    -0.229 A  
HETATM   10  C   UNL     1      -9.422  15.348  67.032  1.00  0.00    -0.232 A  
HETATM   11  C   UNL     1     -10.581  15.013  66.326  1.00  0.00    -0.309 A  
HETATM   12  C   UNL     1     -10.777  13.700  65.897  1.00  0.00    -0.281 A  
HETATM   13  C   UNL     1      -9.822  12.720  66.172  1.00  0.00    -0.269 A  
HETATM   14  I   UNL     1     -12.493  13.201  64.838  1.00  0.00    -0.372 I  
HETATM   15  C   UNL     1      -8.664  13.059  66.871  1.00  0.00    -0.158 A  
ENDBRANCH   8   9
ENDBRANCH   6   8
ENDBRANCH   4   6
ENDBRANCH   2   4
TORSDOF 4
ENDMDL
MODEL      249
REMARK 921   NORMALIZED FREE ENERGY PREDICTED BY IDOCK:   -1.45 KCAL/MOL
REMARK 922        TOTAL FREE ENERGY PREDICTED BY IDOCK:   -2.56 KCAL/MOL
REMARK 923 INTER-LIGAND FREE ENERGY PREDICTED BY IDOCK:   -2.86 KCAL/MOL
REMARK 924 INTRA-LIGAND FREE ENERGY PREDICTED BY IDOCK:    0.30 KCAL/MOL
REMARK 927      BINDING AFFINITY PREDICTED BY RF-SCORE:    0.00 PKD
ROOT
HETATM    1  C   UNL     1     -10.807   8.021  70.546  1.00  0.00    -0.241 C  
HETATM    2  C   UNL     1     -10.100   9.317  70.950  1.00  0.00    -0.302 C  
HETATM    3  C   UNL     1      -8.609   9.043  71.172  1.00  0.00    -0.250 C  
ENDROOT
BRANCH   2   4
HETATM    4  N   UNL     1     -10.218  10.375  69.936  1.00  0.00    -0.415 NA 
HETATM    5  H   UNL     1     -10.444  11.338  70.185  1.00  0.00     0.000 HD 
BRANCH   4   6
HETATM    6  C   UNL     1      -9.989   9.962  68.537  1.00  0.00    -0.159 C  
HETATM    7  C   UNL     1     -11.283  10.033  67.718  1.00  0.00    -0.137 C  
BRANCH   6   8
HETATM    8  C   UNL     1      -8.921  10.864  67.865  1.00  0.00    -0.141 C  
BRANCH   8   9
HETATM    9  C   UNL     1      -9.272  12.337  67.832  1.00  0.00    -0.190 A  
HETATM   10  C   UNL     1      -9.005  13.114  66.697  1.00  0.00    -0.135 A  
HETATM   11  C   UNL     1      -9.349  14.468  66.667  1.00  0.00    -0.301 A  
HETATM   12  C   UNL     1      -9.957  15.054  67.778  1.00  0.00    -0.229 A  
HETATM   13  C   UNL     1     -10.221  14.293  68.918  1.00  0.00    -0.203 A  
HETATM   14  I   UNL     1     -10.480  17.063  67.734  1.00  0.00    -0.292 I  
HETATM   15  C   UNL     1      -9.882  12.940  68.942  1.00  0.00     0.136 A  
ENDBRANCH   8   9
ENDBRANCH   6   8
ENDBRANCH   4   6
ENDBRANCH   2   4
TORSDOF 4
ENDMDL
MODEL      250
REMARK 921   NORMALIZED FREE ENERGY PREDICTED BY IDOCK:   -1.44 KCAL/MOL
REMARK 922        TOTAL FREE ENERGY PREDICTED BY IDOCK:   -2.54 KCAL/MOL
REMARK 923 INTER-LIGAND FREE ENERGY PREDICTED BY IDOCK:   -2.21 KCAL/MOL
REMARK 924 INTRA-LIGAND FREE ENERGY PREDICTED BY IDOCK:   -0.33 KCAL/MOL
REMARK 927      BINDING AFFINITY PREDICTED BY RF-SCORE:    0.00 PKD
ROOT
HETATM    1  C   UNL     1     -10.693  12.884  69.122  1.00  0.00    -0.060 C  
HETATM    2  C   UNL     1      -9.424  12.821  68.269  1.00  0.00    -0.203 C  
HETATM    3  C   UNL     1      -8.733  14.187  68.271  1.00  0.00    -0.181 C  
ENDROOT
BRANCH   2   4
HETATM    4  N   UNL     1      -8.457  11.826  68.753  1.00  0.00    -0.345 NA 
HETATM    5  H   UNL     1      -8.100  11.840  69.708  1.00  0.00     0.000 HD 
BRANCH   4   6
HETATM    6  C   UNL     1      -8.033  10.804  67.775  1.00  0.00    -0.110 C  
HETATM    7  C   UNL     1      -7.093  11.400  66.721  1.00  0.00    -0.132 C  
BRANCH   6   8
HETATM    8  C   UNL     1      -7.308   9.630  68.485  1.00  0.00    -0.078 C  
BRANCH   8   9
HETATM    9  C   UNL     1      -8.145   8.908  69.521  1.00  0.00    -0.101 A  
HETATM   10  C   UNL     1      -7.583   8.489  70.734  1.00  0.00    -0.074 A  
HETATM   11  C   UNL     1      -8.367   7.840  71.692  1.00  0.00    -0.125 A  
HETATM   12  C   UNL     1      -9.718   7.602  71.437  1.00  0.00    -0.163 A  
HETATM   13  C   UNL     1     -10.288   8.007  70.230  1.00  0.00    -0.212 A  
HETATM   14  I   UNL     1     -10.889   6.647  72.863  1.00  0.00    -0.269 I  
HETATM   15  C   UNL     1      -9.505   8.660  69.278  1.00  0.00    -0.158 A  
ENDBRANCH   8   9
ENDBRANCH   6   8
ENDBRANCH   4   6
ENDBRANCH   2   4
TORSDOF 4
ENDMDL
MODEL      251
REMARK 921   NORMALIZED FREE ENERGY PREDICTED BY IDOCK:   -1.34 KCAL/MOL
REMARK 922        TOTAL FREE ENERGY PREDICTED BY IDOCK:   -2.42 KCAL/MOL
REMARK 923 INTER-LIGAND FREE ENERGY PREDICTED BY IDOCK:   -1.87 KCAL/MOL
REMARK 924 INTRA-LIGAND FREE ENERGY PREDICTED BY IDOCK:   -0.55 KCAL/MOL
REMARK 927      BINDING AFFINITY PREDICTED BY RF-SCORE:    0.00 PKD
ROOT
HETATM    1  C   UNL     1      -7.870   9.156  66.100  1.00  0.00    -0.103 C  
HETATM    2  C   UNL     1      -6.784   8.630  67.042  1.00  0.00    -0.062 C  
HETATM    3  C   UNL     1      -5.430   8.647  66.327  1.00  0.00    -0.034 C  
ENDROOT
BRANCH   2   4
HETATM    4  N   UNL     1      -6.655   9.426  68.270  1.00  0.00    -0.058 NA 
HETATM    5  H   UNL     1      -5.966   9.202  68.989  1.00  0.00     0.000 HD 
BRANCH   4   6
HETATM    6  C   UNL     1      -7.579  10.570  68.403  1.00  0.00    -0.097 C  
HETATM    7  C   UNL     1      -8.509  10.395  69.609  1.00  0.00    -0.068 C  
BRANCH   6   8
HETATM    8  C   UNL     1      -6.792  11.897  68.567  1.00  0.00    -0.076 C  
BRANCH   8   9
HETATM    9  C   UNL     1      -7.632  13.149  68.421  1.00  0.00    -0.133 A  
HETATM   10  C   UNL     1      -7.486  14.220  69.313  1.00  0.00    -0.022 A  
HETATM   11  C   UNL     1      -8.252  15.379  69.160  1.00  0.00    -0.243 A  
HETATM   12  C   UNL     1      -9.173  15.469  68.117  1.00  0.00    -0.189 A  
HETATM   13  C   UNL     1      -9.334  14.406  67.227  1.00  0.00    -0.211 A  
HETATM   14  I   UNL     1     -10.305  17.194  67.880  1.00  0.00    -0.365 I  
HETATM   15  C   UNL     1      -8.564  13.253  67.378  1.00  0.00    -0.204 A  
ENDBRANCH   8   9
ENDBRANCH   6   8
ENDBRANCH   4   6
ENDBRANCH   2   4
TORSDOF 4
ENDMDL
MODEL      252
REMARK 921   NORMALIZED FREE ENERGY PREDICTED BY IDOCK:   -1.29 KCAL/MOL
REMARK 922        TOTAL FREE ENERGY PREDICTED BY IDOCK:   -2.36 KCAL/MOL
REMARK 923 INTER-LIGAND FREE ENERGY PREDICTED BY IDOCK:   -1.91 KCAL/MOL
REMARK 924 INTRA-LIGAND FREE ENERGY PREDICTED BY IDOCK:   -0.45 KCAL/MOL
REMARK 927      BINDING AFFINITY PREDICTED BY RF-SCORE:    0.00 PKD
ROOT
HETATM    1  C   UNL     1      -8.249   1.904  64.894  1.00  0.00    -0.080 C  
HETATM    2  C   UNL     1      -8.638   3.356  65.183  1.00  0.00    -0.112 C  
HETATM    3  C   UNL     1      -9.940   3.695  64.452  1.00  0.00    -0.197 C  
ENDROOT
BRANCH   2   4
HETATM    4  N   UNL     1      -8.841   3.622  66.614  1.00  0.00    -0.122 NA 
HETATM    5  H   UNL     1      -9.508   3.088  67.172  1.00  0.00     0.000 HD 
BRANCH   4   6
HETATM    6  C   UNL     1      -8.025   4.705  67.195  1.00  0.00    -0.102 C  
HETATM    7  C   UNL     1      -6.964   5.195  66.203  1.00  0.00    -0.067 C  
BRANCH   6   8
HETATM    8  C   UNL     1      -8.917   5.906  67.607  1.00  0.00    -0.107 C  
BRANCH   8   9
HETATM    9  C   UNL     1      -8.865   6.253  69.080  1.00  0.00    -0.124 A  
HETATM   10  C   UNL     1      -9.049   5.266  70.057  1.00  0.00    -0.163 A  
HETATM   11  C   UNL     1      -8.981   5.592  71.415  1.00  0.00    -0.150 A  
HETATM   12  C   UNL     1      -8.734   6.909  71.801  1.00  0.00    -0.120 A  
HETATM   13  C   UNL     1      -8.556   7.903  70.838  1.00  0.00    -0.129 A  
HETATM   14  I   UNL     1      -8.620   7.395  73.817  1.00  0.00    -0.304 I  
HETATM   15  C   UNL     1      -8.619   7.574  69.483  1.00  0.00    -0.133 A  
ENDBRANCH   8   9
ENDBRANCH   6   8
ENDBRANCH   4   6
ENDBRANCH   2   4
TORSDOF 4
ENDMDL
MODEL      253
REMARK 921   NORMALIZED FREE ENERGY PREDICTED BY IDOCK:   -0.90 KCAL/MOL
REMARK 922        TOTAL FREE ENERGY PREDICTED BY IDOCK:   -1.88 KCAL/MOL
REMARK 923 INTER-LIGAND FREE ENERGY PREDICTED BY IDOCK:   -1.70 KCAL/MOL
REMARK 924 INTRA-LIGAND FREE ENERGY PREDICTED BY IDOCK:   -0.18 KCAL/MOL
REMARK 927      BINDING AFFINITY PREDICTED BY RF-SCORE:    0.00 PKD
ROOT
HETATM    1  C   UNL     1      -9.080  13.118  66.662  1.00  0.00    -0.180 C  
HETATM    2  C   UNL     1      -9.458  12.503  68.011  1.00  0.00    -0.209 C  
HETATM    3  C   UNL     1     -10.966  12.646  68.238  1.00  0.00    -0.275 C  
ENDROOT
BRANCH   2   4
HETATM    4  N   UNL     1      -9.122  11.075  68.106  1.00  0.00    -0.149 NA 
HETATM    5  H   UNL     1      -9.802  10.345  67.893  1.00  0.00     0.000 HD 
BRANCH   4   6
HETATM    6  C   UNL     1      -7.743  10.760  68.526  1.00  0.00    -0.118 C  
HETATM    7  C   UNL     1      -7.732   9.810  69.729  1.00  0.00    -0.145 C  
BRANCH   6   8
HETATM    8  C   UNL     1      -6.950  10.106  67.364  1.00  0.00    -0.082 C  
BRANCH   8   9
HETATM    9  C   UNL     1      -7.089   8.600  67.276  1.00  0.00    -0.079 A  
HETATM   10  C   UNL     1      -6.040   7.758  67.668  1.00  0.00    -0.049 A  
HETATM   11  C   UNL     1      -6.184   6.369  67.602  1.00  0.00    -0.032 A  
HETATM   12  C   UNL     1      -7.377   5.817  67.135  1.00  0.00    -0.077 A  
HETATM   13  C   UNL     1      -8.426   6.644  66.734  1.00  0.00    -0.117 A  
HETATM   14  I   UNL     1      -7.598   3.753  67.045  1.00  0.00    -0.080 I  
HETATM   15  C   UNL     1      -8.282   8.030  66.807  1.00  0.00    -0.111 A  
ENDBRANCH   8   9
ENDBRANCH   6   8
ENDBRANCH   4   6
ENDBRANCH   2   4
TORSDOF 4
ENDMDL
MODEL      254
REMARK 921   NORMALIZED FREE ENERGY PREDICTED BY IDOCK:   -0.89 KCAL/MOL
REMARK 922        TOTAL FREE ENERGY PREDICTED BY IDOCK:   -1.87 KCAL/MOL
REMARK 923 INTER-LIGAND FREE ENERGY PREDICTED BY IDOCK:   -1.83 KCAL/MOL
REMARK 924 INTRA-LIGAND FREE ENERGY PREDICTED BY IDOCK:   -0.04 KCAL/MOL
REMARK 927      BINDING AFFINITY PREDICTED BY RF-SCORE:    0.00 PKD
ROOT
HETATM    1  C   UNL     1      -9.342   4.497  72.004  1.00  0.00    -0.184 C  
HETATM    2  C   UNL     1     -10.294   5.689  72.126  1.00  0.00    -0.209 C  
HETATM    3  C   UNL     1     -10.567   5.981  73.604  1.00  0.00    -0.281 C  
ENDROOT
BRANCH   2   4
HETATM    4  N   UNL     1      -9.761   6.914  71.515  1.00  0.00    -0.163 NA 
HETATM    5  H   UNL     1      -9.789   7.814  71.996  1.00  0.00     0.000 HD 
BRANCH   4   6
HETATM    6  C   UNL     1      -9.180   6.768  70.166  1.00  0.00    -0.155 C  
HETATM    7  C   UNL     1      -9.783   7.785  69.189  1.00  0.00    -0.161 C  
BRANCH   6   8
HETATM    8  C   UNL     1      -7.642   6.962  70.205  1.00  0.00    -0.099 C  
BRANCH   8   9
HETATM    9  C   UNL     1      -7.166   8.322  69.738  1.00  0.00    -0.060 A  
HETATM   10  C   UNL     1      -6.608   8.490  68.464  1.00  0.00    -0.059 A  
HETATM   11  C   UNL     1      -6.189   9.752  68.034  1.00  0.00    -0.055 A  
HETATM   12  C   UNL     1      -6.322  10.853  68.881  1.00  0.00    -0.046 A  
HETATM   13  C   UNL     1      -6.868  10.698  70.155  1.00  0.00    -0.119 A  
HETATM   14  I   UNL     1      -5.710  12.732  68.241  1.00  0.00    -0.102 I  
HETATM   15  C   UNL     1      -7.291   9.438  70.580  1.00  0.00    -0.138 A  
ENDBRANCH   8   9
ENDBRANCH   6   8
ENDBRANCH   4   6
ENDBRANCH   2   4
TORSDOF 4
ENDMDL
MODEL      255
REMARK 921   NORMALIZED FREE ENERGY PREDICTED BY IDOCK:    4.72 KCAL/MOL
REMARK 922        TOTAL FREE ENERGY PREDICTED BY IDOCK:    5.06 KCAL/MOL
REMARK 923 INTER-LIGAND FREE ENERGY PREDICTED BY IDOCK:    3.39 KCAL/MOL
REMARK 924 INTRA-LIGAND FREE ENERGY PREDICTED BY IDOCK:    1.67 KCAL/MOL
REMARK 927      BINDING AFFINITY PREDICTED BY RF-SCORE:    0.00 PKD
ROOT
HETATM    1  C   UNL     1      -9.106  15.304  64.767  1.00  0.00     2.960 C  
HETATM    2  C   UNL     1      -8.574  14.573  66.002  1.00  0.00     0.798 C  
HETATM    3  C   UNL     1      -7.691  15.519  66.820  1.00  0.00    -0.111 C  
ENDROOT
BRANCH   2   4
HETATM    4  N   UNL     1      -9.643  14.081  66.883  1.00  0.00    -0.262 NA 
HETATM    5  H   UNL     1      -9.563  14.114  67.899  1.00  0.00     0.000 HD 
BRANCH   4   6
HETATM    6  C   UNL     1     -10.839  13.537  66.210  1.00  0.00    -0.289 C  
HETATM    7  C   UNL     1     -11.234  14.393  65.001  1.00  0.00    -0.376 C  
BRANCH   6   8
HETATM    8  C   UNL     1     -10.588  12.082  65.733  1.00  0.00    -0.301 C  
BRANCH   8   9
HETATM    9  C   UNL     1     -10.534  11.055  66.845  1.00  0.00    -0.293 A  
HETATM   10  C   UNL     1     -11.490  10.034  66.927  1.00  0.00     0.968 A  
HETATM   11  C   UNL     1     -11.423   9.080  67.946  1.00  0.00     1.085 A  
HETATM   12  C   UNL     1     -10.400   9.147  68.893  1.00  0.00    -0.214 A  
HETATM   13  C   UNL     1      -9.446  10.164  68.827  1.00  0.00    -0.171 A  
HETATM   14  I   UNL     1     -10.289   7.724  70.402  1.00  0.00    -0.233 I  
HETATM   15  C   UNL     1      -9.513  11.111  67.806  1.00  0.00    -0.173 A  
ENDBRANCH   8   9
ENDBRANCH   6   8
ENDBRANCH   4   6
ENDBRANCH   2   4
TORSDOF 4
ENDMDL
MODEL      256
REMARK 921   NORMALIZED FREE ENERGY PREDICTED BY IDOCK:    6.43 KCAL/MOL
REMARK 922        TOTAL FREE ENERGY PREDICTED BY IDOCK:    7.17 KCAL/MOL
REMARK 923 INTER-LIGAND FREE ENERGY PREDICTED BY IDOCK:    7.27 KCAL/MOL
REMARK 924 INTRA-LIGAND FREE ENERGY PREDICTED BY IDOCK:   -0.10 KCAL/MOL
REMARK 927      BINDING AFFINITY PREDICTED BY RF-SCORE:    0.00 PKD
ROOT
HETATM    1  C   UNL     1     -11.441  13.615  74.168  1.00  0.00     5.508 C  
HETATM    2  C   UNL     1     -12.217  13.784  72.861  1.00  0.00     0.713 C  
HETATM    3  C   UNL     1     -12.944  12.480  72.520  1.00  0.00     0.247 C  
ENDROOT
BRANCH   2   4
HETATM    4  N   UNL     1     -13.221  14.856  72.923  1.00  0.00    -0.465 NA 
HETATM    5  H   UNL     1     -14.036  14.797  73.533  1.00  0.00     0.000 HD 
BRANCH   4   6
HETATM    6  C   UNL     1     -12.979  16.024  72.053  1.00  0.00    -0.255 C  
HETATM    7  C   UNL     1     -11.492  16.160  71.707  1.00  0.00    -0.386 C  
BRANCH   6   8
HETATM    8  C   UNL     1     -13.791  15.906  70.736  1.00  0.00     1.050 C  
BRANCH   8   9
HETATM    9  C   UNL     1     -13.036  15.273  69.586  1.00  0.00     0.304 A  
HETATM   10  C   UNL     1     -12.903  13.881  69.493  1.00  0.00     0.518 A  
HETATM   11  C   UNL     1     -12.221  13.304  68.418  1.00  0.00    -0.100 A  
HETATM   12  C   UNL     1     -11.662  14.119  67.434  1.00  0.00    -0.391 A  
HETATM   13  C   UNL     1     -11.780  15.507  67.518  1.00  0.00    -0.006 A  
HETATM   14  I   UNL     1     -10.657  13.265  65.829  1.00  0.00    -0.320 I  
HETATM   15  C   UNL     1     -12.466  16.079  68.589  1.00  0.00     0.848 A  
ENDBRANCH   8   9
ENDBRANCH   6   8
ENDBRANCH   4   6
ENDBRANCH   2   4
TORSDOF 4
ENDMDL
MODEL      257
REMARK 921   NORMALIZED FREE ENERGY PREDICTED BY IDOCK:    8.60 KCAL/MOL
REMARK 922        TOTAL FREE ENERGY PREDICTED BY IDOCK:    9.85 KCAL/MOL
REMARK 923 INTER-LIGAND FREE ENERGY PREDICTED BY IDOCK:    9.18 KCAL/MOL
REMARK 924 INTRA-LIGAND FREE ENERGY PREDICTED BY IDOCK:    0.66 KCAL/MOL
REMARK 927      BINDING AFFINITY PREDICTED BY RF-SCORE:    0.00 PKD
ROOT
HETATM    1  C   UNL     1      -6.142  13.474  65.868  1.00  0.00     6.699 C  
HETATM    2  C   UNL     1      -6.266  12.175  66.667  1.00  0.00     0.317 C  
HETATM    3  C   UNL     1      -5.705  11.010  65.847  1.00  0.00    -0.115 C  
ENDROOT
BRANCH   2   4
HETATM    4  N   UNL     1      -5.542  12.216  67.946  1.00  0.00    -0.060 NA 
HETATM    5  H   UNL     1      -4.620  11.793  68.058  1.00  0.00     0.000 HD 
BRANCH   4   6
HETATM    6  C   UNL     1      -6.227  12.904  69.058  1.00  0.00    -0.095 C  
HETATM    7  C   UNL     1      -5.223  13.407  70.101  1.00  0.00    -0.097 C  
BRANCH   6   8
HETATM    8  C   UNL     1      -7.052  14.109  68.534  1.00  0.00    -0.103 C  
BRANCH   8   9
HETATM    9  C   UNL     1      -6.652  15.447  69.119  1.00  0.00    -0.133 A  
HETATM   10  C   UNL     1      -5.914  16.369  68.366  1.00  0.00    -0.119 A  
HETATM   11  C   UNL     1      -5.565  17.610  68.907  1.00  0.00    -0.172 A  
HETATM   12  C   UNL     1      -5.949  17.931  70.209  1.00  0.00    -0.044 A  
HETATM   13  C   UNL     1      -6.678  17.019  70.973  1.00  0.00     2.819 A  
HETATM   14  I   UNL     1      -5.442  19.778  71.014  1.00  0.00    -0.340 I  
HETATM   15  C   UNL     1      -7.029  15.784  70.428  1.00  0.00     0.624 A  
ENDBRANCH   8   9
ENDBRANCH   6   8
ENDBRANCH   4   6
ENDBRANCH   2   4
TORSDOF 4
ENDMDL
MODEL      258
REMARK 921   NORMALIZED FREE ENERGY PREDICTED BY IDOCK:    9.06 KCAL/MOL
REMARK 922        TOTAL FREE ENERGY PREDICTED BY IDOCK:   10.41 KCAL/MOL
REMARK 923 INTER-LIGAND FREE ENERGY PREDICTED BY IDOCK:   10.44 KCAL/MOL
REMARK 924 INTRA-LIGAND FREE ENERGY PREDICTED BY IDOCK:   -0.03 KCAL/MOL
REMARK 927      BINDING AFFINITY PREDICTED BY RF-SCORE:    0.00 PKD
ROOT
HETATM    1  C   UNL     1      -9.946  12.961  64.040  1.00  0.00     0.001 C  
HETATM    2  C   UNL     1     -10.444  13.849  65.183  1.00  0.00    -0.393 C  
HETATM    3  C   UNL     1      -9.249  14.429  65.944  1.00  0.00     0.031 C  
ENDROOT
BRANCH   2   4
HETATM    4  N   UNL     1     -11.271  14.972  64.719  1.00  0.00    -0.521 NA 
HETATM    5  H   UNL     1     -11.942  14.869  63.957  1.00  0.00     0.000 HD 
BRANCH   4   6
HETATM    6  C   UNL     1     -11.074  16.256  65.419  1.00  0.00    -0.087 C  
HETATM    7  C   UNL     1     -11.321  17.444  64.481  1.00  0.00     1.535 C  
BRANCH   6   8
HETATM    8  C   UNL     1     -12.029  16.371  66.636  1.00  0.00     1.677 C  
BRANCH   8   9
HETATM    9  C   UNL     1     -11.398  16.020  67.967  1.00  0.00    -0.266 A  
HETATM   10  C   UNL     1     -10.073  16.375  68.250  1.00  0.00    -0.248 A  
HETATM   11  C   UNL     1      -9.504  16.063  69.488  1.00  0.00    -0.173 A  
HETATM   12  C   UNL     1     -10.259  15.387  70.447  1.00  0.00    -0.010 A  
HETATM   13  C   UNL     1     -11.577  15.020  70.175  1.00  0.00    -0.326 A  
HETATM   14  I   UNL     1      -9.421  14.932  72.293  1.00  0.00     9.439 I  
HETATM   15  C   UNL     1     -12.144  15.338  68.941  1.00  0.00    -0.223 A  
ENDBRANCH   8   9
ENDBRANCH   6   8
ENDBRANCH   4   6
ENDBRANCH   2   4
TORSDOF 4
ENDMDL
MODEL      259
REMARK 921   NORMALIZED FREE ENERGY PREDICTED BY IDOCK:    9.88 KCAL/MOL
REMARK 922        TOTAL FREE ENERGY PREDICTED BY IDOCK:   11.43 KCAL/MOL
REMARK 923 INTER-LIGAND FREE ENERGY PREDICTED BY IDOCK:    5.78 KCAL/MOL
REMARK 924 INTRA-LIGAND FREE ENERGY PREDICTED BY IDOCK:    5.64 KCAL/MOL
REMARK 927      BINDING AFFINITY PREDICTED BY RF-SCORE:    0.00 PKD
ROOT
HETATM    1  C   UNL     1     -11.650   9.273  70.751  1.00  0.00    -0.345 C  
HETATM    2  C   UNL     1     -11.176  10.591  71.368  1.00  0.00     0.701 C  
HETATM    3  C   UNL     1      -9.890  10.355  72.165  1.00  0.00     6.403 C  
ENDROOT
BRANCH   2   4
HETATM    4  N   UNL     1     -10.900  11.628  70.363  1.00  0.00     0.325 NA 
HETATM    5  H   UNL     1     -10.693  12.592  70.625  1.00  0.00     0.000 HD 
BRANCH   4   6
HETATM    6  C   UNL     1     -10.938  11.192  68.953  1.00  0.00    -0.225 C  
HETATM    7  C   UNL     1      -9.687  11.652  68.196  1.00  0.00    -0.189 C  
BRANCH   6   8
HETATM    8  C   UNL     1     -11.042   9.647  68.857  1.00  0.00    -0.097 C  
BRANCH   8   9
HETATM    9  C   UNL     1      -9.727   8.916  69.029  1.00  0.00    -0.171 A  
HETATM   10  C   UNL     1      -9.665   7.706  69.732  1.00  0.00    -0.171 A  
HETATM   11  C   UNL     1      -8.450   7.028  69.870  1.00  0.00    -0.140 A  
HETATM   12  C   UNL     1      -7.290   7.562  69.309  1.00  0.00    -0.089 A  
HETATM   13  C   UNL     1      -7.337   8.771  68.613  1.00  0.00    -0.080 A  
HETATM   14  I   UNL     1      -5.485   6.552  69.502  1.00  0.00    -0.015 I  
HETATM   15  C   UNL     1      -8.552   9.442  68.472  1.00  0.00    -0.123 A  
ENDBRANCH   8   9
ENDBRANCH   6   8
ENDBRANCH   4   6
ENDBRANCH   2   4
TORSDOF 4
ENDMDL
MODEL      260
REMARK 921   NORMALIZED FREE ENERGY PREDICTED BY IDOCK:   10.94 KCAL/MOL
REMARK 922        TOTAL FREE ENERGY PREDICTED BY IDOCK:   12.73 KCAL/MOL
REMARK 923 INTER-LIGAND FREE ENERGY PREDICTED BY IDOCK:   11.98 KCAL/MOL
REMARK 924 INTRA-LIGAND FREE ENERGY PREDICTED BY IDOCK:    0.75 KCAL/MOL
REMARK 927      BINDING AFFINITY PREDICTED BY RF-SCORE:    0.00 PKD
ROOT
HETATM    1  C   UNL     1      -6.163  13.481  65.877  1.00  0.00     6.641 C  
HETATM    2  C   UNL     1      -6.240  12.100  66.531  1.00  0.00     0.542 C  
HETATM    3  C   UNL     1      -5.517  11.074  65.655  1.00  0.00    -0.082 C  
ENDROOT
BRANCH   2   4
HETATM    4  N   UNL     1      -5.628  12.063  67.867  1.00  0.00    -0.053 NA 
HETATM    5  H   UNL     1      -4.644  11.829  68.004  1.00  0.00     0.000 HD 
BRANCH   4   6
HETATM    6  C   UNL     1      -6.519  12.385  68.999  1.00  0.00    -0.097 C  
HETATM    7  C   UNL     1      -6.747  13.896  69.114  1.00  0.00    -0.113 C  
BRANCH   6   8
HETATM    8  C   UNL     1      -7.892  11.682  68.835  1.00  0.00    -0.040 C  
BRANCH   8   9
HETATM    9  C   UNL     1      -9.088  12.604  68.945  1.00  0.00     0.311 A  
HETATM   10  C   UNL     1      -9.173  13.552  69.974  1.00  0.00     2.749 A  
HETATM   11  C   UNL     1     -10.272  14.411  70.058  1.00  0.00     0.506 A  
HETATM   12  C   UNL     1     -11.295  14.323  69.114  1.00  0.00    -0.276 A  
HETATM   13  C   UNL     1     -11.227  13.379  68.089  1.00  0.00    -0.304 A  
HETATM   14  I   UNL     1     -12.924  15.607  69.229  1.00  0.00     2.417 I  
HETATM   15  C   UNL     1     -10.127  12.526  68.005  1.00  0.00    -0.220 A  
ENDBRANCH   8   9
ENDBRANCH   6   8
ENDBRANCH   4   6
ENDBRANCH   2   4
TORSDOF 4
ENDMDL
