MODEL        1
REMARK 921   NORMALIZED FREE ENERGY PREDICTED BY IDOCK:   -6.33 KCAL/MOL
REMARK 922        TOTAL FREE ENERGY PREDICTED BY IDOCK:   -8.64 KCAL/MOL
REMARK 923 INTER-LIGAND FREE ENERGY PREDICTED BY IDOCK:   -8.18 KCAL/MOL
REMARK 924 INTRA-LIGAND FREE ENERGY PREDICTED BY IDOCK:   -0.45 KCAL/MOL
REMARK 927      BINDING AFFINITY PREDICTED BY RF-SCORE:    0.00 PKD
ROOT
HETATM    1  C   UNL     1     -12.004  14.081  64.466  1.00  0.00    -0.448 C  
HETATM    2  C   UNL     1     -12.076  13.150  63.254  1.00  0.00    -0.460 C  
HETATM    3  C   UNL     1     -10.967  12.131  63.526  1.00  0.00    -0.521 C  
HETATM    4  C   UNL     1     -10.170  12.716  64.717  1.00  0.00    -0.283 C  
HETATM    5  C   UNL     1     -10.593  12.064  66.066  1.00  0.00    -0.303 C  
HETATM    6  N   UNL     1     -10.549  14.127  64.584  1.00  0.00    -0.414 NA 
HETATM    7  C   UNL     1     -12.773  13.437  65.644  1.00  0.00    -0.432 C  
HETATM    8  C   UNL     1     -11.939  12.617  66.670  1.00  0.00    -0.382 C  
ENDROOT
BRANCH   5   9
HETATM    9  C   UNL     1      -9.393  12.069  67.004  1.00  0.00    -0.191 C  
HETATM   10  O   UNL     1      -8.611  12.999  67.156  1.00  0.00    -0.196 OA 
BRANCH   9  11
HETATM   11  O   UNL     1      -9.288  10.905  67.711  1.00  0.00    -0.153 OA 
HETATM   12  C   UNL     1      -9.647   9.747  66.946  1.00  0.00    -0.180 C  
ENDBRANCH   9  11
ENDBRANCH   5   9
BRANCH   6  13
HETATM   13  C   UNL     1      -9.975  15.088  65.516  1.00  0.00    -0.356 C  
BRANCH  13  14
HETATM   14  C   UNL     1     -10.551  16.506  65.395  1.00  0.00    -0.293 C  
HETATM   15  F   UNL     1     -10.586  18.697  66.182  1.00  0.00    -0.415 F  
HETATM   16  C   UNL     1     -10.023  17.477  66.424  1.00  0.00    -0.325 C  
ENDBRANCH  13  14
ENDBRANCH   6  13
BRANCH   8  17
HETATM   17  C   UNL     1     -11.815  13.265  68.064  1.00  0.00    -0.392 A  
HETATM   18  I   UNL     1     -12.564  15.560  72.300  1.00  0.00    -0.646 I  
HETATM   19  C   UNL     1     -11.903  12.546  69.266  1.00  0.00    -0.360 A  
HETATM   20  C   UNL     1     -12.041  13.203  70.491  1.00  0.00    -0.385 A  
HETATM   21  C   UNL     1     -11.685  14.659  68.153  1.00  0.00    -0.360 A  
HETATM   22  C   UNL     1     -12.094  14.593  70.529  1.00  0.00    -0.321 A  
HETATM   23  C   UNL     1     -11.881  15.325  69.367  1.00  0.00    -0.367 A  
ENDBRANCH   8  17
TORSDOF 5
ENDMDL
MODEL        2
REMARK 921   NORMALIZED FREE ENERGY PREDICTED BY IDOCK:   -5.74 KCAL/MOL
REMARK 922        TOTAL FREE ENERGY PREDICTED BY IDOCK:   -7.88 KCAL/MOL
REMARK 923 INTER-LIGAND FREE ENERGY PREDICTED BY IDOCK:   -7.60 KCAL/MOL
REMARK 924 INTRA-LIGAND FREE ENERGY PREDICTED BY IDOCK:   -0.27 KCAL/MOL
REMARK 927      BINDING AFFINITY PREDICTED BY RF-SCORE:    0.00 PKD
ROOT
HETATM    1  C   UNL     1      -9.724  11.969  68.391  1.00  0.00    -0.199 C  
HETATM    2  C   UNL     1      -9.413  10.566  67.865  1.00  0.00    -0.157 C  
HETATM    3  C   UNL     1     -10.414  10.387  66.721  1.00  0.00    -0.287 C  
HETATM    4  C   UNL     1     -11.398  11.574  66.862  1.00  0.00    -0.253 C  
HETATM    5  C   UNL     1     -11.046  12.731  65.883  1.00  0.00    -0.318 C  
HETATM    6  N   UNL     1     -11.179  11.895  68.277  1.00  0.00    -0.239 NA 
HETATM    7  C   UNL     1      -9.014  13.012  67.497  1.00  0.00    -0.193 C  
HETATM    8  C   UNL     1      -9.848  13.643  66.345  1.00  0.00    -0.302 C  
ENDROOT
BRANCH   5   9
HETATM    9  C   UNL     1     -12.330  13.460  65.511  1.00  0.00    -0.480 C  
HETATM   10  O   UNL     1     -13.145  13.916  66.303  1.00  0.00    -0.131 OA 
BRANCH   9  11
HETATM   11  O   UNL     1     -12.476  13.591  64.159  1.00  0.00    -0.624 OA 
HETATM   12  C   UNL     1     -12.152  12.394  63.439  1.00  0.00    -0.524 C  
ENDBRANCH   9  11
ENDBRANCH   5   9
BRANCH   6  13
HETATM   13  C   UNL     1     -11.960  12.971  68.871  1.00  0.00    -0.263 C  
BRANCH  13  14
HETATM   14  C   UNL     1     -12.158  12.845  70.388  1.00  0.00    -0.385 C  
HETATM   15  F   UNL     1     -12.935  13.798  72.365  1.00  0.00    -0.430 F  
HETATM   16  C   UNL     1     -12.785  14.057  71.033  1.00  0.00    -0.361 C  
ENDBRANCH  13  14
ENDBRANCH   6  13
BRANCH   8  17
HETATM   17  C   UNL     1     -10.196  15.132  66.544  1.00  0.00    -0.283 A  
HETATM   18  I   UNL     1     -10.138  19.940  67.357  1.00  0.00    -0.565 I  
HETATM   19  C   UNL     1     -10.346  16.043  65.486  1.00  0.00    -0.415 A  
HETATM   20  C   UNL     1     -10.407  17.418  65.722  1.00  0.00    -0.226 A  
HETATM   21  C   UNL     1     -10.294  15.637  67.849  1.00  0.00    -0.259 A  
HETATM   22  C   UNL     1     -10.317  17.903  67.024  1.00  0.00    -0.362 A  
HETATM   23  C   UNL     1     -10.296  17.014  68.092  1.00  0.00    -0.347 A  
ENDBRANCH   8  17
TORSDOF 5
ENDMDL
MODEL        3
REMARK 921   NORMALIZED FREE ENERGY PREDICTED BY IDOCK:   -5.67 KCAL/MOL
REMARK 922        TOTAL FREE ENERGY PREDICTED BY IDOCK:   -7.79 KCAL/MOL
REMARK 923 INTER-LIGAND FREE ENERGY PREDICTED BY IDOCK:   -7.52 KCAL/MOL
REMARK 924 INTRA-LIGAND FREE ENERGY PREDICTED BY IDOCK:   -0.26 KCAL/MOL
REMARK 927      BINDING AFFINITY PREDICTED BY RF-SCORE:    0.00 PKD
ROOT
HETATM    1  C   UNL     1     -10.133  13.696  68.405  1.00  0.00    -0.241 C  
HETATM    2  C   UNL     1     -11.162  12.873  67.625  1.00  0.00    -0.317 C  
HETATM    3  C   UNL     1     -11.974  13.936  66.882  1.00  0.00    -0.467 C  
HETATM    4  C   UNL     1     -11.535  15.283  67.506  1.00  0.00    -0.265 C  
HETATM    5  C   UNL     1     -10.475  16.005  66.625  1.00  0.00    -0.304 C  
HETATM    6  N   UNL     1     -11.019  14.792  68.788  1.00  0.00    -0.248 NA 
HETATM    7  C   UNL     1      -8.958  14.054  67.465  1.00  0.00    -0.195 C  
HETATM    8  C   UNL     1      -9.011  15.441  66.762  1.00  0.00    -0.288 C  
ENDROOT
BRANCH   5   9
HETATM    9  C   UNL     1     -10.627  17.508  66.816  1.00  0.00    -0.201 C  
HETATM   10  O   UNL     1     -10.794  18.077  67.887  1.00  0.00    -0.367 OA 
BRANCH   9  11
HETATM   11  O   UNL     1     -10.525  18.190  65.637  1.00  0.00    -0.626 OA 
HETATM   12  C   UNL     1     -10.453  19.612  65.812  1.00  0.00    -0.444 C  
ENDBRANCH   9  11
ENDBRANCH   5   9
BRANCH   6  13
HETATM   13  C   UNL     1     -10.515  15.763  69.750  1.00  0.00    -0.317 C  
BRANCH  13  14
HETATM   14  C   UNL     1     -11.482  16.072  70.901  1.00  0.00    -0.451 C  
HETATM   15  F   UNL     1     -13.612  15.836  71.810  1.00  0.00    -0.517 F  
HETATM   16  C   UNL     1     -12.874  15.521  70.706  1.00  0.00    -0.458 C  
ENDBRANCH  13  14
ENDBRANCH   6  13
BRANCH   8  17
HETATM   17  C   UNL     1      -7.961  16.456  67.261  1.00  0.00    -0.196 A  
HETATM   18  I   UNL     1      -5.539  20.424  68.731  1.00  0.00    -0.395 I  
HETATM   19  C   UNL     1      -7.650  16.648  68.616  1.00  0.00    -0.214 A  
HETATM   20  C   UNL     1      -6.890  17.743  69.033  1.00  0.00    -0.244 A  
HETATM   21  C   UNL     1      -7.333  17.295  66.329  1.00  0.00    -0.342 A  
HETATM   22  C   UNL     1      -6.432  18.666  68.096  1.00  0.00    -0.213 A  
HETATM   23  C   UNL     1      -6.621  18.425  66.741  1.00  0.00    -0.212 A  
ENDBRANCH   8  17
TORSDOF 5
ENDMDL
MODEL        4
REMARK 921   NORMALIZED FREE ENERGY PREDICTED BY IDOCK:   -5.62 KCAL/MOL
REMARK 922        TOTAL FREE ENERGY PREDICTED BY IDOCK:   -7.72 KCAL/MOL
REMARK 923 INTER-LIGAND FREE ENERGY PREDICTED BY IDOCK:   -7.44 KCAL/MOL
REMARK 924 INTRA-LIGAND FREE ENERGY PREDICTED BY IDOCK:   -0.28 KCAL/MOL
REMARK 927      BINDING AFFINITY PREDICTED BY RF-SCORE:    0.00 PKD
ROOT
HETATM    1  C   UNL     1     -12.519  13.987  65.780  1.00  0.00    -0.494 C  
HETATM    2  C   UNL     1     -12.068  14.712  64.510  1.00  0.00    -0.490 C  
HETATM    3  C   UNL     1     -10.559  14.873  64.712  1.00  0.00    -0.336 C  
HETATM    4  C   UNL     1     -10.310  14.485  66.190  1.00  0.00    -0.297 C  
HETATM    5  C   UNL     1      -9.799  13.021  66.321  1.00  0.00    -0.278 C  
HETATM    6  N   UNL     1     -11.660  14.702  66.721  1.00  0.00    -0.371 NA 
HETATM    7  C   UNL     1     -12.253  12.472  65.618  1.00  0.00    -0.403 C  
HETATM    8  C   UNL     1     -10.919  11.920  66.201  1.00  0.00    -0.352 C  
ENDROOT
BRANCH   5   9
HETATM    9  C   UNL     1      -8.906  12.927  67.551  1.00  0.00    -0.192 C  
HETATM   10  O   UNL     1      -9.047  13.568  68.585  1.00  0.00    -0.130 OA 
BRANCH   9  11
HETATM   11  O   UNL     1      -7.913  12.002  67.397  1.00  0.00    -0.147 OA 
HETATM   12  C   UNL     1      -7.140  11.800  68.588  1.00  0.00    -0.101 C  
ENDBRANCH   9  11
ENDBRANCH   5   9
BRANCH   6  13
HETATM   13  C   UNL     1     -11.887  14.486  68.143  1.00  0.00    -0.313 C  
BRANCH  13  14
HETATM   14  C   UNL     1     -11.784  15.755  69.000  1.00  0.00    -0.405 C  
HETATM   15  F   UNL     1     -11.533  16.695  71.115  1.00  0.00    -0.413 F  
HETATM   16  C   UNL     1     -11.650  15.493  70.481  1.00  0.00    -0.346 C  
ENDBRANCH  13  14
ENDBRANCH   6  13
BRANCH   8  17
HETATM   17  C   UNL     1     -11.084  11.014  67.438  1.00  0.00    -0.370 A  
HETATM   18  I   UNL     1     -10.529   8.558  71.613  1.00  0.00    -0.426 I  
HETATM   19  C   UNL     1     -11.774  11.401  68.598  1.00  0.00    -0.394 A  
HETATM   20  C   UNL     1     -11.678  10.656  69.775  1.00  0.00    -0.385 A  
HETATM   21  C   UNL     1     -10.448   9.764  67.452  1.00  0.00    -0.319 A  
HETATM   22  C   UNL     1     -10.887   9.512  69.809  1.00  0.00    -0.243 A  
HETATM   23  C   UNL     1     -10.300   9.043  68.640  1.00  0.00    -0.233 A  
ENDBRANCH   8  17
TORSDOF 5
ENDMDL
MODEL        5
REMARK 921   NORMALIZED FREE ENERGY PREDICTED BY IDOCK:   -5.41 KCAL/MOL
REMARK 922        TOTAL FREE ENERGY PREDICTED BY IDOCK:   -7.45 KCAL/MOL
REMARK 923 INTER-LIGAND FREE ENERGY PREDICTED BY IDOCK:   -6.98 KCAL/MOL
REMARK 924 INTRA-LIGAND FREE ENERGY PREDICTED BY IDOCK:   -0.47 KCAL/MOL
REMARK 927      BINDING AFFINITY PREDICTED BY RF-SCORE:    0.00 PKD
ROOT
HETATM    1  C   UNL     1     -12.202  14.165  66.304  1.00  0.00    -0.449 C  
HETATM    2  C   UNL     1     -11.947  14.659  64.877  1.00  0.00    -0.402 C  
HETATM    3  C   UNL     1     -10.429  14.535  64.727  1.00  0.00    -0.365 C  
HETATM    4  C   UNL     1      -9.907  14.252  66.157  1.00  0.00    -0.316 C  
HETATM    5  C   UNL     1      -9.639  12.735  66.380  1.00  0.00    -0.254 C  
HETATM    6  N   UNL     1     -11.036  14.783  66.929  1.00  0.00    -0.320 NA 
HETATM    7  C   UNL     1     -12.246  12.619  66.302  1.00  0.00    -0.225 C  
HETATM    8  C   UNL     1     -10.928  11.873  66.657  1.00  0.00    -0.336 C  
ENDROOT
BRANCH   5   9
HETATM    9  C   UNL     1      -8.510  12.585  67.391  1.00  0.00    -0.181 C  
HETATM   10  O   UNL     1      -8.416  13.194  68.449  1.00  0.00    -0.168 OA 
BRANCH   9  11
HETATM   11  O   UNL     1      -7.594  11.648  67.006  1.00  0.00    -0.144 OA 
HETATM   12  C   UNL     1      -6.813  11.141  68.096  1.00  0.00    -0.067 C  
ENDBRANCH   9  11
ENDBRANCH   5   9
BRANCH   6  13
HETATM   13  C   UNL     1     -10.954  14.756  68.383  1.00  0.00    -0.252 C  
BRANCH  13  14
HETATM   14  C   UNL     1     -12.140  15.419  69.096  1.00  0.00    -0.270 C  
HETATM   15  F   UNL     1     -13.293  15.791  71.084  1.00  0.00    -0.533 F  
HETATM   16  C   UNL     1     -12.222  15.117  70.573  1.00  0.00    -0.341 C  
ENDBRANCH  13  14
ENDBRANCH   6  13
BRANCH   8  17
HETATM   17  C   UNL     1     -10.948  11.142  68.016  1.00  0.00    -0.307 A  
HETATM   18  I   UNL     1     -12.069   8.468  71.936  1.00  0.00    -0.485 I  
HETATM   19  C   UNL     1     -10.334   9.899  68.238  1.00  0.00    -0.232 A  
HETATM   20  C   UNL     1     -10.594   9.164  69.397  1.00  0.00    -0.232 A  
HETATM   21  C   UNL     1     -11.681  11.698  69.074  1.00  0.00    -0.388 A  
HETATM   22  C   UNL     1     -11.476   9.664  70.351  1.00  0.00    -0.263 A  
HETATM   23  C   UNL     1     -11.993  10.946  70.210  1.00  0.00    -0.448 A  
ENDBRANCH   8  17
TORSDOF 5
ENDMDL
MODEL        6
REMARK 921   NORMALIZED FREE ENERGY PREDICTED BY IDOCK:   -5.39 KCAL/MOL
REMARK 922        TOTAL FREE ENERGY PREDICTED BY IDOCK:   -7.42 KCAL/MOL
REMARK 923 INTER-LIGAND FREE ENERGY PREDICTED BY IDOCK:   -7.19 KCAL/MOL
REMARK 924 INTRA-LIGAND FREE ENERGY PREDICTED BY IDOCK:   -0.22 KCAL/MOL
REMARK 927      BINDING AFFINITY PREDICTED BY RF-SCORE:    0.00 PKD
ROOT
HETATM    1  C   UNL     1      -9.780  11.328  68.873  1.00  0.00    -0.127 C  
HETATM    2  C   UNL     1      -9.765   9.921  68.271  1.00  0.00    -0.159 C  
HETATM    3  C   UNL     1     -10.581  10.078  66.986  1.00  0.00    -0.279 C  
HETATM    4  C   UNL     1     -11.231  11.479  67.094  1.00  0.00    -0.301 C  
HETATM    5  C   UNL     1     -10.436  12.544  66.283  1.00  0.00    -0.268 C  
HETATM    6  N   UNL     1     -11.165  11.659  68.548  1.00  0.00    -0.232 NA 
HETATM    7  C   UNL     1      -8.688  12.182  68.187  1.00  0.00    -0.185 C  
HETATM    8  C   UNL     1      -9.132  13.072  66.991  1.00  0.00    -0.230 C  
ENDROOT
BRANCH   5   9
HETATM    9  C   UNL     1     -11.408  13.613  65.801  1.00  0.00    -0.306 C  
HETATM   10  O   UNL     1     -12.282  14.139  66.479  1.00  0.00    -0.445 OA 
BRANCH   9  11
HETATM   11  O   UNL     1     -11.185  13.964  64.500  1.00  0.00    -0.369 OA 
HETATM   12  C   UNL     1     -11.843  13.102  63.562  1.00  0.00    -0.476 C  
ENDBRANCH   9  11
ENDBRANCH   5   9
BRANCH   6  13
HETATM   13  C   UNL     1     -11.723  12.876  69.122  1.00  0.00    -0.324 C  
BRANCH  13  14
HETATM   14  C   UNL     1     -12.201  12.729  70.572  1.00  0.00    -0.389 C  
HETATM   15  F   UNL     1     -12.972  11.331  72.267  1.00  0.00    -0.535 F  
HETATM   16  C   UNL     1     -12.604  11.325  70.953  1.00  0.00    -0.371 C  
ENDBRANCH  13  14
ENDBRANCH   6  13
BRANCH   8  17
HETATM   17  C   UNL     1      -9.107  14.588  67.272  1.00  0.00    -0.217 A  
HETATM   18  I   UNL     1     -10.092  19.348  67.656  1.00  0.00    -0.621 I  
HETATM   19  C   UNL     1      -9.454  15.154  68.510  1.00  0.00    -0.203 A  
HETATM   20  C   UNL     1      -9.662  16.529  68.641  1.00  0.00    -0.247 A  
HETATM   21  C   UNL     1      -8.800  15.467  66.224  1.00  0.00    -0.338 A  
HETATM   22  C   UNL     1      -9.527  17.359  67.531  1.00  0.00    -0.250 A  
HETATM   23  C   UNL     1      -9.061  16.837  66.330  1.00  0.00    -0.321 A  
ENDBRANCH   8  17
TORSDOF 5
ENDMDL
MODEL        7
REMARK 921   NORMALIZED FREE ENERGY PREDICTED BY IDOCK:   -5.38 KCAL/MOL
REMARK 922        TOTAL FREE ENERGY PREDICTED BY IDOCK:   -7.41 KCAL/MOL
REMARK 923 INTER-LIGAND FREE ENERGY PREDICTED BY IDOCK:   -7.10 KCAL/MOL
REMARK 924 INTRA-LIGAND FREE ENERGY PREDICTED BY IDOCK:   -0.32 KCAL/MOL
REMARK 927      BINDING AFFINITY PREDICTED BY RF-SCORE:    0.00 PKD
ROOT
HETATM    1  C   UNL     1     -10.624  13.313  64.257  1.00  0.00    -0.384 C  
HETATM    2  C   UNL     1     -11.959  12.947  63.602  1.00  0.00    -0.613 C  
HETATM    3  C   UNL     1     -12.859  12.619  64.795  1.00  0.00    -0.349 C  
HETATM    4  C   UNL     1     -11.903  12.549  66.010  1.00  0.00    -0.418 C  
HETATM    5  C   UNL     1     -11.920  13.870  66.831  1.00  0.00    -0.467 C  
HETATM    6  N   UNL     1     -10.642  12.295  65.304  1.00  0.00    -0.277 NA 
HETATM    7  C   UNL     1     -10.679  14.786  64.725  1.00  0.00    -0.380 C  
HETATM    8  C   UNL     1     -11.074  15.044  66.208  1.00  0.00    -0.334 C  
ENDROOT
BRANCH   5   9
HETATM    9  C   UNL     1     -11.624  13.541  68.288  1.00  0.00    -0.346 C  
HETATM   10  O   UNL     1     -10.781  12.746  68.682  1.00  0.00    -0.245 OA 
BRANCH   9  11
HETATM   11  O   UNL     1     -12.397  14.268  69.148  1.00  0.00    -0.277 OA 
HETATM   12  C   UNL     1     -12.111  14.001  70.528  1.00  0.00    -0.353 C  
ENDBRANCH   9  11
ENDBRANCH   5   9
BRANCH   6  13
HETATM   13  C   UNL     1      -9.431  12.114  66.093  1.00  0.00    -0.224 C  
BRANCH  13  14
HETATM   14  C   UNL     1      -9.085  10.650  66.393  1.00  0.00    -0.183 C  
HETATM   15  F   UNL     1      -9.322   8.406  65.819  1.00  0.00    -0.240 F  
HETATM   16  C   UNL     1      -9.741   9.655  65.464  1.00  0.00    -0.301 C  
ENDBRANCH  13  14
ENDBRANCH   6  13
BRANCH   8  17
HETATM   17  C   UNL     1      -9.928  15.570  67.096  1.00  0.00    -0.242 A  
HETATM   18  I   UNL     1      -6.097  17.929  68.976  1.00  0.00    -0.240 I  
HETATM   19  C   UNL     1     -10.101  16.548  68.089  1.00  0.00    -0.255 A  
HETATM   20  C   UNL     1      -9.003  17.172  68.685  1.00  0.00    -0.267 A  
HETATM   21  C   UNL     1      -8.623  15.115  66.859  1.00  0.00    -0.289 A  
HETATM   22  C   UNL     1      -7.713  16.826  68.294  1.00  0.00    -0.187 A  
HETATM   23  C   UNL     1      -7.518  15.773  67.408  1.00  0.00    -0.225 A  
ENDBRANCH   8  17
TORSDOF 5
ENDMDL
MODEL        8
REMARK 921   NORMALIZED FREE ENERGY PREDICTED BY IDOCK:   -5.37 KCAL/MOL
REMARK 922        TOTAL FREE ENERGY PREDICTED BY IDOCK:   -7.40 KCAL/MOL
REMARK 923 INTER-LIGAND FREE ENERGY PREDICTED BY IDOCK:   -7.06 KCAL/MOL
REMARK 924 INTRA-LIGAND FREE ENERGY PREDICTED BY IDOCK:   -0.34 KCAL/MOL
REMARK 927      BINDING AFFINITY PREDICTED BY RF-SCORE:    0.00 PKD
ROOT
HETATM    1  C   UNL     1     -10.607  14.703  66.100  1.00  0.00    -0.312 C  
HETATM    2  C   UNL     1     -10.846  14.049  64.736  1.00  0.00    -0.430 C  
HETATM    3  C   UNL     1     -10.610  12.562  65.012  1.00  0.00    -0.329 C  
HETATM    4  C   UNL     1      -9.985  12.512  66.428  1.00  0.00    -0.252 C  
HETATM    5  C   UNL     1     -11.047  12.167  67.512  1.00  0.00    -0.328 C  
HETATM    6  N   UNL     1      -9.468  13.883  66.506  1.00  0.00    -0.283 NA 
HETATM    7  C   UNL     1     -11.890  14.574  66.954  1.00  0.00    -0.399 C  
HETATM    8  C   UNL     1     -11.967  13.372  67.939  1.00  0.00    -0.360 C  
ENDROOT
BRANCH   5   9
HETATM    9  C   UNL     1     -10.357  11.425  68.648  1.00  0.00    -0.203 C  
HETATM   10  O   UNL     1      -9.209  11.615  69.031  1.00  0.00     0.000 OA 
BRANCH   9  11
HETATM   11  O   UNL     1     -11.182  10.514  69.244  1.00  0.00    -0.231 OA 
HETATM   12  C   UNL     1     -10.578   9.854  70.365  1.00  0.00    -0.302 C  
ENDBRANCH   9  11
ENDBRANCH   5   9
BRANCH   6  13
HETATM   13  C   UNL     1      -8.741  14.281  67.703  1.00  0.00    -0.191 C  
BRANCH  13  14
HETATM   14  C   UNL     1      -8.092  15.670  67.616  1.00  0.00    -0.166 C  
HETATM   15  F   UNL     1      -7.219  17.516  68.734  1.00  0.00    -0.215 F  
HETATM   16  C   UNL     1      -7.824  16.313  68.956  1.00  0.00    -0.235 C  
ENDBRANCH  13  14
ENDBRANCH   6  13
BRANCH   8  17
HETATM   17  C   UNL     1     -11.893  13.758  69.430  1.00  0.00    -0.392 A  
HETATM   18  I   UNL     1     -12.445  15.795  73.826  1.00  0.00    -0.817 I  
HETATM   19  C   UNL     1     -12.624  13.108  70.438  1.00  0.00    -0.186 A  
HETATM   20  C   UNL     1     -12.721  13.650  71.721  1.00  0.00    -0.359 A  
HETATM   21  C   UNL     1     -11.119  14.865  69.807  1.00  0.00    -0.300 A  
HETATM   22  C   UNL     1     -12.087  14.855  72.015  1.00  0.00    -0.359 A  
HETATM   23  C   UNL     1     -11.256  15.446  71.071  1.00  0.00    -0.408 A  
ENDBRANCH   8  17
TORSDOF 5
ENDMDL
MODEL        9
REMARK 921   NORMALIZED FREE ENERGY PREDICTED BY IDOCK:   -5.20 KCAL/MOL
REMARK 922        TOTAL FREE ENERGY PREDICTED BY IDOCK:   -7.17 KCAL/MOL
REMARK 923 INTER-LIGAND FREE ENERGY PREDICTED BY IDOCK:   -6.95 KCAL/MOL
REMARK 924 INTRA-LIGAND FREE ENERGY PREDICTED BY IDOCK:   -0.22 KCAL/MOL
REMARK 927      BINDING AFFINITY PREDICTED BY RF-SCORE:    0.00 PKD
ROOT
HETATM    1  C   UNL     1     -12.387  14.010  65.917  1.00  0.00    -0.486 C  
HETATM    2  C   UNL     1     -11.993  14.471  64.512  1.00  0.00    -0.482 C  
HETATM    3  C   UNL     1     -10.466  14.549  64.582  1.00  0.00    -0.240 C  
HETATM    4  C   UNL     1     -10.126  14.402  66.085  1.00  0.00    -0.309 C  
HETATM    5  C   UNL     1      -9.700  12.947  66.437  1.00  0.00    -0.263 C  
HETATM    6  N   UNL     1     -11.414  14.808  66.659  1.00  0.00    -0.354 NA 
HETATM    7  C   UNL     1     -12.231  12.473  66.007  1.00  0.00    -0.263 C  
HETATM    8  C   UNL     1     -10.894  11.930  66.587  1.00  0.00    -0.315 C  
ENDROOT
BRANCH   5   9
HETATM    9  C   UNL     1      -8.721  12.996  67.603  1.00  0.00    -0.189 C  
HETATM   10  O   UNL     1      -8.790  13.758  68.559  1.00  0.00    -0.174 OA 
BRANCH   9  11
HETATM   11  O   UNL     1      -7.740  12.053  67.491  1.00  0.00    -0.135 OA 
HETATM   12  C   UNL     1      -7.104  11.751  68.740  1.00  0.00    -0.111 C  
ENDBRANCH   9  11
ENDBRANCH   5   9
BRANCH   6  13
HETATM   13  C   UNL     1     -11.542  14.855  68.109  1.00  0.00    -0.334 C  
BRANCH  13  14
HETATM   14  C   UNL     1     -11.506  16.271  68.701  1.00  0.00    -0.288 C  
HETATM   15  F   UNL     1     -10.452  18.345  68.799  1.00  0.00    -0.358 F  
HETATM   16  C   UNL     1     -10.343  17.110  68.227  1.00  0.00    -0.354 C  
ENDBRANCH  13  14
ENDBRANCH   6  13
BRANCH   8  17
HETATM   17  C   UNL     1     -11.018  11.263  67.972  1.00  0.00    -0.302 A  
HETATM   18  I   UNL     1     -12.463   8.825  71.940  1.00  0.00    -0.499 I  
HETATM   19  C   UNL     1     -10.478  10.004  68.279  1.00  0.00    -0.246 A  
HETATM   20  C   UNL     1     -10.831   9.335  69.454  1.00  0.00    -0.184 A  
HETATM   21  C   UNL     1     -11.775  11.901  68.966  1.00  0.00    -0.391 A  
HETATM   22  C   UNL     1     -11.734   9.919  70.339  1.00  0.00    -0.258 A  
HETATM   23  C   UNL     1     -12.179  11.216  70.116  1.00  0.00    -0.417 A  
ENDBRANCH   8  17
TORSDOF 5
ENDMDL
MODEL       10
REMARK 921   NORMALIZED FREE ENERGY PREDICTED BY IDOCK:   -5.17 KCAL/MOL
REMARK 922        TOTAL FREE ENERGY PREDICTED BY IDOCK:   -7.13 KCAL/MOL
REMARK 923 INTER-LIGAND FREE ENERGY PREDICTED BY IDOCK:   -6.87 KCAL/MOL
REMARK 924 INTRA-LIGAND FREE ENERGY PREDICTED BY IDOCK:   -0.26 KCAL/MOL
REMARK 927      BINDING AFFINITY PREDICTED BY RF-SCORE:    0.00 PKD
ROOT
HETATM    1  C   UNL     1     -10.984  12.917  64.936  1.00  0.00    -0.301 C  
HETATM    2  C   UNL     1     -10.893  11.895  63.799  1.00  0.00    -0.481 C  
HETATM    3  C   UNL     1     -10.046  10.772  64.402  1.00  0.00    -0.419 C  
HETATM    4  C   UNL     1      -9.486  11.356  65.722  1.00  0.00    -0.233 C  
HETATM    5  C   UNL     1     -10.316  10.890  66.952  1.00  0.00    -0.285 C  
HETATM    6  N   UNL     1      -9.611  12.786  65.418  1.00  0.00    -0.028 NA 
HETATM    7  C   UNL     1     -12.102  12.486  65.914  1.00  0.00    -0.420 C  
HETATM    8  C   UNL     1     -11.673  11.663  67.162  1.00  0.00    -0.215 C  
ENDROOT
BRANCH   5   9
HETATM    9  C   UNL     1      -9.395  10.827  68.164  1.00  0.00    -0.155 C  
HETATM   10  O   UNL     1      -8.437  11.562  68.369  1.00  0.00    -0.149 OA 
BRANCH   9  11
HETATM   11  O   UNL     1      -9.773   9.858  69.048  1.00  0.00    -0.175 OA 
HETATM   12  C   UNL     1      -9.906   8.564  68.444  1.00  0.00    -0.173 C  
ENDBRANCH   9  11
ENDBRANCH   5   9
BRANCH   6  13
HETATM   13  C   UNL     1      -9.147  13.747  66.409  1.00  0.00    -0.059 C  
BRANCH  13  14
HETATM   14  C   UNL     1      -9.502  15.206  66.090  1.00  0.00    -0.354 C  
HETATM   15  F   UNL     1      -8.953  17.460  66.282  1.00  0.00    -0.266 F  
HETATM   16  C   UNL     1      -8.543  16.218  66.669  1.00  0.00    -0.267 C  
ENDBRANCH  13  14
ENDBRANCH   6  13
BRANCH   8  17
HETATM   17  C   UNL     1     -11.799  12.414  68.503  1.00  0.00    -0.352 A  
HETATM   18  I   UNL     1     -13.287  15.018  72.348  1.00  0.00    -0.706 I  
HETATM   19  C   UNL     1     -12.115  11.787  69.718  1.00  0.00    -0.338 A  
HETATM   20  C   UNL     1     -12.468  12.533  70.845  1.00  0.00    -0.361 A  
HETATM   21  C   UNL     1     -11.673  13.811  68.512  1.00  0.00    -0.391 A  
HETATM   22  C   UNL     1     -12.511  13.923  70.770  1.00  0.00    -0.375 A  
HETATM   23  C   UNL     1     -12.079  14.566  69.616  1.00  0.00    -0.369 A  
ENDBRANCH   8  17
TORSDOF 5
ENDMDL
MODEL       11
REMARK 921   NORMALIZED FREE ENERGY PREDICTED BY IDOCK:   -5.14 KCAL/MOL
REMARK 922        TOTAL FREE ENERGY PREDICTED BY IDOCK:   -7.09 KCAL/MOL
REMARK 923 INTER-LIGAND FREE ENERGY PREDICTED BY IDOCK:   -6.75 KCAL/MOL
REMARK 924 INTRA-LIGAND FREE ENERGY PREDICTED BY IDOCK:   -0.34 KCAL/MOL
REMARK 927      BINDING AFFINITY PREDICTED BY RF-SCORE:    0.00 PKD
ROOT
HETATM    1  C   UNL     1     -10.790  15.087  67.172  1.00  0.00    -0.314 C  
HETATM    2  C   UNL     1     -10.963  16.166  68.244  1.00  0.00    -0.340 C  
HETATM    3  C   UNL     1     -11.605  15.408  69.408  1.00  0.00    -0.354 C  
HETATM    4  C   UNL     1     -12.005  14.033  68.818  1.00  0.00    -0.347 C  
HETATM    5  C   UNL     1     -10.958  12.935  69.162  1.00  0.00    -0.184 C  
HETATM    6  N   UNL     1     -12.056  14.393  67.396  1.00  0.00    -0.374 NA 
HETATM    7  C   UNL     1      -9.502  14.284  67.467  1.00  0.00    -0.209 C  
HETATM    8  C   UNL     1      -9.659  12.961  68.270  1.00  0.00    -0.212 C  
ENDROOT
BRANCH   5   9
HETATM    9  C   UNL     1     -11.673  11.593  69.251  1.00  0.00    -0.331 C  
HETATM   10  O   UNL     1     -12.378  11.102  68.378  1.00  0.00    -0.556 OA 
BRANCH   9  11
HETATM   11  O   UNL     1     -11.418  10.951  70.429  1.00  0.00    -0.307 OA 
HETATM   12  C   UNL     1     -12.608  10.561  71.128  1.00  0.00    -0.417 C  
ENDBRANCH   9  11
ENDBRANCH   5   9
BRANCH   6  13
HETATM   13  C   UNL     1     -12.446  13.369  66.437  1.00  0.00    -0.236 C  
BRANCH  13  14
HETATM   14  C   UNL     1     -12.388  13.821  64.971  1.00  0.00    -0.456 C  
HETATM   15  F   UNL     1     -12.282  13.226  62.723  1.00  0.00    -0.509 F  
HETATM   16  C   UNL     1     -12.289  12.689  63.978  1.00  0.00    -0.443 C  
ENDBRANCH  13  14
ENDBRANCH   6  13
BRANCH   8  17
HETATM   17  C   UNL     1      -9.396  11.679  67.456  1.00  0.00    -0.168 A  
HETATM   18  I   UNL     1      -7.581   8.194  64.568  1.00  0.00    -0.131 I  
HETATM   19  C   UNL     1      -8.830  10.515  68.001  1.00  0.00    -0.131 A  
HETATM   20  C   UNL     1      -8.379   9.480  67.178  1.00  0.00    -0.131 A  
HETATM   21  C   UNL     1      -9.657  11.685  66.078  1.00  0.00    -0.249 A  
HETATM   22  C   UNL     1      -8.486   9.597  65.795  1.00  0.00    -0.133 A  
HETATM   23  C   UNL     1      -9.157  10.681  65.243  1.00  0.00    -0.221 A  
ENDBRANCH   8  17
TORSDOF 5
ENDMDL
MODEL       12
REMARK 921   NORMALIZED FREE ENERGY PREDICTED BY IDOCK:   -5.13 KCAL/MOL
REMARK 922        TOTAL FREE ENERGY PREDICTED BY IDOCK:   -7.08 KCAL/MOL
REMARK 923 INTER-LIGAND FREE ENERGY PREDICTED BY IDOCK:   -6.79 KCAL/MOL
REMARK 924 INTRA-LIGAND FREE ENERGY PREDICTED BY IDOCK:   -0.29 KCAL/MOL
REMARK 927      BINDING AFFINITY PREDICTED BY RF-SCORE:    0.00 PKD
ROOT
HETATM    1  C   UNL     1     -11.040  12.395  65.980  1.00  0.00    -0.308 C  
HETATM    2  C   UNL     1     -12.270  12.468  65.071  1.00  0.00    -0.519 C  
HETATM    3  C   UNL     1     -12.991  13.728  65.554  1.00  0.00    -0.363 C  
HETATM    4  C   UNL     1     -12.278  14.118  66.871  1.00  0.00    -0.365 C  
HETATM    5  C   UNL     1     -11.232  15.248  66.646  1.00  0.00    -0.232 C  
HETATM    6  N   UNL     1     -11.694  12.817  67.217  1.00  0.00    -0.369 NA 
HETATM    7  C   UNL     1      -9.944  13.334  65.424  1.00  0.00    -0.205 C  
HETATM    8  C   UNL     1      -9.866  14.766  66.026  1.00  0.00    -0.350 C  
ENDROOT
BRANCH   5   9
HETATM    9  C   UNL     1     -11.126  16.073  67.921  1.00  0.00    -0.307 C  
HETATM   10  O   UNL     1     -11.356  15.668  69.054  1.00  0.00    -0.283 OA 
BRANCH   9  11
HETATM   11  O   UNL     1     -10.705  17.349  67.676  1.00  0.00    -0.363 OA 
HETATM   12  C   UNL     1     -10.117  17.979  68.821  1.00  0.00    -0.381 C  
ENDBRANCH   9  11
ENDBRANCH   5   9
BRANCH   6  13
HETATM   13  C   UNL     1     -10.936  12.705  68.455  1.00  0.00    -0.257 C  
BRANCH  13  14
HETATM   14  C   UNL     1     -11.621  11.866  69.542  1.00  0.00    -0.394 C  
HETATM   15  F   UNL     1     -12.878  11.819  71.501  1.00  0.00    -0.466 F  
HETATM   16  C   UNL     1     -12.283  12.682  70.627  1.00  0.00    -0.285 C  
ENDBRANCH  13  14
ENDBRANCH   6  13
BRANCH   8  17
HETATM   17  C   UNL     1      -8.621  15.031  66.897  1.00  0.00    -0.280 A  
HETATM   18  I   UNL     1      -5.375  16.692  70.134  1.00  0.00    -0.193 I  
HETATM   19  C   UNL     1      -8.303  14.286  68.044  1.00  0.00    -0.157 A  
HETATM   20  C   UNL     1      -7.319  14.720  68.935  1.00  0.00    -0.130 A  
HETATM   21  C   UNL     1      -7.795  16.120  66.585  1.00  0.00    -0.288 A  
HETATM   22  C   UNL     1      -6.639  15.910  68.690  1.00  0.00    -0.118 A  
HETATM   23  C   UNL     1      -6.849  16.594  67.499  1.00  0.00    -0.177 A  
ENDBRANCH   8  17
TORSDOF 5
ENDMDL
MODEL       13
REMARK 921   NORMALIZED FREE ENERGY PREDICTED BY IDOCK:   -5.06 KCAL/MOL
REMARK 922        TOTAL FREE ENERGY PREDICTED BY IDOCK:   -7.00 KCAL/MOL
REMARK 923 INTER-LIGAND FREE ENERGY PREDICTED BY IDOCK:   -6.65 KCAL/MOL
REMARK 924 INTRA-LIGAND FREE ENERGY PREDICTED BY IDOCK:   -0.35 KCAL/MOL
REMARK 927      BINDING AFFINITY PREDICTED BY RF-SCORE:    0.00 PKD
ROOT
HETATM    1  C   UNL     1     -10.640  14.986  66.932  1.00  0.00    -0.297 C  
HETATM    2  C   UNL     1     -10.883  16.219  67.806  1.00  0.00    -0.315 C  
HETATM    3  C   UNL     1     -11.663  15.659  68.998  1.00  0.00    -0.408 C  
HETATM    4  C   UNL     1     -12.047  14.218  68.582  1.00  0.00    -0.260 C  
HETATM    5  C   UNL     1     -11.077  13.167  69.194  1.00  0.00    -0.248 C  
HETATM    6  N   UNL     1     -11.944  14.357  67.126  1.00  0.00    -0.414 NA 
HETATM    7  C   UNL     1      -9.414  14.216  67.477  1.00  0.00    -0.210 C  
HETATM    8  C   UNL     1      -9.695  13.034  68.449  1.00  0.00    -0.192 C  
ENDROOT
BRANCH   5   9
HETATM    9  C   UNL     1     -11.841  11.867  69.409  1.00  0.00    -0.327 C  
HETATM   10  O   UNL     1     -12.398  11.215  68.535  1.00  0.00    -0.561 OA 
BRANCH   9  11
HETATM   11  O   UNL     1     -11.818  11.466  70.714  1.00  0.00    -0.309 OA 
HETATM   12  C   UNL     1     -11.766  10.041  70.866  1.00  0.00    -0.374 C  
ENDBRANCH   9  11
ENDBRANCH   5   9
BRANCH   6  13
HETATM   13  C   UNL     1     -12.268  13.205  66.296  1.00  0.00    -0.355 C  
BRANCH  13  14
HETATM   14  C   UNL     1     -12.159  13.462  64.786  1.00  0.00    -0.448 C  
HETATM   15  F   UNL     1     -12.216  12.597  62.626  1.00  0.00    -0.165 F  
HETATM   16  C   UNL     1     -12.297  12.223  63.936  1.00  0.00    -0.509 C  
ENDBRANCH  13  14
ENDBRANCH   6  13
BRANCH   8  17
HETATM   17  C   UNL     1      -9.394  11.638  67.869  1.00  0.00    -0.174 A  
HETATM   18  I   UNL     1      -9.431   6.928  66.605  1.00  0.00    -0.140 I  
HETATM   19  C   UNL     1      -9.749  11.244  66.569  1.00  0.00    -0.230 A  
HETATM   20  C   UNL     1      -9.687   9.904  66.179  1.00  0.00    -0.297 A  
HETATM   21  C   UNL     1      -8.805  10.671  68.697  1.00  0.00    -0.151 A  
HETATM   22  C   UNL     1      -9.270   8.937  67.089  1.00  0.00    -0.139 A  
HETATM   23  C   UNL     1      -8.795   9.321  68.336  1.00  0.00    -0.129 A  
ENDBRANCH   8  17
TORSDOF 5
ENDMDL
MODEL       14
REMARK 921   NORMALIZED FREE ENERGY PREDICTED BY IDOCK:   -5.06 KCAL/MOL
REMARK 922        TOTAL FREE ENERGY PREDICTED BY IDOCK:   -6.99 KCAL/MOL
REMARK 923 INTER-LIGAND FREE ENERGY PREDICTED BY IDOCK:   -6.77 KCAL/MOL
REMARK 924 INTRA-LIGAND FREE ENERGY PREDICTED BY IDOCK:   -0.22 KCAL/MOL
REMARK 927      BINDING AFFINITY PREDICTED BY RF-SCORE:    0.00 PKD
ROOT
HETATM    1  C   UNL     1     -10.205  13.463  64.941  1.00  0.00    -0.319 C  
HETATM    2  C   UNL     1     -11.422  12.614  64.566  1.00  0.00    -0.389 C  
HETATM    3  C   UNL     1     -12.240  12.580  65.859  1.00  0.00    -0.310 C  
HETATM    4  C   UNL     1     -11.302  13.167  66.942  1.00  0.00    -0.318 C  
HETATM    5  C   UNL     1     -11.613  14.666  67.219  1.00  0.00    -0.404 C  
HETATM    6  N   UNL     1     -10.011  12.930  66.288  1.00  0.00    -0.266 NA 
HETATM    7  C   UNL     1     -10.581  14.959  64.838  1.00  0.00    -0.417 C  
HETATM    8  C   UNL     1     -11.036  15.667  66.147  1.00  0.00    -0.206 C  
ENDROOT
BRANCH   5   9
HETATM    9  C   UNL     1     -11.265  14.975  68.669  1.00  0.00    -0.278 C  
HETATM   10  O   UNL     1     -10.219  14.675  69.230  1.00  0.00    -0.217 OA 
BRANCH   9  11
HETATM   11  O   UNL     1     -12.257  15.672  69.299  1.00  0.00    -0.303 OA 
HETATM   12  C   UNL     1     -12.502  15.218  70.637  1.00  0.00    -0.406 C  
ENDBRANCH   9  11
ENDBRANCH   5   9
BRANCH   6  13
HETATM   13  C   UNL     1      -8.796  13.310  66.996  1.00  0.00    -0.212 C  
BRANCH  13  14
HETATM   14  C   UNL     1      -7.806  12.158  67.216  1.00  0.00    -0.176 C  
HETATM   15  F   UNL     1      -7.293  10.178  68.329  1.00  0.00    -0.077 F  
HETATM   16  C   UNL     1      -8.240  11.159  68.261  1.00  0.00    -0.134 C  
ENDBRANCH  13  14
ENDBRANCH   6  13
BRANCH   8  17
HETATM   17  C   UNL     1     -10.039  16.710  66.694  1.00  0.00    -0.305 A  
HETATM   18  I   UNL     1      -6.935  20.418  67.317  1.00  0.00    -0.396 I  
HETATM   19  C   UNL     1     -10.428  17.863  67.393  1.00  0.00    -0.390 A  
HETATM   20  C   UNL     1      -9.520  18.896  67.641  1.00  0.00    -0.340 A  
HETATM   21  C   UNL     1      -8.673  16.552  66.417  1.00  0.00    -0.357 A  
HETATM   22  C   UNL     1      -8.208  18.788  67.189  1.00  0.00    -0.265 A  
HETATM   23  C   UNL     1      -7.772  17.603  66.609  1.00  0.00    -0.284 A  
ENDBRANCH   8  17
TORSDOF 5
ENDMDL
MODEL       15
REMARK 921   NORMALIZED FREE ENERGY PREDICTED BY IDOCK:   -5.06 KCAL/MOL
REMARK 922        TOTAL FREE ENERGY PREDICTED BY IDOCK:   -6.99 KCAL/MOL
REMARK 923 INTER-LIGAND FREE ENERGY PREDICTED BY IDOCK:   -6.62 KCAL/MOL
REMARK 924 INTRA-LIGAND FREE ENERGY PREDICTED BY IDOCK:   -0.37 KCAL/MOL
REMARK 927      BINDING AFFINITY PREDICTED BY RF-SCORE:    0.00 PKD
ROOT
HETATM    1  C   UNL     1     -11.544  12.078  67.403  1.00  0.00    -0.318 C  
HETATM    2  C   UNL     1     -11.395  10.808  68.243  1.00  0.00    -0.376 C  
HETATM    3  C   UNL     1      -9.963  10.902  68.776  1.00  0.00    -0.203 C  
HETATM    4  C   UNL     1      -9.317  12.062  67.980  1.00  0.00    -0.196 C  
HETATM    5  C   UNL     1      -9.316  13.387  68.796  1.00  0.00     0.089 C  
HETATM    6  N   UNL     1     -10.207  12.074  66.814  1.00  0.00    -0.201 NA 
HETATM    7  C   UNL     1     -11.883  13.264  68.336  1.00  0.00    -0.395 C  
HETATM    8  C   UNL     1     -10.696  14.147  68.820  1.00  0.00    -0.265 C  
ENDROOT
BRANCH   5   9
HETATM    9  C   UNL     1      -8.110  14.217  68.374  1.00  0.00    -0.144 C  
HETATM   10  O   UNL     1      -7.646  14.275  67.242  1.00  0.00    -0.183 OA 
BRANCH   9  11
HETATM   11  O   UNL     1      -7.595  14.941  69.411  1.00  0.00    -0.170 OA 
HETATM   12  C   UNL     1      -6.951  16.151  68.989  1.00  0.00    -0.178 C  
ENDBRANCH   9  11
ENDBRANCH   5   9
BRANCH   6  13
HETATM   13  C   UNL     1      -9.935  13.024  65.745  1.00  0.00    -0.254 C  
BRANCH  13  14
HETATM   14  C   UNL     1     -10.603  12.678  64.407  1.00  0.00    -0.388 C  
HETATM   15  F   UNL     1     -12.306  13.109  62.879  1.00  0.00    -0.570 F  
HETATM   16  C   UNL     1     -11.839  13.491  64.103  1.00  0.00    -0.437 C  
ENDBRANCH  13  14
ENDBRANCH   6  13
BRANCH   8  17
HETATM   17  C   UNL     1     -10.671  15.571  68.228  1.00  0.00    -0.271 A  
HETATM   18  I   UNL     1      -9.435  19.987  66.570  1.00  0.00    -0.464 I  
HETATM   19  C   UNL     1     -10.640  15.839  66.851  1.00  0.00    -0.317 A  
HETATM   20  C   UNL     1     -10.362  17.122  66.372  1.00  0.00    -0.307 A  
HETATM   21  C   UNL     1     -10.595  16.666  69.101  1.00  0.00    -0.340 A  
HETATM   22  C   UNL     1     -10.107  18.156  67.269  1.00  0.00    -0.347 A  
HETATM   23  C   UNL     1     -10.258  17.940  68.633  1.00  0.00    -0.387 A  
ENDBRANCH   8  17
TORSDOF 5
ENDMDL
MODEL       16
REMARK 921   NORMALIZED FREE ENERGY PREDICTED BY IDOCK:   -5.04 KCAL/MOL
REMARK 922        TOTAL FREE ENERGY PREDICTED BY IDOCK:   -6.96 KCAL/MOL
REMARK 923 INTER-LIGAND FREE ENERGY PREDICTED BY IDOCK:   -6.76 KCAL/MOL
REMARK 924 INTRA-LIGAND FREE ENERGY PREDICTED BY IDOCK:   -0.20 KCAL/MOL
REMARK 927      BINDING AFFINITY PREDICTED BY RF-SCORE:    0.00 PKD
ROOT
HETATM    1  C   UNL     1      -8.939  18.722  66.087  1.00  0.00    -0.139 C  
HETATM    2  C   UNL     1      -9.628  20.056  66.387  1.00  0.00    -0.536 C  
HETATM    3  C   UNL     1     -10.705  19.676  67.405  1.00  0.00    -0.563 C  
HETATM    4  C   UNL     1     -10.736  18.128  67.396  1.00  0.00    -0.335 C  
HETATM    5  C   UNL     1      -9.926  17.531  68.583  1.00  0.00    -0.347 C  
HETATM    6  N   UNL     1     -10.139  17.889  66.078  1.00  0.00    -0.540 NA 
HETATM    7  C   UNL     1      -7.903  18.428  67.197  1.00  0.00    -0.237 C  
HETATM    8  C   UNL     1      -8.364  17.521  68.374  1.00  0.00    -0.278 C  
ENDROOT
BRANCH   5   9
HETATM    9  C   UNL     1     -10.550  16.199  68.976  1.00  0.00    -0.273 C  
HETATM   10  O   UNL     1     -11.125  15.430  68.216  1.00  0.00    -0.281 OA 
BRANCH   9  11
HETATM   11  O   UNL     1     -10.375  15.919  70.301  1.00  0.00    -0.249 OA 
HETATM   12  C   UNL     1     -11.583  16.025  71.065  1.00  0.00    -0.431 C  
ENDBRANCH   9  11
ENDBRANCH   5   9
BRANCH   6  13
HETATM   13  C   UNL     1     -10.003  16.513  65.619  1.00  0.00    -0.204 C  
BRANCH  13  14
HETATM   14  C   UNL     1     -11.147  16.031  64.717  1.00  0.00    -0.378 C  
HETATM   15  F   UNL     1     -12.384  14.246  63.878  1.00  0.00    -0.503 F  
HETATM   16  C   UNL     1     -11.320  14.532  64.684  1.00  0.00    -0.370 C  
ENDBRANCH  13  14
ENDBRANCH   6  13
BRANCH   8  17
HETATM   17  C   UNL     1      -7.707  16.127  68.408  1.00  0.00    -0.154 A  
HETATM   18  I   UNL     1      -6.604  11.429  69.111  1.00  0.00    -0.114 I  
HETATM   19  C   UNL     1      -7.795  15.201  67.355  1.00  0.00    -0.224 A  
HETATM   20  C   UNL     1      -7.407  13.871  67.531  1.00  0.00    -0.181 A  
HETATM   21  C   UNL     1      -7.050  15.715  69.576  1.00  0.00    -0.195 A  
HETATM   22  C   UNL     1      -6.927  13.446  68.767  1.00  0.00    -0.103 A  
HETATM   23  C   UNL     1      -6.713  14.373  69.780  1.00  0.00    -0.124 A  
ENDBRANCH   8  17
TORSDOF 5
ENDMDL
MODEL       17
REMARK 921   NORMALIZED FREE ENERGY PREDICTED BY IDOCK:   -4.92 KCAL/MOL
REMARK 922        TOTAL FREE ENERGY PREDICTED BY IDOCK:   -6.81 KCAL/MOL
REMARK 923 INTER-LIGAND FREE ENERGY PREDICTED BY IDOCK:   -6.83 KCAL/MOL
REMARK 924 INTRA-LIGAND FREE ENERGY PREDICTED BY IDOCK:    0.03 KCAL/MOL
REMARK 927      BINDING AFFINITY PREDICTED BY RF-SCORE:    0.00 PKD
ROOT
HETATM    1  C   UNL     1     -12.473  13.728  65.453  1.00  0.00    -0.500 C  
HETATM    2  C   UNL     1     -12.283  14.987  64.604  1.00  0.00    -0.286 C  
HETATM    3  C   UNL     1     -10.902  15.493  65.029  1.00  0.00    -0.468 C  
HETATM    4  C   UNL     1     -10.535  14.654  66.277  1.00  0.00    -0.298 C  
HETATM    5  C   UNL     1      -9.586  13.475  65.917  1.00  0.00    -0.132 C  
HETATM    6  N   UNL     1     -11.882  14.240  66.686  1.00  0.00    -0.408 NA 
HETATM    7  C   UNL     1     -11.741  12.546  64.774  1.00  0.00    -0.411 C  
HETATM    8  C   UNL     1     -10.299  12.231  65.265  1.00  0.00    -0.311 C  
ENDROOT
BRANCH   5   9
HETATM    9  C   UNL     1      -8.703  13.177  67.121  1.00  0.00    -0.213 C  
HETATM   10  O   UNL     1      -8.919  13.541  68.271  1.00  0.00    -0.183 OA 
BRANCH   9  11
HETATM   11  O   UNL     1      -7.622  12.410  66.791  1.00  0.00    -0.017 OA 
HETATM   12  C   UNL     1      -6.976  11.825  67.930  1.00  0.00    -0.085 C  
ENDBRANCH   9  11
ENDBRANCH   5   9
BRANCH   6  13
HETATM   13  C   UNL     1     -12.021  13.431  67.889  1.00  0.00    -0.323 C  
BRANCH  13  14
HETATM   14  C   UNL     1     -12.027  14.237  69.196  1.00  0.00    -0.372 C  
HETATM   15  F   UNL     1     -12.097  14.228  71.523  1.00  0.00    -0.375 F  
HETATM   16  C   UNL     1     -12.139  13.394  70.443  1.00  0.00    -0.333 C  
ENDBRANCH  13  14
ENDBRANCH   6  13
BRANCH   8  17
HETATM   17  C   UNL     1     -10.161  10.910  66.050  1.00  0.00    -0.311 A  
HETATM   18  I   UNL     1     -10.769   6.499  68.037  1.00  0.00    -0.378 I  
HETATM   19  C   UNL     1      -9.425   9.807  65.591  1.00  0.00    -0.307 A  
HETATM   20  C   UNL     1      -9.539   8.558  66.206  1.00  0.00    -0.306 A  
HETATM   21  C   UNL     1     -10.868  10.760  67.253  1.00  0.00    -0.344 A  
HETATM   22  C   UNL     1     -10.395   8.396  67.292  1.00  0.00    -0.299 A  
HETATM   23  C   UNL     1     -11.033   9.502  67.840  1.00  0.00    -0.172 A  
ENDBRANCH   8  17
TORSDOF 5
ENDMDL
MODEL       18
REMARK 921   NORMALIZED FREE ENERGY PREDICTED BY IDOCK:   -4.81 KCAL/MOL
REMARK 922        TOTAL FREE ENERGY PREDICTED BY IDOCK:   -6.67 KCAL/MOL
REMARK 923 INTER-LIGAND FREE ENERGY PREDICTED BY IDOCK:   -6.28 KCAL/MOL
REMARK 924 INTRA-LIGAND FREE ENERGY PREDICTED BY IDOCK:   -0.39 KCAL/MOL
REMARK 927      BINDING AFFINITY PREDICTED BY RF-SCORE:    0.00 PKD
ROOT
HETATM    1  C   UNL     1     -10.529   7.707  73.208  1.00  0.00    -0.355 C  
HETATM    2  C   UNL     1     -10.352   6.519  74.156  1.00  0.00    -0.351 C  
HETATM    3  C   UNL     1     -10.560   5.306  73.246  1.00  0.00    -0.288 C  
HETATM    4  C   UNL     1     -11.113   5.890  71.923  1.00  0.00    -0.268 C  
HETATM    5  C   UNL     1      -9.996   6.041  70.850  1.00  0.00    -0.232 C  
HETATM    6  N   UNL     1     -11.639   7.163  72.428  1.00  0.00    -0.271 NA 
HETATM    7  C   UNL     1      -9.204   7.948  72.447  1.00  0.00    -0.239 C  
HETATM    8  C   UNL     1      -9.067   7.299  71.040  1.00  0.00    -0.153 C  
ENDROOT
BRANCH   5   9
HETATM    9  C   UNL     1     -10.621   5.880  69.471  1.00  0.00    -0.308 C  
HETATM   10  O   UNL     1     -11.644   6.431  69.084  1.00  0.00    -0.318 OA 
BRANCH   9  11
HETATM   11  O   UNL     1      -9.887   5.057  68.665  1.00  0.00    -0.151 OA 
HETATM   12  C   UNL     1      -9.420   3.880  69.338  1.00  0.00    -0.190 C  
ENDBRANCH   9  11
ENDBRANCH   5   9
BRANCH   6  13
HETATM   13  C   UNL     1     -12.310   8.055  71.493  1.00  0.00    -0.308 C  
BRANCH  13  14
HETATM   14  C   UNL     1     -13.076   9.207  72.156  1.00  0.00    -0.516 C  
HETATM   15  F   UNL     1     -13.534  11.488  72.235  1.00  0.00    -0.580 F  
HETATM   16  C   UNL     1     -12.765  10.569  71.583  1.00  0.00    -0.445 C  
ENDBRANCH  13  14
ENDBRANCH   6  13
BRANCH   8  17
HETATM   17  C   UNL     1      -9.071   8.300  69.867  1.00  0.00    -0.147 A  
HETATM   18  I   UNL     1      -9.833  10.686  65.683  1.00  0.00    -0.358 I  
HETATM   19  C   UNL     1      -9.872   9.452  69.831  1.00  0.00    -0.235 A  
HETATM   20  C   UNL     1     -10.032  10.183  68.652  1.00  0.00    -0.181 A  
HETATM   21  C   UNL     1      -8.296   8.017  68.732  1.00  0.00    -0.127 A  
HETATM   22  C   UNL     1      -9.391   9.768  67.487  1.00  0.00    -0.133 A  
HETATM   23  C   UNL     1      -8.494   8.707  67.532  1.00  0.00    -0.124 A  
ENDBRANCH   8  17
TORSDOF 5
ENDMDL
MODEL       19
REMARK 921   NORMALIZED FREE ENERGY PREDICTED BY IDOCK:   -4.79 KCAL/MOL
REMARK 922        TOTAL FREE ENERGY PREDICTED BY IDOCK:   -6.65 KCAL/MOL
REMARK 923 INTER-LIGAND FREE ENERGY PREDICTED BY IDOCK:   -6.29 KCAL/MOL
REMARK 924 INTRA-LIGAND FREE ENERGY PREDICTED BY IDOCK:   -0.36 KCAL/MOL
REMARK 927      BINDING AFFINITY PREDICTED BY RF-SCORE:    0.00 PKD
ROOT
HETATM    1  C   UNL     1      -9.885   8.586  72.432  1.00  0.00    -0.288 C  
HETATM    2  C   UNL     1      -9.173   7.661  73.423  1.00  0.00    -0.311 C  
HETATM    3  C   UNL     1      -9.333   6.276  72.791  1.00  0.00    -0.144 C  
HETATM    4  C   UNL     1     -10.356   6.475  71.646  1.00  0.00    -0.207 C  
HETATM    5  C   UNL     1      -9.652   6.618  70.266  1.00  0.00    -0.169 C  
HETATM    6  N   UNL     1     -11.005   7.702  72.121  1.00  0.00    -0.242 NA 
HETATM    7  C   UNL     1      -8.922   8.915  71.267  1.00  0.00    -0.312 C  
HETATM    8  C   UNL     1      -9.033   8.039  69.986  1.00  0.00    -0.144 C  
ENDROOT
BRANCH   5   9
HETATM    9  C   UNL     1     -10.581   6.076  69.188  1.00  0.00    -0.295 C  
HETATM   10  O   UNL     1     -11.786   6.285  69.115  1.00  0.00    -0.201 OA 
BRANCH   9  11
HETATM   11  O   UNL     1      -9.913   5.331  68.258  1.00  0.00    -0.147 OA 
HETATM   12  C   UNL     1     -10.478   5.431  66.944  1.00  0.00    -0.277 C  
ENDBRANCH   9  11
ENDBRANCH   5   9
BRANCH   6  13
HETATM   13  C   UNL     1     -12.103   8.251  71.337  1.00  0.00    -0.300 C  
BRANCH  13  14
HETATM   14  C   UNL     1     -12.940   9.306  72.074  1.00  0.00    -0.504 C  
HETATM   15  F   UNL     1     -13.627  11.525  72.233  1.00  0.00    -0.529 F  
HETATM   16  C   UNL     1     -12.811  10.702  71.513  1.00  0.00    -0.462 C  
ENDBRANCH  13  14
ENDBRANCH   6  13
BRANCH   8  17
HETATM   17  C   UNL     1      -9.602   8.771  68.754  1.00  0.00    -0.160 A  
HETATM   18  I   UNL     1     -10.772  11.989  65.282  1.00  0.00    -0.369 I  
HETATM   19  C   UNL     1      -9.045   8.678  67.469  1.00  0.00    -0.146 A  
HETATM   20  C   UNL     1      -9.434   9.549  66.449  1.00  0.00    -0.251 A  
HETATM   21  C   UNL     1     -10.687   9.644  68.925  1.00  0.00    -0.230 A  
HETATM   22  C   UNL     1     -10.388  10.531  66.703  1.00  0.00    -0.237 A  
HETATM   23  C   UNL     1     -11.042  10.558  67.928  1.00  0.00    -0.367 A  
ENDBRANCH   8  17
TORSDOF 5
ENDMDL
MODEL       20
REMARK 921   NORMALIZED FREE ENERGY PREDICTED BY IDOCK:   -4.77 KCAL/MOL
REMARK 922        TOTAL FREE ENERGY PREDICTED BY IDOCK:   -6.62 KCAL/MOL
REMARK 923 INTER-LIGAND FREE ENERGY PREDICTED BY IDOCK:   -6.24 KCAL/MOL
REMARK 924 INTRA-LIGAND FREE ENERGY PREDICTED BY IDOCK:   -0.37 KCAL/MOL
REMARK 927      BINDING AFFINITY PREDICTED BY RF-SCORE:    0.00 PKD
ROOT
HETATM    1  C   UNL     1      -9.331  17.593  68.430  1.00  0.00    -0.289 C  
HETATM    2  C   UNL     1      -9.944  18.969  68.154  1.00  0.00    -0.449 C  
HETATM    3  C   UNL     1     -10.626  18.786  66.796  1.00  0.00    -0.458 C  
HETATM    4  C   UNL     1     -10.117  17.420  66.274  1.00  0.00    -0.322 C  
HETATM    5  C   UNL     1     -11.150  16.286  66.532  1.00  0.00     0.120 C  
HETATM    6  N   UNL     1      -8.888  17.307  67.067  1.00  0.00    -0.222 NA 
HETATM    7  C   UNL     1     -10.421  16.663  69.010  1.00  0.00    -0.328 C  
HETATM    8  C   UNL     1     -11.169  15.737  68.009  1.00  0.00    -0.338 C  
ENDROOT
BRANCH   5   9
HETATM    9  C   UNL     1     -11.005  15.238  65.437  1.00  0.00    -0.372 C  
HETATM   10  O   UNL     1      -9.951  14.742  65.061  1.00  0.00    -0.333 OA 
BRANCH   9  11
HETATM   11  O   UNL     1     -12.212  14.866  64.916  1.00  0.00    -0.330 OA 
HETATM   12  C   UNL     1     -12.218  13.526  64.408  1.00  0.00    -0.390 C  
ENDBRANCH   9  11
ENDBRANCH   5   9
BRANCH   6  13
HETATM   13  C   UNL     1      -8.037  16.144  66.863  1.00  0.00    -0.240 C  
BRANCH  13  14
HETATM   14  C   UNL     1      -6.654  16.248  67.521  1.00  0.00    -0.193 C  
HETATM   15  F   UNL     1      -5.171  15.468  69.138  1.00  0.00    -0.095 F  
HETATM   16  C   UNL     1      -6.442  15.295  68.673  1.00  0.00    -0.094 C  
ENDBRANCH  13  14
ENDBRANCH   6  13
BRANCH   8  17
HETATM   17  C   UNL     1     -10.845  14.236  68.155  1.00  0.00    -0.253 A  
HETATM   18  I   UNL     1      -9.878   9.511  67.437  1.00  0.00    -0.269 I  
HETATM   19  C   UNL     1      -9.544  13.735  68.319  1.00  0.00    -0.219 A  
HETATM   20  C   UNL     1      -9.276  12.370  68.189  1.00  0.00    -0.205 A  
HETATM   21  C   UNL     1     -11.886  13.303  68.040  1.00  0.00    -0.392 A  
HETATM   22  C   UNL     1     -10.309  11.486  67.892  1.00  0.00    -0.183 A  
HETATM   23  C   UNL     1     -11.620  11.944  67.852  1.00  0.00    -0.393 A  
ENDBRANCH   8  17
TORSDOF 5
ENDMDL
MODEL       21
REMARK 921   NORMALIZED FREE ENERGY PREDICTED BY IDOCK:   -4.77 KCAL/MOL
REMARK 922        TOTAL FREE ENERGY PREDICTED BY IDOCK:   -6.61 KCAL/MOL
REMARK 923 INTER-LIGAND FREE ENERGY PREDICTED BY IDOCK:   -6.81 KCAL/MOL
REMARK 924 INTRA-LIGAND FREE ENERGY PREDICTED BY IDOCK:    0.19 KCAL/MOL
REMARK 927      BINDING AFFINITY PREDICTED BY RF-SCORE:    0.00 PKD
ROOT
HETATM    1  C   UNL     1     -10.648  17.005  68.592  1.00  0.00    -0.362 C  
HETATM    2  C   UNL     1     -10.693  18.034  67.459  1.00  0.00    -0.352 C  
HETATM    3  C   UNL     1     -10.096  17.276  66.271  1.00  0.00    -0.323 C  
HETATM    4  C   UNL     1      -9.502  15.982  66.879  1.00  0.00    -0.226 C  
HETATM    5  C   UNL     1     -10.461  14.770  66.697  1.00  0.00    -0.286 C  
HETATM    6  N   UNL     1      -9.347  16.425  68.269  1.00  0.00    -0.206 NA 
HETATM    7  C   UNL     1     -11.871  16.067  68.471  1.00  0.00    -0.126 C  
HETATM    8  C   UNL     1     -11.661  14.722  67.717  1.00  0.00    -0.378 C  
ENDROOT
BRANCH   5   9
HETATM    9  C   UNL     1      -9.626  13.501  66.596  1.00  0.00    -0.278 C  
HETATM   10  O   UNL     1      -8.696  13.199  67.334  1.00  0.00    -0.185 OA 
BRANCH   9  11
HETATM   11  O   UNL     1     -10.048  12.685  65.585  1.00  0.00    -0.271 OA 
HETATM   12  C   UNL     1     -10.578  13.405  64.464  1.00  0.00    -0.425 C  
ENDBRANCH   9  11
ENDBRANCH   5   9
BRANCH   6  13
HETATM   13  C   UNL     1      -8.762  15.499  69.229  1.00  0.00    -0.260 C  
BRANCH  13  14
HETATM   14  C   UNL     1      -7.263  15.713  69.482  1.00  0.00    -0.198 C  
HETATM   15  F   UNL     1      -5.192  14.780  69.992  1.00  0.00    -0.093 F  
HETATM   16  C   UNL     1      -6.507  14.453  69.829  1.00  0.00    -0.150 C  
ENDBRANCH  13  14
ENDBRANCH   6  13
BRANCH   8  17
HETATM   17  C   UNL     1     -11.710  13.468  68.613  1.00  0.00    -0.389 A  
HETATM   18  I   UNL     1     -13.022   9.732  71.459  1.00  0.00    -0.545 I  
HETATM   19  C   UNL     1     -11.735  12.156  68.113  1.00  0.00    -0.402 A  
HETATM   20  C   UNL     1     -12.036  11.074  68.943  1.00  0.00    -0.332 A  
HETATM   21  C   UNL     1     -11.815  13.631  70.002  1.00  0.00    -0.378 A  
HETATM   22  C   UNL     1     -12.318  11.290  70.289  1.00  0.00    -0.307 A  
HETATM   23  C   UNL     1     -12.174  12.562  70.829  1.00  0.00    -0.332 A  
ENDBRANCH   8  17
TORSDOF 5
ENDMDL
MODEL       22
REMARK 921   NORMALIZED FREE ENERGY PREDICTED BY IDOCK:   -4.74 KCAL/MOL
REMARK 922        TOTAL FREE ENERGY PREDICTED BY IDOCK:   -6.57 KCAL/MOL
REMARK 923 INTER-LIGAND FREE ENERGY PREDICTED BY IDOCK:   -6.65 KCAL/MOL
REMARK 924 INTRA-LIGAND FREE ENERGY PREDICTED BY IDOCK:    0.07 KCAL/MOL
REMARK 927      BINDING AFFINITY PREDICTED BY RF-SCORE:    0.00 PKD
ROOT
HETATM    1  C   UNL     1     -12.264  14.001  66.384  1.00  0.00    -0.460 C  
HETATM    2  C   UNL     1     -12.081  14.606  64.990  1.00  0.00    -0.349 C  
HETATM    3  C   UNL     1     -10.567  14.803  64.887  1.00  0.00    -0.431 C  
HETATM    4  C   UNL     1     -10.034  14.562  66.320  1.00  0.00    -0.305 C  
HETATM    5  C   UNL     1      -9.465  13.124  66.487  1.00  0.00    -0.246 C  
HETATM    6  N   UNL     1     -11.267  14.813  67.075  1.00  0.00    -0.338 NA 
HETATM    7  C   UNL     1     -11.989  12.480  66.314  1.00  0.00    -0.410 C  
HETATM    8  C   UNL     1     -10.554  12.003  66.682  1.00  0.00    -0.266 C  
ENDROOT
BRANCH   5   9
HETATM    9  C   UNL     1      -8.355  13.158  67.529  1.00  0.00    -0.185 C  
HETATM   10  O   UNL     1      -7.344  12.467  67.517  1.00  0.00    -0.127 OA 
BRANCH   9  11
HETATM   11  O   UNL     1      -8.588  14.091  68.499  1.00  0.00    -0.169 OA 
HETATM   12  C   UNL     1      -7.391  14.549  69.141  1.00  0.00    -0.133 C  
ENDBRANCH   9  11
ENDBRANCH   5   9
BRANCH   6  13
HETATM   13  C   UNL     1     -11.217  14.731  68.528  1.00  0.00    -0.276 C  
BRANCH  13  14
HETATM   14  C   UNL     1     -12.314  15.531  69.245  1.00  0.00    -0.106 C  
HETATM   15  F   UNL     1     -13.760  15.714  71.060  1.00  0.00    -0.548 F  
HETATM   16  C   UNL     1     -12.823  14.888  70.512  1.00  0.00    -0.326 C  
ENDBRANCH  13  14
ENDBRANCH   6  13
BRANCH   8  17
HETATM   17  C   UNL     1     -10.458  11.218  68.006  1.00  0.00    -0.215 A  
HETATM   18  I   UNL     1     -11.167   8.264  71.821  1.00  0.00    -0.435 I  
HETATM   19  C   UNL     1      -9.698  10.047  68.161  1.00  0.00    -0.156 A  
HETATM   20  C   UNL     1      -9.843   9.238  69.290  1.00  0.00    -0.172 A  
HETATM   21  C   UNL     1     -11.226  11.638  69.101  1.00  0.00    -0.325 A  
HETATM   22  C   UNL     1     -10.755   9.589  70.282  1.00  0.00    -0.265 A  
HETATM   23  C   UNL     1     -11.422  10.806  70.208  1.00  0.00    -0.406 A  
ENDBRANCH   8  17
TORSDOF 5
ENDMDL
MODEL       23
REMARK 921   NORMALIZED FREE ENERGY PREDICTED BY IDOCK:   -4.70 KCAL/MOL
REMARK 922        TOTAL FREE ENERGY PREDICTED BY IDOCK:   -6.53 KCAL/MOL
REMARK 923 INTER-LIGAND FREE ENERGY PREDICTED BY IDOCK:   -6.27 KCAL/MOL
REMARK 924 INTRA-LIGAND FREE ENERGY PREDICTED BY IDOCK:   -0.26 KCAL/MOL
REMARK 927      BINDING AFFINITY PREDICTED BY RF-SCORE:    0.00 PKD
ROOT
HETATM    1  C   UNL     1     -12.161  13.149  69.013  1.00  0.00    -0.198 C  
HETATM    2  C   UNL     1     -11.893  11.736  69.538  1.00  0.00    -0.402 C  
HETATM    3  C   UNL     1     -10.550  11.372  68.902  1.00  0.00    -0.234 C  
HETATM    4  C   UNL     1     -10.292  12.478  67.850  1.00  0.00    -0.216 C  
HETATM    5  C   UNL     1      -9.323  13.569  68.390  1.00  0.00    -0.171 C  
HETATM    6  N   UNL     1     -11.670  12.941  67.653  1.00  0.00    -0.360 NA 
HETATM    7  C   UNL     1     -11.382  14.166  69.880  1.00  0.00    -0.232 C  
HETATM    8  C   UNL     1      -9.987  14.618  69.360  1.00  0.00    -0.038 C  
ENDROOT
BRANCH   5   9
HETATM    9  C   UNL     1      -8.544  14.150  67.218  1.00  0.00    -0.218 C  
HETATM   10  O   UNL     1      -9.031  14.566  66.175  1.00  0.00    -0.140 OA 
BRANCH   9  11
HETATM   11  O   UNL     1      -7.201  14.194  67.463  1.00  0.00    -0.172 OA 
HETATM   12  C   UNL     1      -6.743  13.117  68.291  1.00  0.00    -0.101 C  
ENDBRANCH   9  11
ENDBRANCH   5   9
BRANCH   6  13
HETATM   13  C   UNL     1     -11.913  13.995  66.677  1.00  0.00    -0.445 C  
BRANCH  13  14
HETATM   14  C   UNL     1     -12.696  13.541  65.438  1.00  0.00    -0.495 C  
HETATM   15  F   UNL     1     -12.909  12.030  63.680  1.00  0.00    -0.601 F  
HETATM   16  C   UNL     1     -12.101  12.345  64.734  1.00  0.00    -0.416 C  
ENDBRANCH  13  14
ENDBRANCH   6  13
BRANCH   8  17
HETATM   17  C   UNL     1      -9.922  16.084  68.884  1.00  0.00    -0.232 A  
HETATM   18  I   UNL     1      -9.154  20.243  66.458  1.00  0.00    -0.170 I  
HETATM   19  C   UNL     1     -10.972  16.730  68.213  1.00  0.00    -0.327 A  
HETATM   20  C   UNL     1     -10.775  17.960  67.581  1.00  0.00    -0.343 A  
HETATM   21  C   UNL     1      -8.727  16.799  69.053  1.00  0.00    -0.176 A  
HETATM   22  C   UNL     1      -9.520  18.561  67.611  1.00  0.00    -0.279 A  
HETATM   23  C   UNL     1      -8.504  18.002  68.376  1.00  0.00    -0.306 A  
ENDBRANCH   8  17
TORSDOF 5
ENDMDL
MODEL       24
REMARK 921   NORMALIZED FREE ENERGY PREDICTED BY IDOCK:   -4.69 KCAL/MOL
REMARK 922        TOTAL FREE ENERGY PREDICTED BY IDOCK:   -6.52 KCAL/MOL
REMARK 923 INTER-LIGAND FREE ENERGY PREDICTED BY IDOCK:   -6.16 KCAL/MOL
REMARK 924 INTRA-LIGAND FREE ENERGY PREDICTED BY IDOCK:   -0.36 KCAL/MOL
REMARK 927      BINDING AFFINITY PREDICTED BY RF-SCORE:    0.00 PKD
ROOT
HETATM    1  C   UNL     1     -11.378  15.579  66.875  1.00  0.00    -0.079 C  
HETATM    2  C   UNL     1     -10.877  16.302  65.621  1.00  0.00    -0.215 C  
HETATM    3  C   UNL     1      -9.479  15.716  65.411  1.00  0.00    -0.017 C  
HETATM    4  C   UNL     1      -9.179  14.922  66.706  1.00  0.00    -0.259 C  
HETATM    5  C   UNL     1      -9.443  13.400  66.520  1.00  0.00    -0.252 C  
HETATM    6  N   UNL     1     -10.118  15.590  67.614  1.00  0.00    -0.241 NA 
HETATM    7  C   UNL     1     -11.930  14.192  66.472  1.00  0.00    -0.466 C  
HETATM    8  C   UNL     1     -10.960  12.981  66.591  1.00  0.00    -0.301 C  
ENDROOT
BRANCH   5   9
HETATM    9  C   UNL     1      -8.499  12.628  67.433  1.00  0.00    -0.186 C  
HETATM   10  O   UNL     1      -8.162  12.967  68.560  1.00  0.00    -0.140 OA 
BRANCH   9  11
HETATM   11  O   UNL     1      -8.073  11.461  66.865  1.00  0.00    -0.146 OA 
HETATM   12  C   UNL     1      -7.286  10.656  67.753  1.00  0.00    -0.089 C  
ENDBRANCH   9  11
ENDBRANCH   5   9
BRANCH   6  13
HETATM   13  C   UNL     1     -10.149  15.170  69.009  1.00  0.00    -0.244 C  
BRANCH  13  14
HETATM   14  C   UNL     1     -10.838  16.165  69.953  1.00  0.00    -0.355 C  
HETATM   15  F   UNL     1     -11.826  16.564  72.023  1.00  0.00    -0.521 F  
HETATM   16  C   UNL     1     -11.264  15.571  71.274  1.00  0.00    -0.356 C  
ENDBRANCH  13  14
ENDBRANCH   6  13
BRANCH   8  17
HETATM   17  C   UNL     1     -11.313  11.983  67.712  1.00  0.00    -0.370 A  
HETATM   18  I   UNL     1     -11.260   8.806  71.412  1.00  0.00    -0.449 I  
HETATM   19  C   UNL     1     -11.716  12.371  69.000  1.00  0.00    -0.372 A  
HETATM   20  C   UNL     1     -11.775  11.447  70.046  1.00  0.00    -0.416 A  
HETATM   21  C   UNL     1     -11.153  10.610  67.473  1.00  0.00    -0.367 A  
HETATM   22  C   UNL     1     -11.431  10.118  69.817  1.00  0.00    -0.228 A  
HETATM   23  C   UNL     1     -11.154   9.689  68.524  1.00  0.00    -0.091 A  
ENDBRANCH   8  17
TORSDOF 5
ENDMDL
MODEL       25
REMARK 921   NORMALIZED FREE ENERGY PREDICTED BY IDOCK:   -4.66 KCAL/MOL
REMARK 922        TOTAL FREE ENERGY PREDICTED BY IDOCK:   -6.47 KCAL/MOL
REMARK 923 INTER-LIGAND FREE ENERGY PREDICTED BY IDOCK:   -6.27 KCAL/MOL
REMARK 924 INTRA-LIGAND FREE ENERGY PREDICTED BY IDOCK:   -0.20 KCAL/MOL
REMARK 927      BINDING AFFINITY PREDICTED BY RF-SCORE:    0.00 PKD
ROOT
HETATM    1  C   UNL     1     -10.603  13.097  64.206  1.00  0.00    -0.412 C  
HETATM    2  C   UNL     1     -12.004  13.237  63.604  1.00  0.00    -0.547 C  
HETATM    3  C   UNL     1     -12.927  13.046  64.810  1.00  0.00    -0.207 C  
HETATM    4  C   UNL     1     -12.004  12.536  65.943  1.00  0.00    -0.409 C  
HETATM    5  C   UNL     1     -11.591  13.686  66.907  1.00  0.00    -0.397 C  
HETATM    6  N   UNL     1     -10.903  12.007  65.131  1.00  0.00    -0.291 NA 
HETATM    7  C   UNL     1     -10.189  14.446  64.840  1.00  0.00    -0.357 C  
HETATM    8  C   UNL     1     -10.443  14.619  66.365  1.00  0.00    -0.296 C  
ENDROOT
BRANCH   5   9
HETATM    9  C   UNL     1     -11.368  13.100  68.295  1.00  0.00    -0.297 C  
HETATM   10  O   UNL     1     -10.862  12.011  68.536  1.00  0.00    -0.213 OA 
BRANCH   9  11
HETATM   11  O   UNL     1     -11.774  13.950  69.284  1.00  0.00    -0.287 OA 
HETATM   12  C   UNL     1     -12.228  13.269  70.462  1.00  0.00    -0.340 C  
ENDBRANCH   9  11
ENDBRANCH   5   9
BRANCH   6  13
HETATM   13  C   UNL     1      -9.784  11.371  65.812  1.00  0.00    -0.233 C  
BRANCH  13  14
HETATM   14  C   UNL     1      -9.668   9.860  65.564  1.00  0.00    -0.370 C  
HETATM   15  F   UNL     1      -9.706   7.705  66.444  1.00  0.00    -0.245 F  
HETATM   16  C   UNL     1      -9.790   9.017  66.810  1.00  0.00    -0.234 C  
ENDBRANCH  13  14
ENDBRANCH   6  13
BRANCH   8  17
HETATM   17  C   UNL     1      -9.166  14.658  67.229  1.00  0.00    -0.212 A  
HETATM   18  I   UNL     1      -5.847  14.341  70.787  1.00  0.00    -0.094 I  
HETATM   19  C   UNL     1      -8.185  13.654  67.210  1.00  0.00    -0.164 A  
HETATM   20  C   UNL     1      -7.186  13.604  68.185  1.00  0.00    -0.117 A  
HETATM   21  C   UNL     1      -8.999  15.706  68.145  1.00  0.00    -0.179 A  
HETATM   22  C   UNL     1      -7.156  14.561  69.196  1.00  0.00    -0.130 A  
HETATM   23  C   UNL     1      -8.039  15.634  69.159  1.00  0.00    -0.238 A  
ENDBRANCH   8  17
TORSDOF 5
ENDMDL
MODEL       26
REMARK 921   NORMALIZED FREE ENERGY PREDICTED BY IDOCK:   -4.65 KCAL/MOL
REMARK 922        TOTAL FREE ENERGY PREDICTED BY IDOCK:   -6.47 KCAL/MOL
REMARK 923 INTER-LIGAND FREE ENERGY PREDICTED BY IDOCK:   -6.30 KCAL/MOL
REMARK 924 INTRA-LIGAND FREE ENERGY PREDICTED BY IDOCK:   -0.16 KCAL/MOL
REMARK 927      BINDING AFFINITY PREDICTED BY RF-SCORE:    0.00 PKD
ROOT
HETATM    1  C   UNL     1     -10.365   6.274  68.436  1.00  0.00    -0.200 C  
HETATM    2  C   UNL     1      -9.659   4.940  68.691  1.00  0.00    -0.215 C  
HETATM    3  C   UNL     1      -8.672   5.272  69.813  1.00  0.00    -0.116 C  
HETATM    4  C   UNL     1      -8.690   6.817  69.916  1.00  0.00    -0.141 C  
HETATM    5  C   UNL     1      -9.604   7.304  71.077  1.00  0.00    -0.158 C  
HETATM    6  N   UNL     1      -9.195   7.137  68.576  1.00  0.00    -0.135 NA 
HETATM    7  C   UNL     1     -11.489   6.459  69.482  1.00  0.00    -0.412 C  
HETATM    8  C   UNL     1     -11.145   7.288  70.752  1.00  0.00    -0.290 C  
ENDROOT
BRANCH   5   9
HETATM    9  C   UNL     1      -9.052   8.619  71.611  1.00  0.00    -0.247 C  
HETATM   10  O   UNL     1      -8.403   9.434  70.966  1.00  0.00    -0.294 OA 
BRANCH   9  11
HETATM   11  O   UNL     1      -9.390   8.827  72.918  1.00  0.00    -0.242 OA 
HETATM   12  C   UNL     1      -8.711   7.946  73.823  1.00  0.00    -0.271 C  
ENDBRANCH   9  11
ENDBRANCH   5   9
BRANCH   6  13
HETATM   13  C   UNL     1      -9.340   8.538  68.208  1.00  0.00    -0.137 C  
BRANCH  13  14
HETATM   14  C   UNL     1     -10.059   8.770  66.872  1.00  0.00    -0.348 C  
HETATM   15  F   UNL     1     -10.354  10.114  64.994  1.00  0.00    -0.392 F  
HETATM   16  C   UNL     1      -9.673  10.052  66.175  1.00  0.00    -0.227 C  
ENDBRANCH  13  14
ENDBRANCH   6  13
BRANCH   8  17
HETATM   17  C   UNL     1     -11.847   8.659  70.834  1.00  0.00    -0.257 A  
HETATM   18  I   UNL     1     -13.246  13.203  71.918  1.00  0.00    -0.295 I  
HETATM   19  C   UNL     1     -11.578   9.723  69.958  1.00  0.00    -0.185 A  
HETATM   20  C   UNL     1     -12.043  11.013  70.226  1.00  0.00    -0.448 A  
HETATM   21  C   UNL     1     -12.746   8.899  71.884  1.00  0.00    -0.436 A  
HETATM   22  C   UNL     1     -12.784  11.256  71.380  1.00  0.00    -0.396 A  
HETATM   23  C   UNL     1     -13.167  10.196  72.192  1.00  0.00    -0.463 A  
ENDBRANCH   8  17
TORSDOF 5
ENDMDL
MODEL       27
REMARK 921   NORMALIZED FREE ENERGY PREDICTED BY IDOCK:   -4.64 KCAL/MOL
REMARK 922        TOTAL FREE ENERGY PREDICTED BY IDOCK:   -6.45 KCAL/MOL
REMARK 923 INTER-LIGAND FREE ENERGY PREDICTED BY IDOCK:   -6.18 KCAL/MOL
REMARK 924 INTRA-LIGAND FREE ENERGY PREDICTED BY IDOCK:   -0.28 KCAL/MOL
REMARK 927      BINDING AFFINITY PREDICTED BY RF-SCORE:    0.00 PKD
ROOT
HETATM    1  C   UNL     1      -9.965  11.199  66.643  1.00  0.00    -0.207 C  
HETATM    2  C   UNL     1      -9.921   9.979  65.719  1.00  0.00    -0.346 C  
HETATM    3  C   UNL     1      -9.752   8.808  66.689  1.00  0.00    -0.309 C  
HETATM    4  C   UNL     1      -9.431   9.463  68.055  1.00  0.00    -0.133 C  
HETATM    5  C   UNL     1     -10.694   9.550  68.960  1.00  0.00    -0.224 C  
HETATM    6  N   UNL     1      -8.937  10.761  67.584  1.00  0.00    -0.139 NA 
HETATM    7  C   UNL     1     -11.396  11.353  67.208  1.00  0.00    -0.347 C  
HETATM    8  C   UNL     1     -11.679  10.728  68.604  1.00  0.00    -0.289 C  
ENDROOT
BRANCH   5   9
HETATM    9  C   UNL     1     -10.255   9.471  70.416  1.00  0.00    -0.279 C  
HETATM   10  O   UNL     1      -9.312  10.076  70.910  1.00  0.00     0.148 OA 
BRANCH   9  11
HETATM   11  O   UNL     1     -11.063   8.653  71.154  1.00  0.00    -0.242 OA 
HETATM   12  C   UNL     1     -10.938   7.269  70.802  1.00  0.00    -0.251 C  
ENDBRANCH   9  11
ENDBRANCH   5   9
BRANCH   6  13
HETATM   13  C   UNL     1      -8.469  11.724  68.571  1.00  0.00    -0.125 C  
BRANCH  13  14
HETATM   14  C   UNL     1      -8.254  13.140  68.021  1.00  0.00    -0.158 C  
HETATM   15  F   UNL     1      -6.810  14.681  67.041  1.00  0.00    -0.139 F  
HETATM   16  C   UNL     1      -6.851  13.408  67.532  1.00  0.00    -0.144 C  
ENDBRANCH  13  14
ENDBRANCH   6  13
BRANCH   8  17
HETATM   17  C   UNL     1     -11.911  11.752  69.733  1.00  0.00    -0.420 A  
HETATM   18  I   UNL     1     -13.518  15.356  72.598  1.00  0.00    -0.682 I  
HETATM   19  C   UNL     1     -12.647  11.474  70.895  1.00  0.00    -0.438 A  
HETATM   20  C   UNL     1     -13.044  12.497  71.760  1.00  0.00    -0.450 A  
HETATM   21  C   UNL     1     -11.434  13.061  69.569  1.00  0.00    -0.289 A  
HETATM   22  C   UNL     1     -12.710  13.817  71.471  1.00  0.00    -0.346 A  
HETATM   23  C   UNL     1     -11.875  14.099  70.396  1.00  0.00    -0.367 A  
ENDBRANCH   8  17
TORSDOF 5
ENDMDL
MODEL       28
REMARK 921   NORMALIZED FREE ENERGY PREDICTED BY IDOCK:   -4.64 KCAL/MOL
REMARK 922        TOTAL FREE ENERGY PREDICTED BY IDOCK:   -6.45 KCAL/MOL
REMARK 923 INTER-LIGAND FREE ENERGY PREDICTED BY IDOCK:   -6.37 KCAL/MOL
REMARK 924 INTRA-LIGAND FREE ENERGY PREDICTED BY IDOCK:   -0.09 KCAL/MOL
REMARK 927      BINDING AFFINITY PREDICTED BY RF-SCORE:    0.00 PKD
ROOT
HETATM    1  C   UNL     1      -9.803  14.903  65.905  1.00  0.00    -0.332 C  
HETATM    2  C   UNL     1      -9.333  16.337  66.164  1.00  0.00    -0.374 C  
HETATM    3  C   UNL     1     -10.021  16.701  67.482  1.00  0.00    -0.264 C  
HETATM    4  C   UNL     1     -11.043  15.564  67.727  1.00  0.00    -0.315 C  
HETATM    5  C   UNL     1     -10.496  14.508  68.731  1.00  0.00    -0.246 C  
HETATM    6  N   UNL     1     -11.183  15.073  66.352  1.00  0.00    -0.335 NA 
HETATM    7  C   UNL     1      -8.926  13.929  66.727  1.00  0.00    -0.206 C  
HETATM    8  C   UNL     1      -9.472  13.482  68.114  1.00  0.00    -0.214 C  
ENDROOT
BRANCH   5   9
HETATM    9  C   UNL     1     -11.671  13.900  69.485  1.00  0.00    -0.313 C  
HETATM   10  O   UNL     1     -12.510  13.146  69.008  1.00  0.00    -0.016 OA 
BRANCH   9  11
HETATM   11  O   UNL     1     -11.684  14.266  70.801  1.00  0.00    -0.288 OA 
HETATM   12  C   UNL     1     -12.409  15.479  71.042  1.00  0.00    -0.416 C  
ENDBRANCH   9  11
ENDBRANCH   5   9
BRANCH   6  13
HETATM   13  C   UNL     1     -12.115  13.982  66.099  1.00  0.00    -0.446 C  
BRANCH  13  14
HETATM   14  C   UNL     1     -12.399  13.726  64.613  1.00  0.00    -0.410 C  
HETATM   15  F   UNL     1     -12.724  12.182  62.901  1.00  0.00    -0.521 F  
HETATM   16  C   UNL     1     -12.429  12.266  64.231  1.00  0.00    -0.413 C  
ENDBRANCH  13  14
ENDBRANCH   6  13
BRANCH   8  17
HETATM   17  C   UNL     1      -9.901  12.002  68.190  1.00  0.00    -0.201 A  
HETATM   18  I   UNL     1     -10.180   7.139  67.982  1.00  0.00    -0.271 I  
HETATM   19  C   UNL     1      -9.807  11.226  69.356  1.00  0.00     0.186 A  
HETATM   20  C   UNL     1      -9.963   9.838  69.312  1.00  0.00    -0.201 A  
HETATM   21  C   UNL     1     -10.335  11.361  67.021  1.00  0.00    -0.258 A  
HETATM   22  C   UNL     1     -10.213   9.207  68.097  1.00  0.00    -0.207 A  
HETATM   23  C   UNL     1     -10.436   9.968  66.956  1.00  0.00    -0.302 A  
ENDBRANCH   8  17
TORSDOF 5
ENDMDL
MODEL       29
REMARK 921   NORMALIZED FREE ENERGY PREDICTED BY IDOCK:   -4.64 KCAL/MOL
REMARK 922        TOTAL FREE ENERGY PREDICTED BY IDOCK:   -6.45 KCAL/MOL
REMARK 923 INTER-LIGAND FREE ENERGY PREDICTED BY IDOCK:   -6.20 KCAL/MOL
REMARK 924 INTRA-LIGAND FREE ENERGY PREDICTED BY IDOCK:   -0.25 KCAL/MOL
REMARK 927      BINDING AFFINITY PREDICTED BY RF-SCORE:    0.00 PKD
ROOT
HETATM    1  C   UNL     1     -10.689  17.316  67.971  1.00  0.00    -0.367 C  
HETATM    2  C   UNL     1     -10.006  18.648  67.653  1.00  0.00    -0.375 C  
HETATM    3  C   UNL     1      -8.518  18.331  67.822  1.00  0.00    -0.256 C  
HETATM    4  C   UNL     1      -8.480  16.936  68.491  1.00  0.00    -0.258 C  
HETATM    5  C   UNL     1      -8.224  15.807  67.451  1.00  0.00    -0.196 C  
HETATM    6  N   UNL     1      -9.824  16.920  69.080  1.00  0.00    -0.261 NA 
HETATM    7  C   UNL     1     -10.653  16.417  66.713  1.00  0.00    -0.238 C  
HETATM    8  C   UNL     1      -9.489  15.390  66.609  1.00  0.00    -0.281 C  
ENDROOT
BRANCH   5   9
HETATM    9  C   UNL     1      -7.483  14.670  68.141  1.00  0.00    -0.123 C  
HETATM   10  O   UNL     1      -7.644  14.315  69.302  1.00  0.00    -0.091 OA 
BRANCH   9  11
HETATM   11  O   UNL     1      -6.611  14.039  67.300  1.00  0.00    -0.266 OA 
HETATM   12  C   UNL     1      -6.526  12.626  67.531  1.00  0.00    -0.158 C  
ENDBRANCH   9  11
ENDBRANCH   5   9
BRANCH   6  13
HETATM   13  C   UNL     1     -10.221  15.761  69.867  1.00  0.00    -0.273 C  
BRANCH  13  14
HETATM   14  C   UNL     1     -11.691  15.770  70.308  1.00  0.00    -0.373 C  
HETATM   15  F   UNL     1     -13.233  15.976  72.040  1.00  0.00    -0.506 F  
HETATM   16  C   UNL     1     -11.891  15.952  71.793  1.00  0.00    -0.497 C  
ENDBRANCH  13  14
ENDBRANCH   6  13
BRANCH   8  17
HETATM   17  C   UNL     1      -9.916  13.916  66.753  1.00  0.00    -0.269 A  
HETATM   18  I   UNL     1     -10.115   9.087  67.403  1.00  0.00    -0.352 I  
HETATM   19  C   UNL     1     -10.433  13.370  67.939  1.00  0.00    -0.243 A  
HETATM   20  C   UNL     1     -10.563  11.988  68.100  1.00  0.00    -0.233 A  
HETATM   21  C   UNL     1      -9.710  13.041  65.677  1.00  0.00    -0.110 A  
HETATM   22  C   UNL     1     -10.175  11.132  67.073  1.00  0.00    -0.215 A  
HETATM   23  C   UNL     1      -9.782  11.655  65.848  1.00  0.00    -0.260 A  
ENDBRANCH   8  17
TORSDOF 5
ENDMDL
MODEL       30
REMARK 921   NORMALIZED FREE ENERGY PREDICTED BY IDOCK:   -4.62 KCAL/MOL
REMARK 922        TOTAL FREE ENERGY PREDICTED BY IDOCK:   -6.42 KCAL/MOL
REMARK 923 INTER-LIGAND FREE ENERGY PREDICTED BY IDOCK:   -6.13 KCAL/MOL
REMARK 924 INTRA-LIGAND FREE ENERGY PREDICTED BY IDOCK:   -0.29 KCAL/MOL
REMARK 927      BINDING AFFINITY PREDICTED BY RF-SCORE:    0.00 PKD
ROOT
HETATM    1  C   UNL     1     -12.072  14.202  66.623  1.00  0.00    -0.451 C  
HETATM    2  C   UNL     1     -12.020  14.700  65.177  1.00  0.00    -0.334 C  
HETATM    3  C   UNL     1     -10.612  14.311  64.720  1.00  0.00    -0.434 C  
HETATM    4  C   UNL     1      -9.877  13.879  66.012  1.00  0.00    -0.289 C  
HETATM    5  C   UNL     1      -9.855  12.331  66.170  1.00  0.00    -0.257 C  
HETATM    6  N   UNL     1     -10.710  14.574  67.000  1.00  0.00    -0.286 NA 
HETATM    7  C   UNL     1     -12.400  12.691  66.626  1.00  0.00     0.143 C  
HETATM    8  C   UNL     1     -11.199  11.705  66.702  1.00  0.00    -0.362 C  
ENDROOT
BRANCH   5   9
HETATM    9  C   UNL     1      -8.595  11.939  66.930  1.00  0.00    -0.185 C  
HETATM   10  O   UNL     1      -8.249  12.386  68.016  1.00  0.00    -0.148 OA 
BRANCH   9  11
HETATM   11  O   UNL     1      -7.876  10.980  66.274  1.00  0.00    -0.158 OA 
HETATM   12  C   UNL     1      -6.963  10.277  67.128  1.00  0.00    -0.088 C  
ENDBRANCH   9  11
ENDBRANCH   5   9
BRANCH   6  13
HETATM   13  C   UNL     1     -10.346  14.472  68.407  1.00  0.00    -0.241 C  
BRANCH  13  14
HETATM   14  C   UNL     1      -9.709  15.742  68.988  1.00  0.00    -0.242 C  
HETATM   15  F   UNL     1      -7.793  17.029  69.292  1.00  0.00    -0.232 F  
HETATM   16  C   UNL     1      -8.220  15.848  68.760  1.00  0.00    -0.196 C  
ENDBRANCH  13  14
ENDBRANCH   6  13
BRANCH   8  17
HETATM   17  C   UNL     1     -11.083  10.935  68.033  1.00  0.00    -0.351 A  
HETATM   18  I   UNL     1     -11.838   8.225  72.016  1.00  0.00    -0.487 I  
HETATM   19  C   UNL     1     -10.541   9.644  68.139  1.00  0.00    -0.273 A  
HETATM   20  C   UNL     1     -10.689   8.894  69.307  1.00  0.00    -0.177 A  
HETATM   21  C   UNL     1     -11.614  11.509  69.197  1.00  0.00    -0.382 A  
HETATM   22  C   UNL     1     -11.386   9.425  70.389  1.00  0.00    -0.248 A  
HETATM   23  C   UNL     1     -11.819  10.745  70.350  1.00  0.00    -0.450 A  
ENDBRANCH   8  17
TORSDOF 5
ENDMDL
MODEL       31
REMARK 921   NORMALIZED FREE ENERGY PREDICTED BY IDOCK:   -4.61 KCAL/MOL
REMARK 922        TOTAL FREE ENERGY PREDICTED BY IDOCK:   -6.41 KCAL/MOL
REMARK 923 INTER-LIGAND FREE ENERGY PREDICTED BY IDOCK:   -6.38 KCAL/MOL
REMARK 924 INTRA-LIGAND FREE ENERGY PREDICTED BY IDOCK:   -0.03 KCAL/MOL
REMARK 927      BINDING AFFINITY PREDICTED BY RF-SCORE:    0.00 PKD
ROOT
HETATM    1  C   UNL     1     -12.031  14.639  69.156  1.00  0.00    -0.294 C  
HETATM    2  C   UNL     1     -12.427  13.570  70.177  1.00  0.00    -0.276 C  
HETATM    3  C   UNL     1     -11.698  12.320  69.680  1.00  0.00    -0.386 C  
HETATM    4  C   UNL     1     -11.176  12.695  68.271  1.00  0.00    -0.272 C  
HETATM    5  C   UNL     1      -9.676  13.106  68.306  1.00  0.00    -0.223 C  
HETATM    6  N   UNL     1     -12.096  13.796  67.965  1.00  0.00    -0.339 NA 
HETATM    7  C   UNL     1     -10.639  15.203  69.528  1.00  0.00    -0.277 C  
HETATM    8  C   UNL     1      -9.407  14.572  68.818  1.00  0.00    -0.177 C  
ENDROOT
BRANCH   5   9
HETATM    9  C   UNL     1      -9.042  12.744  66.969  1.00  0.00    -0.220 C  
HETATM   10  O   UNL     1      -9.347  13.221  65.883  1.00  0.00    -0.092 OA 
BRANCH   9  11
HETATM   11  O   UNL     1      -8.041  11.825  67.106  1.00  0.00    -0.155 OA 
HETATM   12  C   UNL     1      -7.514  11.759  68.438  1.00  0.00    -0.105 C  
ENDBRANCH   9  11
ENDBRANCH   5   9
BRANCH   6  13
HETATM   13  C   UNL     1     -11.986  14.448  66.667  1.00  0.00    -0.392 C  
BRANCH  13  14
HETATM   14  C   UNL     1     -12.580  13.644  65.503  1.00  0.00    -0.541 C  
HETATM   15  F   UNL     1     -12.658  13.251  63.209  1.00  0.00    -0.491 F  
HETATM   16  C   UNL     1     -12.081  14.064  64.141  1.00  0.00    -0.422 C  
ENDBRANCH  13  14
ENDBRANCH   6  13
BRANCH   8  17
HETATM   17  C   UNL     1      -8.702  15.500  67.808  1.00  0.00    -0.170 A  
HETATM   18  I   UNL     1      -6.508  19.201  65.512  1.00  0.00    -0.263 I  
HETATM   19  C   UNL     1      -7.319  15.480  67.569  1.00  0.00    -0.216 A  
HETATM   20  C   UNL     1      -6.697  16.501  66.845  1.00  0.00    -0.233 A  
HETATM   21  C   UNL     1      -9.458  16.476  67.142  1.00  0.00    -0.246 A  
HETATM   22  C   UNL     1      -7.454  17.559  66.350  1.00  0.00    -0.299 A  
HETATM   23  C   UNL     1      -8.839  17.532  66.466  1.00  0.00    -0.291 A  
ENDBRANCH   8  17
TORSDOF 5
ENDMDL
MODEL       32
REMARK 921   NORMALIZED FREE ENERGY PREDICTED BY IDOCK:   -4.61 KCAL/MOL
REMARK 922        TOTAL FREE ENERGY PREDICTED BY IDOCK:   -6.41 KCAL/MOL
REMARK 923 INTER-LIGAND FREE ENERGY PREDICTED BY IDOCK:   -6.16 KCAL/MOL
REMARK 924 INTRA-LIGAND FREE ENERGY PREDICTED BY IDOCK:   -0.25 KCAL/MOL
REMARK 927      BINDING AFFINITY PREDICTED BY RF-SCORE:    0.00 PKD
ROOT
HETATM    1  C   UNL     1     -10.008  14.261  68.740  1.00  0.00    -0.205 C  
HETATM    2  C   UNL     1     -11.180  14.855  69.525  1.00  0.00    -0.300 C  
HETATM    3  C   UNL     1     -12.292  14.954  68.479  1.00  0.00     0.059 C  
HETATM    4  C   UNL     1     -11.593  14.677  67.125  1.00  0.00    -0.378 C  
HETATM    5  C   UNL     1     -11.796  13.205  66.665  1.00  0.00    -0.449 C  
HETATM    6  N   UNL     1     -10.214  15.006  67.501  1.00  0.00    -0.233 NA 
HETATM    7  C   UNL     1     -10.181  12.726  68.659  1.00  0.00    -0.162 C  
HETATM    8  C   UNL     1     -10.865  12.156  67.383  1.00  0.00    -0.286 C  
ENDROOT
BRANCH   5   9
HETATM    9  C   UNL     1     -11.788  13.166  65.143  1.00  0.00    -0.359 C  
HETATM   10  O   UNL     1     -10.947  13.688  64.421  1.00  0.00    -0.386 OA 
BRANCH   9  11
HETATM   11  O   UNL     1     -12.829  12.440  64.640  1.00  0.00    -0.714 OA 
HETATM   12  C   UNL     1     -12.543  11.852  63.364  1.00  0.00    -0.431 C  
ENDBRANCH   9  11
ENDBRANCH   5   9
BRANCH   6  13
HETATM   13  C   UNL     1      -9.179  14.920  66.479  1.00  0.00    -0.285 C  
BRANCH  13  14
HETATM   14  C   UNL     1      -8.429  16.234  66.226  1.00  0.00    -0.369 C  
HETATM   15  F   UNL     1      -8.490  18.561  66.148  1.00  0.00    -0.288 F  
HETATM   16  C   UNL     1      -9.284  17.471  66.362  1.00  0.00    -0.245 C  
ENDBRANCH  13  14
ENDBRANCH   6  13
BRANCH   8  17
HETATM   17  C   UNL     1      -9.927  11.365  66.449  1.00  0.00    -0.247 A  
HETATM   18  I   UNL     1      -6.672   8.305  64.495  1.00  0.00    -0.070 I  
HETATM   19  C   UNL     1     -10.343  10.268  65.678  1.00  0.00    -0.232 A  
HETATM   20  C   UNL     1      -9.414   9.433  65.052  1.00  0.00    -0.204 A  
HETATM   21  C   UNL     1      -8.564  11.696  66.417  1.00  0.00    -0.143 A  
HETATM   22  C   UNL     1      -8.052   9.684  65.192  1.00  0.00    -0.124 A  
HETATM   23  C   UNL     1      -7.625  10.834  65.844  1.00  0.00    -0.106 A  
ENDBRANCH   8  17
TORSDOF 5
ENDMDL
MODEL       33
REMARK 921   NORMALIZED FREE ENERGY PREDICTED BY IDOCK:   -4.59 KCAL/MOL
REMARK 922        TOTAL FREE ENERGY PREDICTED BY IDOCK:   -6.39 KCAL/MOL
REMARK 923 INTER-LIGAND FREE ENERGY PREDICTED BY IDOCK:   -6.23 KCAL/MOL
REMARK 924 INTRA-LIGAND FREE ENERGY PREDICTED BY IDOCK:   -0.16 KCAL/MOL
REMARK 927      BINDING AFFINITY PREDICTED BY RF-SCORE:    0.00 PKD
ROOT
HETATM    1  C   UNL     1      -9.043  18.720  68.079  1.00  0.00    -0.299 C  
HETATM    2  C   UNL     1      -9.941  19.935  67.833  1.00  0.00    -0.552 C  
HETATM    3  C   UNL     1     -10.812  19.497  66.653  1.00  0.00    -0.476 C  
HETATM    4  C   UNL     1     -10.160  18.190  66.139  1.00  0.00    -0.336 C  
HETATM    5  C   UNL     1     -10.900  16.931  66.676  1.00  0.00     0.023 C  
HETATM    6  N   UNL     1      -8.809  18.372  66.680  1.00  0.00    -0.282 NA 
HETATM    7  C   UNL     1      -9.816  17.685  68.928  1.00  0.00    -0.293 C  
HETATM    8  C   UNL     1     -10.548  16.545  68.162  1.00  0.00    -0.329 C  
ENDROOT
BRANCH   5   9
HETATM    9  C   UNL     1     -10.763  15.813  65.650  1.00  0.00    -0.348 C  
HETATM   10  O   UNL     1      -9.826  15.668  64.875  1.00  0.00    -0.265 OA 
BRANCH   9  11
HETATM   11  O   UNL     1     -11.809  14.937  65.701  1.00  0.00    -0.265 OA 
HETATM   12  C   UNL     1     -12.055  14.279  64.451  1.00  0.00    -0.468 C  
ENDBRANCH   9  11
ENDBRANCH   5   9
BRANCH   6  13
HETATM   13  C   UNL     1      -7.807  17.354  66.395  1.00  0.00    -0.302 C  
BRANCH  13  14
HETATM   14  C   UNL     1      -6.516  17.897  65.765  1.00  0.00    -0.263 C  
HETATM   15  F   UNL     1      -5.337  19.728  64.944  1.00  0.00    -0.164 F  
HETATM   16  C   UNL     1      -6.548  19.376  65.464  1.00  0.00    -0.267 C  
ENDBRANCH  13  14
ENDBRANCH   6  13
BRANCH   8  17
HETATM   17  C   UNL     1      -9.928  15.145  68.347  1.00  0.00    -0.222 A  
HETATM   18  I   UNL     1      -8.333  10.568  67.819  1.00  0.00    -0.112 I  
HETATM   19  C   UNL     1      -8.560  14.874  68.188  1.00  0.00    -0.159 A  
HETATM   20  C   UNL     1      -8.089  13.561  68.113  1.00  0.00    -0.154 A  
HETATM   21  C   UNL     1     -10.775  14.058  68.610  1.00  0.00    -0.269 A  
HETATM   22  C   UNL     1      -8.985  12.498  68.195  1.00  0.00    -0.199 A  
HETATM   23  C   UNL     1     -10.323  12.742  68.479  1.00  0.00    -0.231 A  
ENDBRANCH   8  17
TORSDOF 5
ENDMDL
MODEL       34
REMARK 921   NORMALIZED FREE ENERGY PREDICTED BY IDOCK:   -4.57 KCAL/MOL
REMARK 922        TOTAL FREE ENERGY PREDICTED BY IDOCK:   -6.36 KCAL/MOL
REMARK 923 INTER-LIGAND FREE ENERGY PREDICTED BY IDOCK:   -6.14 KCAL/MOL
REMARK 924 INTRA-LIGAND FREE ENERGY PREDICTED BY IDOCK:   -0.22 KCAL/MOL
REMARK 927      BINDING AFFINITY PREDICTED BY RF-SCORE:    0.00 PKD
ROOT
HETATM    1  C   UNL     1     -10.807  12.482  64.531  1.00  0.00    -0.328 C  
HETATM    2  C   UNL     1     -12.198  12.363  63.902  1.00  0.00    -0.603 C  
HETATM    3  C   UNL     1     -13.124  12.918  64.987  1.00  0.00     0.059 C  
HETATM    4  C   UNL     1     -12.233  13.047  66.246  1.00  0.00    -0.320 C  
HETATM    5  C   UNL     1     -11.731  14.506  66.447  1.00  0.00    -0.372 C  
HETATM    6  N   UNL     1     -11.180  12.091  65.889  1.00  0.00    -0.329 NA 
HETATM    7  C   UNL     1     -10.291  13.928  64.347  1.00  0.00    -0.082 C  
HETATM    8  C   UNL     1     -10.521  14.918  65.525  1.00  0.00    -0.380 C  
ENDROOT
BRANCH   5   9
HETATM    9  C   UNL     1     -11.543  14.754  67.938  1.00  0.00    -0.351 C  
HETATM   10  O   UNL     1     -11.417  13.888  68.794  1.00  0.00    -0.252 OA 
BRANCH   9  11
HETATM   11  O   UNL     1     -11.494  16.086  68.236  1.00  0.00    -0.355 OA 
HETATM   12  C   UNL     1     -10.897  16.357  69.512  1.00  0.00    -0.338 C  
ENDBRANCH   9  11
ENDBRANCH   5   9
BRANCH   6  13
HETATM   13  C   UNL     1     -10.106  11.855  66.843  1.00  0.00    -0.207 C  
BRANCH  13  14
HETATM   14  C   UNL     1     -10.101  10.447  67.455  1.00  0.00    -0.231 C  
HETATM   15  F   UNL     1     -11.019   8.958  68.992  1.00  0.00    -0.211 F  
HETATM   16  C   UNL     1     -11.105  10.252  68.566  1.00  0.00    -0.242 C  
ENDBRANCH  13  14
ENDBRANCH   6  13
BRANCH   8  17
HETATM   17  C   UNL     1      -9.239  15.336  66.274  1.00  0.00    -0.350 A  
HETATM   18  I   UNL     1      -5.950  16.959  69.486  1.00  0.00    -0.212 I  
HETATM   19  C   UNL     1      -8.432  14.440  66.992  1.00  0.00    -0.206 A  
HETATM   20  C   UNL     1      -7.436  14.901  67.856  1.00  0.00    -0.153 A  
HETATM   21  C   UNL     1      -8.891  16.694  66.315  1.00  0.00    -0.348 A  
HETATM   22  C   UNL     1      -7.235  16.269  68.015  1.00  0.00    -0.132 A  
HETATM   23  C   UNL     1      -7.936  17.167  67.220  1.00  0.00    -0.200 A  
ENDBRANCH   8  17
TORSDOF 5
ENDMDL
MODEL       35
REMARK 921   NORMALIZED FREE ENERGY PREDICTED BY IDOCK:   -4.53 KCAL/MOL
REMARK 922        TOTAL FREE ENERGY PREDICTED BY IDOCK:   -6.31 KCAL/MOL
REMARK 923 INTER-LIGAND FREE ENERGY PREDICTED BY IDOCK:   -6.12 KCAL/MOL
REMARK 924 INTRA-LIGAND FREE ENERGY PREDICTED BY IDOCK:   -0.19 KCAL/MOL
REMARK 927      BINDING AFFINITY PREDICTED BY RF-SCORE:    0.00 PKD
ROOT
HETATM    1  C   UNL     1     -12.068  12.983  66.703  1.00  0.00    -0.319 C  
HETATM    2  C   UNL     1     -11.905  14.432  66.236  1.00  0.00    -0.391 C  
HETATM    3  C   UNL     1     -10.427  14.724  66.502  1.00  0.00    -0.291 C  
HETATM    4  C   UNL     1      -9.929  13.530  67.352  1.00  0.00    -0.234 C  
HETATM    5  C   UNL     1      -9.185  12.477  66.482  1.00  0.00    -0.210 C  
HETATM    6  N   UNL     1     -11.216  13.069  67.886  1.00  0.00    -0.257 NA 
HETATM    7  C   UNL     1     -11.594  12.034  65.578  1.00  0.00    -0.352 C  
HETATM    8  C   UNL     1     -10.127  11.522  65.655  1.00  0.00    -0.278 C  
ENDROOT
BRANCH   5   9
HETATM    9  C   UNL     1      -8.135  11.788  67.344  1.00  0.00    -0.161 C  
HETATM   10  O   UNL     1      -8.266  11.492  68.525  1.00  0.00    -0.145 OA 
BRANCH   9  11
HETATM   11  O   UNL     1      -7.003  11.493  66.640  1.00  0.00    -0.131 OA 
HETATM   12  C   UNL     1      -5.805  11.960  67.275  1.00  0.00    -0.130 C  
ENDBRANCH   9  11
ENDBRANCH   5   9
BRANCH   6  13
HETATM   13  C   UNL     1     -11.219  11.939  68.806  1.00  0.00    -0.259 C  
BRANCH  13  14
HETATM   14  C   UNL     1     -12.014  12.176  70.096  1.00  0.00    -0.394 C  
HETATM   15  F   UNL     1     -13.090  11.266  71.950  1.00  0.00    -0.530 F  
HETATM   16  C   UNL     1     -12.426  10.912  70.811  1.00  0.00    -0.394 C  
ENDBRANCH  13  14
ENDBRANCH   6  13
BRANCH   8  17
HETATM   17  C   UNL     1      -9.985  10.020  65.978  1.00  0.00    -0.334 A  
HETATM   18  I   UNL     1      -8.564   5.632  67.560  1.00  0.00    -0.104 I  
HETATM   19  C   UNL     1     -10.649   9.390  67.043  1.00  0.00    -0.272 A  
HETATM   20  C   UNL     1     -10.296   8.101  67.450  1.00  0.00    -0.351 A  
HETATM   21  C   UNL     1      -9.089   9.247  65.227  1.00  0.00    -0.271 A  
HETATM   22  C   UNL     1      -9.269   7.425  66.796  1.00  0.00    -0.156 A  
HETATM   23  C   UNL     1      -8.688   7.980  65.663  1.00  0.00    -0.156 A  
ENDBRANCH   8  17
TORSDOF 5
ENDMDL
MODEL       36
REMARK 921   NORMALIZED FREE ENERGY PREDICTED BY IDOCK:   -4.52 KCAL/MOL
REMARK 922        TOTAL FREE ENERGY PREDICTED BY IDOCK:   -6.30 KCAL/MOL
REMARK 923 INTER-LIGAND FREE ENERGY PREDICTED BY IDOCK:   -6.08 KCAL/MOL
REMARK 924 INTRA-LIGAND FREE ENERGY PREDICTED BY IDOCK:   -0.22 KCAL/MOL
REMARK 927      BINDING AFFINITY PREDICTED BY RF-SCORE:    0.00 PKD
ROOT
HETATM    1  C   UNL     1      -7.979  19.852  66.699  1.00  0.00    -0.314 C  
HETATM    2  C   UNL     1      -7.083  20.078  65.479  1.00  0.00    -0.336 C  
HETATM    3  C   UNL     1      -6.332  18.751  65.342  1.00  0.00    -0.322 C  
HETATM    4  C   UNL     1      -6.643  17.979  66.648  1.00  0.00    -0.198 C  
HETATM    5  C   UNL     1      -7.777  16.935  66.440  1.00  0.00    -0.345 C  
HETATM    6  N   UNL     1      -7.015  19.109  67.507  1.00  0.00    -0.208 NA 
HETATM    7  C   UNL     1      -9.248  19.084  66.259  1.00  0.00    -0.307 C  
HETATM    8  C   UNL     1      -9.233  17.537  66.425  1.00  0.00    -0.267 C  
ENDROOT
BRANCH   5   9
HETATM    9  C   UNL     1      -7.550  15.774  67.398  1.00  0.00    -0.191 C  
HETATM   10  O   UNL     1      -7.057  15.858  68.516  1.00  0.00    -0.117 OA 
BRANCH   9  11
HETATM   11  O   UNL     1      -7.994  14.588  66.886  1.00  0.00    -0.115 OA 
HETATM   12  C   UNL     1      -7.851  13.491  67.798  1.00  0.00    -0.167 C  
ENDBRANCH   9  11
ENDBRANCH   5   9
BRANCH   6  13
HETATM   13  C   UNL     1      -7.362  18.838  68.895  1.00  0.00    -0.294 C  
BRANCH  13  14
HETATM   14  C   UNL     1      -6.749  19.820  69.903  1.00  0.00    -0.273 C  
HETATM   15  F   UNL     1      -5.167  20.215  71.565  1.00  0.00    -0.242 F  
HETATM   16  C   UNL     1      -5.641  19.233  70.745  1.00  0.00    -0.211 C  
ENDBRANCH  13  14
ENDBRANCH   6  13
BRANCH   8  17
HETATM   17  C   UNL     1     -10.176  16.999  67.520  1.00  0.00    -0.323 A  
HETATM   18  I   UNL     1     -12.338  14.456  71.075  1.00  0.00    -0.469 I  
HETATM   19  C   UNL     1     -10.181  17.472  68.842  1.00  0.00    -0.353 A  
HETATM   20  C   UNL     1     -10.864  16.786  69.850  1.00  0.00    -0.106 A  
HETATM   21  C   UNL     1     -11.026  15.926  67.215  1.00  0.00    -0.234 A  
HETATM   22  C   UNL     1     -11.552  15.614  69.548  1.00  0.00    -0.357 A  
HETATM   23  C   UNL     1     -11.665  15.201  68.226  1.00  0.00    -0.336 A  
ENDBRANCH   8  17
TORSDOF 5
ENDMDL
MODEL       37
REMARK 921   NORMALIZED FREE ENERGY PREDICTED BY IDOCK:   -4.45 KCAL/MOL
REMARK 922        TOTAL FREE ENERGY PREDICTED BY IDOCK:   -6.20 KCAL/MOL
REMARK 923 INTER-LIGAND FREE ENERGY PREDICTED BY IDOCK:   -6.05 KCAL/MOL
REMARK 924 INTRA-LIGAND FREE ENERGY PREDICTED BY IDOCK:   -0.16 KCAL/MOL
REMARK 927      BINDING AFFINITY PREDICTED BY RF-SCORE:    0.00 PKD
ROOT
HETATM    1  C   UNL     1      -8.673   9.323  69.206  1.00  0.00    -0.141 C  
HETATM    2  C   UNL     1      -8.959  10.777  68.820  1.00  0.00    -0.171 C  
HETATM    3  C   UNL     1     -10.432  10.958  69.192  1.00  0.00    -0.248 C  
HETATM    4  C   UNL     1     -10.947   9.529  69.494  1.00  0.00    -0.195 C  
HETATM    5  C   UNL     1     -10.978   9.243  71.023  1.00  0.00    -0.390 C  
HETATM    6  N   UNL     1      -9.942   8.756  68.757  1.00  0.00    -0.180 NA 
HETATM    7  C   UNL     1      -8.385   9.251  70.724  1.00  0.00    -0.230 C  
HETATM    8  C   UNL     1      -9.578   8.894  71.656  1.00  0.00    -0.363 C  
ENDROOT
BRANCH   5   9
HETATM    9  C   UNL     1     -12.100   8.253  71.309  1.00  0.00    -0.280 C  
HETATM   10  O   UNL     1     -12.204   7.134  70.823  1.00  0.00    -0.327 OA 
BRANCH   9  11
HETATM   11  O   UNL     1     -12.996   8.739  72.218  1.00  0.00    -0.371 OA 
HETATM   12  C   UNL     1     -13.243  10.144  72.071  1.00  0.00    -0.430 C  
ENDBRANCH   9  11
ENDBRANCH   5   9
BRANCH   6  13
HETATM   13  C   UNL     1     -10.064   7.305  68.735  1.00  0.00    -0.176 C  
BRANCH  13  14
HETATM   14  C   UNL     1     -10.802   6.750  67.509  1.00  0.00    -0.388 C  
HETATM   15  F   UNL     1     -11.083   5.004  65.994  1.00  0.00    -0.325 F  
HETATM   16  C   UNL     1     -10.325   5.389  67.062  1.00  0.00    -0.248 C  
ENDBRANCH  13  14
ENDBRANCH   6  13
BRANCH   8  17
HETATM   17  C   UNL     1      -9.485   7.503  72.316  1.00  0.00    -0.195 A  
HETATM   18  I   UNL     1     -10.295   2.999  74.001  1.00  0.00    -0.276 I  
HETATM   19  C   UNL     1      -8.901   6.387  71.696  1.00  0.00    -0.136 A  
HETATM   20  C   UNL     1      -9.068   5.102  72.219  1.00  0.00    -0.144 A  
HETATM   21  C   UNL     1     -10.081   7.306  73.570  1.00  0.00    -0.387 A  
HETATM   22  C   UNL     1      -9.824   4.917  73.373  1.00  0.00    -0.145 A  
HETATM   23  C   UNL     1     -10.302   6.019  74.071  1.00  0.00    -0.301 A  
ENDBRANCH   8  17
TORSDOF 5
ENDMDL
MODEL       38
REMARK 921   NORMALIZED FREE ENERGY PREDICTED BY IDOCK:   -4.35 KCAL/MOL
REMARK 922        TOTAL FREE ENERGY PREDICTED BY IDOCK:   -6.07 KCAL/MOL
REMARK 923 INTER-LIGAND FREE ENERGY PREDICTED BY IDOCK:   -5.72 KCAL/MOL
REMARK 924 INTRA-LIGAND FREE ENERGY PREDICTED BY IDOCK:   -0.36 KCAL/MOL
REMARK 927      BINDING AFFINITY PREDICTED BY RF-SCORE:    0.00 PKD
ROOT
HETATM    1  C   UNL     1      -9.008   9.097  70.952  1.00  0.00    -0.237 C  
HETATM    2  C   UNL     1      -7.920   8.159  71.480  1.00  0.00    -0.135 C  
HETATM    3  C   UNL     1      -8.046   6.929  70.576  1.00  0.00    -0.115 C  
HETATM    4  C   UNL     1      -9.366   7.140  69.796  1.00  0.00    -0.146 C  
HETATM    5  C   UNL     1      -9.105   7.705  68.369  1.00  0.00    -0.130 C  
HETATM    6  N   UNL     1     -10.029   8.082  70.704  1.00  0.00    -0.189 NA 
HETATM    7  C   UNL     1      -8.469   9.850  69.714  1.00  0.00    -0.206 C  
HETATM    8  C   UNL     1      -8.805   9.251  68.318  1.00  0.00    -0.129 C  
ENDROOT
BRANCH   5   9
HETATM    9  C   UNL     1     -10.209   7.213  67.443  1.00  0.00    -0.226 C  
HETATM   10  O   UNL     1     -11.406   7.207  67.701  1.00  0.00    -0.011 OA 
BRANCH   9  11
HETATM   11  O   UNL     1      -9.722   6.793  66.238  1.00  0.00    -0.112 OA 
HETATM   12  C   UNL     1      -8.346   6.392  66.295  1.00  0.00    -0.123 C  
ENDBRANCH   9  11
ENDBRANCH   5   9
BRANCH   6  13
HETATM   13  C   UNL     1     -11.370   8.540  70.368  1.00  0.00    -0.182 C  
BRANCH  13  14
HETATM   14  C   UNL     1     -12.092   9.274  71.507  1.00  0.00    -0.435 C  
HETATM   15  F   UNL     1     -13.347  11.112  72.190  1.00  0.00    -0.572 F  
HETATM   16  C   UNL     1     -12.715  10.587  71.100  1.00  0.00    -0.418 C  
ENDBRANCH  13  14
ENDBRANCH   6  13
BRANCH   8  17
HETATM   17  C   UNL     1      -9.797  10.084  67.482  1.00  0.00    -0.211 A  
HETATM   18  I   UNL     1     -12.187  13.598  65.090  1.00  0.00    -0.530 I  
HETATM   19  C   UNL     1      -9.769  10.148  66.079  1.00  0.00    -0.285 A  
HETATM   20  C   UNL     1     -10.513  11.105  65.386  1.00  0.00    -0.321 A  
HETATM   21  C   UNL     1     -10.733  10.890  68.146  1.00  0.00    -0.256 A  
HETATM   22  C   UNL     1     -11.297  12.016  66.089  1.00  0.00    -0.351 A  
HETATM   23  C   UNL     1     -11.437  11.889  67.466  1.00  0.00    -0.396 A  
ENDBRANCH   8  17
TORSDOF 5
ENDMDL
MODEL       39
REMARK 921   NORMALIZED FREE ENERGY PREDICTED BY IDOCK:   -4.35 KCAL/MOL
REMARK 922        TOTAL FREE ENERGY PREDICTED BY IDOCK:   -6.07 KCAL/MOL
REMARK 923 INTER-LIGAND FREE ENERGY PREDICTED BY IDOCK:   -5.88 KCAL/MOL
REMARK 924 INTRA-LIGAND FREE ENERGY PREDICTED BY IDOCK:   -0.20 KCAL/MOL
REMARK 927      BINDING AFFINITY PREDICTED BY RF-SCORE:    0.00 PKD
ROOT
HETATM    1  C   UNL     1     -10.895  13.557  68.550  1.00  0.00    -0.264 C  
HETATM    2  C   UNL     1     -11.714  14.641  67.846  1.00  0.00    -0.379 C  
HETATM    3  C   UNL     1     -11.445  14.379  66.362  1.00  0.00    -0.365 C  
HETATM    4  C   UNL     1     -10.283  13.356  66.341  1.00  0.00    -0.293 C  
HETATM    5  C   UNL     1     -10.801  11.904  66.126  1.00  0.00    -0.334 C  
HETATM    6  N   UNL     1      -9.726  13.605  67.675  1.00  0.00    -0.222 NA 
HETATM    7  C   UNL     1     -11.701  12.237  68.554  1.00  0.00    -0.381 C  
HETATM    8  C   UNL     1     -11.404  11.223  67.412  1.00  0.00    -0.349 C  
ENDROOT
BRANCH   5   9
HETATM    9  C   UNL     1      -9.726  11.109  65.396  1.00  0.00    -0.231 C  
HETATM   10  O   UNL     1      -8.551  11.025  65.731  1.00  0.00    -0.180 OA 
BRANCH   9  11
HETATM   11  O   UNL     1     -10.224  10.447  64.310  1.00  0.00    -0.323 OA 
HETATM   12  C   UNL     1      -9.710  10.940  63.065  1.00  0.00    -0.350 C  
ENDBRANCH   9  11
ENDBRANCH   5   9
BRANCH   6  13
HETATM   13  C   UNL     1      -8.545  12.856  68.083  1.00  0.00    -0.188 C  
BRANCH  13  14
HETATM   14  C   UNL     1      -7.217  13.579  67.821  1.00  0.00    -0.157 C  
HETATM   15  F   UNL     1      -6.083  15.596  67.560  1.00  0.00    -0.143 F  
HETATM   16  C   UNL     1      -7.332  15.084  67.762  1.00  0.00    -0.166 C  
ENDBRANCH  13  14
ENDBRANCH   6  13
BRANCH   8  17
HETATM   17  C   UNL     1     -10.690   9.933  67.867  1.00  0.00    -0.316 A  
HETATM   18  I   UNL     1      -9.385   5.745  69.995  1.00  0.00    -0.207 I  
HETATM   19  C   UNL     1     -10.763   8.718  67.168  1.00  0.00    -0.204 A  
HETATM   20  C   UNL     1     -10.318   7.526  67.745  1.00  0.00    -0.278 A  
HETATM   21  C   UNL     1      -9.993   9.937  69.083  1.00  0.00    -0.205 A  
HETATM   22  C   UNL     1      -9.795   7.535  69.036  1.00  0.00    -0.170 A  
HETATM   23  C   UNL     1      -9.598   8.743  69.693  1.00  0.00    -0.171 A  
ENDBRANCH   8  17
TORSDOF 5
ENDMDL
MODEL       40
REMARK 921   NORMALIZED FREE ENERGY PREDICTED BY IDOCK:   -4.31 KCAL/MOL
REMARK 922        TOTAL FREE ENERGY PREDICTED BY IDOCK:   -6.02 KCAL/MOL
REMARK 923 INTER-LIGAND FREE ENERGY PREDICTED BY IDOCK:   -5.72 KCAL/MOL
REMARK 924 INTRA-LIGAND FREE ENERGY PREDICTED BY IDOCK:   -0.30 KCAL/MOL
REMARK 927      BINDING AFFINITY PREDICTED BY RF-SCORE:    0.00 PKD
ROOT
HETATM    1  C   UNL     1     -11.745  12.386  67.146  1.00  0.00    -0.345 C  
HETATM    2  C   UNL     1     -11.529  13.873  66.851  1.00  0.00    -0.370 C  
HETATM    3  C   UNL     1     -10.141  14.150  67.432  1.00  0.00    -0.240 C  
HETATM    4  C   UNL     1      -9.793  12.887  68.256  1.00  0.00    -0.228 C  
HETATM    5  C   UNL     1      -8.863  11.923  67.464  1.00  0.00    -0.169 C  
HETATM    6  N   UNL     1     -11.147  12.370  68.479  1.00  0.00    -0.241 NA 
HETATM    7  C   UNL     1     -11.032  11.547  66.060  1.00  0.00    -0.316 C  
HETATM    8  C   UNL     1      -9.597  11.041  66.384  1.00  0.00    -0.227 C  
ENDROOT
BRANCH   5   9
HETATM    9  C   UNL     1      -7.989  11.166  68.455  1.00  0.00    -0.137 C  
HETATM   10  O   UNL     1      -8.372  10.667  69.506  1.00  0.00    -0.115 OA 
BRANCH   9  11
HETATM   11  O   UNL     1      -6.695  11.067  68.029  1.00  0.00    -0.062 OA 
HETATM   12  C   UNL     1      -6.280  12.177  67.222  1.00  0.00    -0.152 C  
ENDBRANCH   9  11
ENDBRANCH   5   9
BRANCH   6  13
HETATM   13  C   UNL     1     -11.305  11.161  69.276  1.00  0.00    -0.281 C  
BRANCH  13  14
HETATM   14  C   UNL     1     -12.072  11.365  70.590  1.00  0.00    -0.469 C  
HETATM   15  F   UNL     1     -13.214  12.818  72.005  1.00  0.00    -0.490 F  
HETATM   16  C   UNL     1     -12.520  12.787  70.830  1.00  0.00    -0.283 C  
ENDBRANCH  13  14
ENDBRANCH   6  13
BRANCH   8  17
HETATM   17  C   UNL     1      -9.485   9.517  66.596  1.00  0.00    -0.222 A  
HETATM   18  I   UNL     1      -9.713   4.659  66.240  1.00  0.00    -0.290 I  
HETATM   19  C   UNL     1      -8.349   8.767  66.254  1.00  0.00    -0.120 A  
HETATM   20  C   UNL     1      -8.389   7.371  66.225  1.00  0.00    -0.132 A  
HETATM   21  C   UNL     1     -10.599   8.817  67.082  1.00  0.00    -0.303 A  
HETATM   22  C   UNL     1      -9.571   6.705  66.538  1.00  0.00    -0.140 A  
HETATM   23  C   UNL     1     -10.667   7.423  67.001  1.00  0.00    -0.389 A  
ENDBRANCH   8  17
TORSDOF 5
ENDMDL
MODEL       41
REMARK 921   NORMALIZED FREE ENERGY PREDICTED BY IDOCK:   -4.26 KCAL/MOL
REMARK 922        TOTAL FREE ENERGY PREDICTED BY IDOCK:   -5.96 KCAL/MOL
REMARK 923 INTER-LIGAND FREE ENERGY PREDICTED BY IDOCK:   -5.82 KCAL/MOL
REMARK 924 INTRA-LIGAND FREE ENERGY PREDICTED BY IDOCK:   -0.13 KCAL/MOL
REMARK 927      BINDING AFFINITY PREDICTED BY RF-SCORE:    0.00 PKD
ROOT
HETATM    1  C   UNL     1     -11.153  13.210  69.292  1.00  0.00    -0.145 C  
HETATM    2  C   UNL     1     -12.117  14.202  69.948  1.00  0.00    -0.405 C  
HETATM    3  C   UNL     1     -12.119  15.386  68.977  1.00  0.00    -0.254 C  
HETATM    4  C   UNL     1     -10.954  15.103  67.998  1.00  0.00    -0.295 C  
HETATM    5  C   UNL     1     -11.463  14.483  66.665  1.00  0.00    -0.373 C  
HETATM    6  N   UNL     1     -10.167  14.183  68.828  1.00  0.00    -0.233 NA 
HETATM    7  C   UNL     1     -11.909  12.419  68.199  1.00  0.00    -0.372 C  
HETATM    8  C   UNL     1     -11.800  12.946  66.739  1.00  0.00    -0.452 C  
ENDROOT
BRANCH   5   9
HETATM    9  C   UNL     1     -10.521  14.901  65.544  1.00  0.00    -0.360 C  
HETATM   10  O   UNL     1      -9.310  15.054  65.650  1.00  0.00    -0.247 OA 
BRANCH   9  11
HETATM   11  O   UNL     1     -11.174  15.066  64.356  1.00  0.00    -0.281 OA 
HETATM   12  C   UNL     1     -12.577  15.319  64.514  1.00  0.00     0.149 C  
ENDBRANCH   9  11
ENDBRANCH   5   9
BRANCH   6  13
HETATM   13  C   UNL     1      -8.911  13.673  68.295  1.00  0.00    -0.187 C  
BRANCH  13  14
HETATM   14  C   UNL     1      -7.658  14.253  68.965  1.00  0.00    -0.084 C  
HETATM   15  F   UNL     1      -6.067  15.950  69.044  1.00  0.00    -0.111 F  
HETATM   16  C   UNL     1      -7.154  15.529  68.335  1.00  0.00    -0.111 C  
ENDBRANCH  13  14
ENDBRANCH   6  13
BRANCH   8  17
HETATM   17  C   UNL     1     -10.981  12.048  65.790  1.00  0.00    -0.351 A  
HETATM   18  I   UNL     1      -8.048  10.244  62.338  1.00  0.00    -0.260 I  
HETATM   19  C   UNL     1      -9.727  11.509  66.120  1.00  0.00    -0.249 A  
HETATM   20  C   UNL     1      -8.916  10.922  65.147  1.00  0.00    -0.195 A  
HETATM   21  C   UNL     1     -11.464  11.813  64.495  1.00  0.00    -0.322 A  
HETATM   22  C   UNL     1      -9.349  10.867  63.825  1.00  0.00    -0.248 A  
HETATM   23  C   UNL     1     -10.636  11.279  63.502  1.00  0.00    -0.436 A  
ENDBRANCH   8  17
TORSDOF 5
ENDMDL
MODEL       42
REMARK 921   NORMALIZED FREE ENERGY PREDICTED BY IDOCK:   -4.23 KCAL/MOL
REMARK 922        TOTAL FREE ENERGY PREDICTED BY IDOCK:   -5.92 KCAL/MOL
REMARK 923 INTER-LIGAND FREE ENERGY PREDICTED BY IDOCK:   -6.16 KCAL/MOL
REMARK 924 INTRA-LIGAND FREE ENERGY PREDICTED BY IDOCK:    0.24 KCAL/MOL
REMARK 927      BINDING AFFINITY PREDICTED BY RF-SCORE:    0.00 PKD
ROOT
HETATM    1  C   UNL     1      -9.385  16.024  68.804  1.00  0.00    -0.222 C  
HETATM    2  C   UNL     1      -9.891  17.440  68.519  1.00  0.00    -0.320 C  
HETATM    3  C   UNL     1     -10.777  17.257  67.285  1.00  0.00    -0.215 C  
HETATM    4  C   UNL     1     -10.487  15.817  66.795  1.00  0.00    -0.305 C  
HETATM    5  C   UNL     1     -11.580  14.818  67.272  1.00  0.00    -0.385 C  
HETATM    6  N   UNL     1      -9.174  15.616  67.417  1.00  0.00    -0.196 NA 
HETATM    7  C   UNL     1     -10.466  15.250  69.594  1.00  0.00    -0.279 C  
HETATM    8  C   UNL     1     -11.440  14.356  68.772  1.00  0.00    -0.319 C  
ENDROOT
BRANCH   5   9
HETATM    9  C   UNL     1     -11.699  13.701  66.244  1.00  0.00    -0.367 C  
HETATM   10  O   UNL     1     -12.572  12.842  66.223  1.00  0.00    -0.375 OA 
BRANCH   9  11
HETATM   11  O   UNL     1     -10.722  13.770  65.293  1.00  0.00    -0.307 OA 
HETATM   12  C   UNL     1     -10.432  12.502  64.689  1.00  0.00    -0.319 C  
ENDBRANCH   9  11
ENDBRANCH   5   9
BRANCH   6  13
HETATM   13  C   UNL     1      -8.481  14.358  67.180  1.00  0.00    -0.208 C  
BRANCH  13  14
HETATM   14  C   UNL     1      -7.004  14.360  67.598  1.00  0.00    -0.203 C  
HETATM   15  F   UNL     1      -5.360  13.577  69.048  1.00  0.00    -0.069 F  
HETATM   16  C   UNL     1      -6.702  13.513  68.810  1.00  0.00    -0.105 C  
ENDBRANCH  13  14
ENDBRANCH   6  13
BRANCH   8  17
HETATM   17  C   UNL     1     -11.249  12.840  68.977  1.00  0.00    -0.317 A  
HETATM   18  I   UNL     1      -9.922   8.398  70.488  1.00  0.00    -0.246 I  
HETATM   19  C   UNL     1     -12.131  12.039  69.719  1.00  0.00    -0.317 A  
HETATM   20  C   UNL     1     -11.785  10.737  70.089  1.00  0.00    -0.425 A  
HETATM   21  C   UNL     1     -10.095  12.227  68.467  1.00  0.00    -0.192 A  
HETATM   22  C   UNL     1     -10.547  10.218  69.721  1.00  0.00    -0.271 A  
HETATM   23  C   UNL     1      -9.714  10.947  68.880  1.00  0.00    -0.198 A  
ENDBRANCH   8  17
TORSDOF 5
ENDMDL
MODEL       43
REMARK 921   NORMALIZED FREE ENERGY PREDICTED BY IDOCK:   -4.22 KCAL/MOL
REMARK 922        TOTAL FREE ENERGY PREDICTED BY IDOCK:   -5.91 KCAL/MOL
REMARK 923 INTER-LIGAND FREE ENERGY PREDICTED BY IDOCK:   -5.68 KCAL/MOL
REMARK 924 INTRA-LIGAND FREE ENERGY PREDICTED BY IDOCK:   -0.24 KCAL/MOL
REMARK 927      BINDING AFFINITY PREDICTED BY RF-SCORE:    0.00 PKD
ROOT
HETATM    1  C   UNL     1     -12.078   7.953  72.323  1.00  0.00    -0.315 C  
HETATM    2  C   UNL     1     -12.809   9.290  72.181  1.00  0.00    -0.485 C  
HETATM    3  C   UNL     1     -11.931  10.070  71.200  1.00  0.00    -0.484 C  
HETATM    4  C   UNL     1     -10.632   9.237  71.077  1.00  0.00    -0.316 C  
HETATM    5  C   UNL     1     -10.636   8.353  69.797  1.00  0.00    -0.221 C  
HETATM    6  N   UNL     1     -10.717   8.481  72.332  1.00  0.00    -0.342 NA 
HETATM    7  C   UNL     1     -12.457   7.042  71.132  1.00  0.00    -0.407 C  
HETATM    8  C   UNL     1     -11.494   7.035  69.910  1.00  0.00    -0.223 C  
ENDROOT
BRANCH   5   9
HETATM    9  C   UNL     1      -9.199   8.169  69.328  1.00  0.00    -0.151 C  
HETATM   10  O   UNL     1      -8.270   7.770  70.018  1.00  0.00    -0.117 OA 
BRANCH   9  11
HETATM   11  O   UNL     1      -9.046   8.475  68.006  1.00  0.00    -0.140 OA 
HETATM   12  C   UNL     1     -10.194   9.121  67.439  1.00  0.00    -0.247 C  
ENDBRANCH   9  11
ENDBRANCH   5   9
BRANCH   6  13
HETATM   13  C   UNL     1      -9.636   7.562  72.661  1.00  0.00    -0.170 C  
BRANCH  13  14
HETATM   14  C   UNL     1      -8.719   8.044  73.793  1.00  0.00    -0.329 C  
HETATM   15  F   UNL     1      -6.569   8.597  74.494  1.00  0.00    -0.153 F  
HETATM   16  C   UNL     1      -7.260   8.126  73.415  1.00  0.00    -0.133 C  
ENDBRANCH  13  14
ENDBRANCH   6  13
BRANCH   8  17
HETATM   17  C   UNL     1     -10.708   5.723  69.717  1.00  0.00    -0.418 A  
HETATM   18  I   UNL     1      -7.306   2.305  68.989  1.00  0.00    -0.043 I  
HETATM   19  C   UNL     1     -10.242   4.933  70.780  1.00  0.00    -0.276 A  
HETATM   20  C   UNL     1      -9.325   3.902  70.565  1.00  0.00    -0.224 A  
HETATM   21  C   UNL     1     -10.363   5.324  68.418  1.00  0.00    -0.178 A  
HETATM   22  C   UNL     1      -8.858   3.648  69.278  1.00  0.00    -0.101 A  
HETATM   23  C   UNL     1      -9.402   4.332  68.198  1.00  0.00    -0.204 A  
ENDBRANCH   8  17
TORSDOF 5
ENDMDL
MODEL       44
REMARK 921   NORMALIZED FREE ENERGY PREDICTED BY IDOCK:   -4.19 KCAL/MOL
REMARK 922        TOTAL FREE ENERGY PREDICTED BY IDOCK:   -5.87 KCAL/MOL
REMARK 923 INTER-LIGAND FREE ENERGY PREDICTED BY IDOCK:   -6.05 KCAL/MOL
REMARK 924 INTRA-LIGAND FREE ENERGY PREDICTED BY IDOCK:    0.18 KCAL/MOL
REMARK 927      BINDING AFFINITY PREDICTED BY RF-SCORE:    0.00 PKD
ROOT
HETATM    1  C   UNL     1     -11.486   7.948  70.781  1.00  0.00    -0.263 C  
HETATM    2  C   UNL     1     -10.882   7.593  72.142  1.00  0.00    -0.293 C  
HETATM    3  C   UNL     1      -9.425   8.044  72.010  1.00  0.00    -0.257 C  
HETATM    4  C   UNL     1      -9.238   8.359  70.506  1.00  0.00    -0.151 C  
HETATM    5  C   UNL     1      -9.351   9.884  70.220  1.00  0.00    -0.142 C  
HETATM    6  N   UNL     1     -10.341   7.560  69.959  1.00  0.00    -0.216 NA 
HETATM    7  C   UNL     1     -11.865   9.447  70.772  1.00  0.00    -0.323 C  
HETATM    8  C   UNL     1     -10.826  10.437  70.173  1.00  0.00    -0.333 C  
ENDROOT
BRANCH   5   9
HETATM    9  C   UNL     1      -8.479  10.219  69.018  1.00  0.00    -0.150 C  
HETATM   10  O   UNL     1      -8.096   9.422  68.171  1.00  0.00    -0.108 OA 
BRANCH   9  11
HETATM   11  O   UNL     1      -8.178  11.550  68.955  1.00  0.00    -0.116 OA 
HETATM   12  C   UNL     1      -7.814  11.984  67.637  1.00  0.00    -0.149 C  
ENDBRANCH   9  11
ENDBRANCH   5   9
BRANCH   6  13
HETATM   13  C   UNL     1     -10.525   7.530  68.515  1.00  0.00    -0.180 C  
BRANCH  13  14
HETATM   14  C   UNL     1     -10.981   6.172  67.964  1.00  0.00    -0.399 C  
HETATM   15  F   UNL     1     -10.883   4.604  66.246  1.00  0.00    -0.314 F  
HETATM   16  C   UNL     1     -10.430   5.843  66.597  1.00  0.00    -0.249 C  
ENDBRANCH  13  14
ENDBRANCH   6  13
BRANCH   8  17
HETATM   17  C   UNL     1     -11.244  11.077  68.834  1.00  0.00    -0.326 A  
HETATM   18  I   UNL     1     -11.498  13.593  64.665  1.00  0.00    -0.428 I  
HETATM   19  C   UNL     1     -11.125  10.429  67.594  1.00  0.00    -0.361 A  
HETATM   20  C   UNL     1     -11.273  11.132  66.396  1.00  0.00    -0.118 A  
HETATM   21  C   UNL     1     -11.695  12.404  68.827  1.00  0.00    -0.379 A  
HETATM   22  C   UNL     1     -11.541  12.498  66.423  1.00  0.00    -0.391 A  
HETATM   23  C   UNL     1     -11.788  13.130  67.636  1.00  0.00    -0.405 A  
ENDBRANCH   8  17
TORSDOF 5
ENDMDL
MODEL       45
REMARK 921   NORMALIZED FREE ENERGY PREDICTED BY IDOCK:   -4.16 KCAL/MOL
REMARK 922        TOTAL FREE ENERGY PREDICTED BY IDOCK:   -5.83 KCAL/MOL
REMARK 923 INTER-LIGAND FREE ENERGY PREDICTED BY IDOCK:   -5.70 KCAL/MOL
REMARK 924 INTRA-LIGAND FREE ENERGY PREDICTED BY IDOCK:   -0.13 KCAL/MOL
REMARK 927      BINDING AFFINITY PREDICTED BY RF-SCORE:    0.00 PKD
ROOT
HETATM    1  C   UNL     1     -11.451  13.818  67.096  1.00  0.00    -0.340 C  
HETATM    2  C   UNL     1     -12.601  13.998  66.102  1.00  0.00    -0.407 C  
HETATM    3  C   UNL     1     -12.414  12.832  65.130  1.00  0.00    -0.565 C  
HETATM    4  C   UNL     1     -11.022  12.246  65.472  1.00  0.00    -0.298 C  
HETATM    5  C   UNL     1     -11.137  10.988  66.381  1.00  0.00    -0.137 C  
HETATM    6  N   UNL     1     -10.430  13.415  66.132  1.00  0.00    -0.290 NA 
HETATM    7  C   UNL     1     -11.857  12.765  68.153  1.00  0.00    -0.372 C  
HETATM    8  C   UNL     1     -11.402  11.298  67.903  1.00  0.00    -0.367 C  
ENDROOT
BRANCH   5   9
HETATM    9  C   UNL     1      -9.959  10.068  66.088  1.00  0.00    -0.256 C  
HETATM   10  O   UNL     1      -8.881  10.416  65.624  1.00  0.00    -0.159 OA 
BRANCH   9  11
HETATM   11  O   UNL     1     -10.219   8.773  66.434  1.00  0.00    -0.289 OA 
HETATM   12  C   UNL     1      -9.032   7.996  66.644  1.00  0.00    -0.150 C  
ENDBRANCH   9  11
ENDBRANCH   5   9
BRANCH   6  13
HETATM   13  C   UNL     1      -9.055  13.321  66.602  1.00  0.00    -0.171 C  
BRANCH  13  14
HETATM   14  C   UNL     1      -8.461  14.651  67.089  1.00  0.00    -0.244 C  
HETATM   15  F   UNL     1      -7.730  15.952  68.875  1.00  0.00    -0.145 F  
HETATM   16  C   UNL     1      -8.295  14.744  68.586  1.00  0.00    -0.165 C  
ENDBRANCH  13  14
ENDBRANCH   6  13
BRANCH   8  17
HETATM   17  C   UNL     1     -10.320  10.785  68.875  1.00  0.00    -0.220 A  
HETATM   18  I   UNL     1      -6.883   8.240  71.216  1.00  0.00    -0.079 I  
HETATM   19  C   UNL     1      -8.971  11.166  68.806  1.00  0.00    -0.136 A  
HETATM   20  C   UNL     1      -7.992  10.487  69.535  1.00  0.00    -0.119 A  
HETATM   21  C   UNL     1     -10.672   9.826  69.835  1.00  0.00    -0.303 A  
HETATM   22  C   UNL     1      -8.352   9.413  70.345  1.00  0.00    -0.205 A  
HETATM   23  C   UNL     1      -9.694   9.103  70.525  1.00  0.00    -0.287 A  
ENDBRANCH   8  17
TORSDOF 5
ENDMDL
MODEL       46
REMARK 921   NORMALIZED FREE ENERGY PREDICTED BY IDOCK:   -4.16 KCAL/MOL
REMARK 922        TOTAL FREE ENERGY PREDICTED BY IDOCK:   -5.83 KCAL/MOL
REMARK 923 INTER-LIGAND FREE ENERGY PREDICTED BY IDOCK:   -6.04 KCAL/MOL
REMARK 924 INTRA-LIGAND FREE ENERGY PREDICTED BY IDOCK:    0.21 KCAL/MOL
REMARK 927      BINDING AFFINITY PREDICTED BY RF-SCORE:    0.00 PKD
ROOT
HETATM    1  C   UNL     1     -10.618  16.936  68.419  1.00  0.00    -0.365 C  
HETATM    2  C   UNL     1     -10.505  17.977  67.302  1.00  0.00    -0.390 C  
HETATM    3  C   UNL     1      -9.843  17.199  66.162  1.00  0.00    -0.280 C  
HETATM    4  C   UNL     1      -9.377  15.869  66.802  1.00  0.00    -0.240 C  
HETATM    5  C   UNL     1     -10.379  14.713  66.517  1.00  0.00    -0.283 C  
HETATM    6  N   UNL     1      -9.326  16.289  68.207  1.00  0.00    -0.200 NA 
HETATM    7  C   UNL     1     -11.874  16.067  68.174  1.00  0.00     0.067 C  
HETATM    8  C   UNL     1     -11.668  14.720  67.423  1.00  0.00    -0.371 C  
ENDROOT
BRANCH   5   9
HETATM    9  C   UNL     1      -9.607  13.401  66.474  1.00  0.00    -0.272 C  
HETATM   10  O   UNL     1      -8.802  13.019  67.315  1.00  0.00    -0.190 OA 
BRANCH   9  11
HETATM   11  O   UNL     1      -9.932  12.647  65.382  1.00  0.00    -0.270 OA 
HETATM   12  C   UNL     1      -9.265  11.378  65.353  1.00  0.00    -0.151 C  
ENDBRANCH   9  11
ENDBRANCH   5   9
BRANCH   6  13
HETATM   13  C   UNL     1      -8.882  15.324  69.202  1.00  0.00    -0.238 C  
BRANCH  13  14
HETATM   14  C   UNL     1      -7.372  15.352  69.481  1.00  0.00    -0.209 C  
HETATM   15  F   UNL     1      -5.421  16.608  69.670  1.00  0.00    -0.130 F  
HETATM   16  C   UNL     1      -6.747  16.721  69.365  1.00  0.00    -0.226 C  
ENDBRANCH  13  14
ENDBRANCH   6  13
BRANCH   8  17
HETATM   17  C   UNL     1     -11.865  13.462  68.293  1.00  0.00    -0.393 A  
HETATM   18  I   UNL     1     -11.334   9.345  70.851  1.00  0.00    -0.467 I  
HETATM   19  C   UNL     1     -11.872  13.481  69.696  1.00  0.00    -0.398 A  
HETATM   20  C   UNL     1     -11.797  12.298  70.434  1.00  0.00    -0.259 A  
HETATM   21  C   UNL     1     -11.966  12.213  67.664  1.00  0.00    -0.190 A  
HETATM   22  C   UNL     1     -11.713  11.074  69.774  1.00  0.00    -0.335 A  
HETATM   23  C   UNL     1     -11.833  11.026  68.391  1.00  0.00    -0.254 A  
ENDBRANCH   8  17
TORSDOF 5
ENDMDL
MODEL       47
REMARK 921   NORMALIZED FREE ENERGY PREDICTED BY IDOCK:   -4.14 KCAL/MOL
REMARK 922        TOTAL FREE ENERGY PREDICTED BY IDOCK:   -5.81 KCAL/MOL
REMARK 923 INTER-LIGAND FREE ENERGY PREDICTED BY IDOCK:   -5.40 KCAL/MOL
REMARK 924 INTRA-LIGAND FREE ENERGY PREDICTED BY IDOCK:   -0.41 KCAL/MOL
REMARK 927      BINDING AFFINITY PREDICTED BY RF-SCORE:    0.00 PKD
ROOT
HETATM    1  C   UNL     1      -9.636   8.058  66.032  1.00  0.00    -0.002 C  
HETATM    2  C   UNL     1      -8.793   6.782  65.960  1.00  0.00    -0.150 C  
HETATM    3  C   UNL     1      -7.713   7.012  67.020  1.00  0.00    -0.107 C  
HETATM    4  C   UNL     1      -7.851   8.503  67.414  1.00  0.00    -0.098 C  
HETATM    5  C   UNL     1      -8.661   8.676  68.731  1.00  0.00    -0.130 C  
HETATM    6  N   UNL     1      -8.536   9.001  66.216  1.00  0.00    -0.122 NA 
HETATM    7  C   UNL     1     -10.641   7.934  67.201  1.00  0.00    -0.383 C  
HETATM    8  C   UNL     1     -10.223   8.556  68.564  1.00  0.00    -0.225 C  
ENDROOT
BRANCH   5   9
HETATM    9  C   UNL     1      -8.165   9.926  69.446  1.00  0.00    -0.146 C  
HETATM   10  O   UNL     1      -7.941  11.008  68.917  1.00  0.00    -0.136 OA 
BRANCH   9  11
HETATM   11  O   UNL     1      -8.018   9.728  70.789  1.00  0.00    -0.288 OA 
HETATM   12  C   UNL     1      -7.219   8.580  71.106  1.00  0.00    -0.076 C  
ENDBRANCH   9  11
ENDBRANCH   5   9
BRANCH   6  13
HETATM   13  C   UNL     1      -8.842  10.422  66.135  1.00  0.00    -0.158 C  
BRANCH  13  14
HETATM   14  C   UNL     1      -9.525  10.848  64.828  1.00  0.00    -0.279 C  
HETATM   15  F   UNL     1     -10.809  12.423  63.692  1.00  0.00    -0.368 F  
HETATM   16  C   UNL     1     -10.286  12.149  64.922  1.00  0.00    -0.289 C  
ENDBRANCH  13  14
ENDBRANCH   6  13
BRANCH   8  17
HETATM   17  C   UNL     1     -11.025   9.808  68.973  1.00  0.00    -0.193 A  
HETATM   18  I   UNL     1     -12.523  14.109  70.715  1.00  0.00    -0.430 I  
HETATM   19  C   UNL     1     -11.274  10.887  68.110  1.00  0.00    -0.363 A  
HETATM   20  C   UNL     1     -11.776  12.096  68.594  1.00  0.00    -0.382 A  
HETATM   21  C   UNL     1     -11.468   9.926  70.298  1.00  0.00    -0.349 A  
HETATM   22  C   UNL     1     -12.035  12.244  69.954  1.00  0.00    -0.306 A  
HETATM   23  C   UNL     1     -11.916  11.151  70.803  1.00  0.00    -0.415 A  
ENDBRANCH   8  17
TORSDOF 5
ENDMDL
MODEL       48
REMARK 921   NORMALIZED FREE ENERGY PREDICTED BY IDOCK:   -4.14 KCAL/MOL
REMARK 922        TOTAL FREE ENERGY PREDICTED BY IDOCK:   -5.80 KCAL/MOL
REMARK 923 INTER-LIGAND FREE ENERGY PREDICTED BY IDOCK:   -5.42 KCAL/MOL
REMARK 924 INTRA-LIGAND FREE ENERGY PREDICTED BY IDOCK:   -0.38 KCAL/MOL
REMARK 927      BINDING AFFINITY PREDICTED BY RF-SCORE:    0.00 PKD
ROOT
HETATM    1  C   UNL     1     -11.041  16.706  67.856  1.00  0.00    -0.212 C  
HETATM    2  C   UNL     1     -10.657  18.106  67.371  1.00  0.00    -0.406 C  
HETATM    3  C   UNL     1      -9.188  18.231  67.781  1.00  0.00    -0.276 C  
HETATM    4  C   UNL     1      -8.928  17.020  68.710  1.00  0.00    -0.249 C  
HETATM    5  C   UNL     1      -8.234  15.853  67.950  1.00  0.00    -0.151 C  
HETATM    6  N   UNL     1     -10.308  16.736  69.119  1.00  0.00    -0.313 NA 
HETATM    7  C   UNL     1     -10.575  15.664  66.812  1.00  0.00    -0.307 C  
HETATM    8  C   UNL     1      -9.197  14.985  67.055  1.00  0.00    -0.246 C  
ENDROOT
BRANCH   5   9
HETATM    9  C   UNL     1      -7.368  15.079  68.935  1.00  0.00    -0.139 C  
HETATM   10  O   UNL     1      -7.708  14.724  70.057  1.00  0.00     0.029 OA 
BRANCH   9  11
HETATM   11  O   UNL     1      -6.140  14.780  68.417  1.00  0.00    -0.086 OA 
HETATM   12  C   UNL     1      -5.552  15.870  67.694  1.00  0.00    -0.132 C  
ENDBRANCH   9  11
ENDBRANCH   5   9
BRANCH   6  13
HETATM   13  C   UNL     1     -10.541  15.651  70.062  1.00  0.00    -0.332 C  
BRANCH  13  14
HETATM   14  C   UNL     1     -12.010  15.472  70.470  1.00  0.00    -0.406 C  
HETATM   15  F   UNL     1     -13.575  14.342  71.771  1.00  0.00    -0.373 F  
HETATM   16  C   UNL     1     -12.244  14.368  71.473  1.00  0.00    -0.334 C  
ENDBRANCH  13  14
ENDBRANCH   6  13
BRANCH   8  17
HETATM   17  C   UNL     1      -9.273  13.491  67.431  1.00  0.00    -0.223 A  
HETATM   18  I   UNL     1     -10.121   8.693  67.612  1.00  0.00    -0.318 I  
HETATM   19  C   UNL     1      -8.250  12.569  67.159  1.00  0.00    -0.168 A  
HETATM   20  C   UNL     1      -8.466  11.195  67.284  1.00  0.00    -0.137 A  
HETATM   21  C   UNL     1     -10.453  12.996  68.005  1.00  0.00    -0.234 A  
HETATM   22  C   UNL     1      -9.714  10.723  67.682  1.00  0.00    -0.166 A  
HETATM   23  C   UNL     1     -10.698  11.622  68.078  1.00  0.00    -0.246 A  
ENDBRANCH   8  17
TORSDOF 5
ENDMDL
MODEL       49
REMARK 921   NORMALIZED FREE ENERGY PREDICTED BY IDOCK:   -4.13 KCAL/MOL
REMARK 922        TOTAL FREE ENERGY PREDICTED BY IDOCK:   -5.80 KCAL/MOL
REMARK 923 INTER-LIGAND FREE ENERGY PREDICTED BY IDOCK:   -5.52 KCAL/MOL
REMARK 924 INTRA-LIGAND FREE ENERGY PREDICTED BY IDOCK:   -0.28 KCAL/MOL
REMARK 927      BINDING AFFINITY PREDICTED BY RF-SCORE:    0.00 PKD
ROOT
HETATM    1  C   UNL     1      -8.682   9.443  65.840  1.00  0.00    -0.154 C  
HETATM    2  C   UNL     1      -9.127   7.979  65.792  1.00  0.00    -0.109 C  
HETATM    3  C   UNL     1     -10.030   7.844  67.020  1.00  0.00    -0.322 C  
HETATM    4  C   UNL     1      -9.808   9.148  67.824  1.00  0.00    -0.174 C  
HETATM    5  C   UNL     1     -10.941  10.183  67.563  1.00  0.00    -0.319 C  
HETATM    6  N   UNL     1      -8.500   9.538  67.286  1.00  0.00    -0.127 NA 
HETATM    7  C   UNL     1      -9.791  10.328  65.224  1.00  0.00    -0.372 C  
HETATM    8  C   UNL     1     -10.810  10.974  66.207  1.00  0.00    -0.234 C  
ENDROOT
BRANCH   5   9
HETATM    9  C   UNL     1     -11.118  11.035  68.813  1.00  0.00    -0.239 C  
HETATM   10  O   UNL     1     -10.218  11.590  69.431  1.00  0.00    -0.014 OA 
BRANCH   9  11
HETATM   11  O   UNL     1     -12.430  11.152  69.174  1.00  0.00    -0.418 OA 
HETATM   12  C   UNL     1     -12.632  11.089  70.593  1.00  0.00    -0.338 C  
ENDBRANCH   9  11
ENDBRANCH   5   9
BRANCH   6  13
HETATM   13  C   UNL     1      -7.866  10.740  67.811  1.00  0.00    -0.109 C  
BRANCH  13  14
HETATM   14  C   UNL     1      -6.905  10.488  68.980  1.00  0.00    -0.068 C  
HETATM   15  F   UNL     1      -5.637  11.373  70.721  1.00  0.00    -0.110 F  
HETATM   16  C   UNL     1      -6.452  11.741  69.690  1.00  0.00    -0.113 C  
ENDBRANCH  13  14
ENDBRANCH   6  13
BRANCH   8  17
HETATM   17  C   UNL     1     -10.685  12.504  66.349  1.00  0.00    -0.275 A  
HETATM   18  I   UNL     1     -10.411  17.102  67.949  1.00  0.00    -0.365 I  
HETATM   19  C   UNL     1      -9.457  13.184  66.378  1.00  0.00    -0.226 A  
HETATM   20  C   UNL     1      -9.385  14.525  66.762  1.00  0.00    -0.278 A  
HETATM   21  C   UNL     1     -11.848  13.264  66.541  1.00  0.00    -0.450 A  
HETATM   22  C   UNL     1     -10.543  15.205  67.127  1.00  0.00    -0.295 A  
HETATM   23  C   UNL     1     -11.780  14.589  66.983  1.00  0.00    -0.412 A  
ENDBRANCH   8  17
TORSDOF 5
ENDMDL
MODEL       50
REMARK 921   NORMALIZED FREE ENERGY PREDICTED BY IDOCK:   -4.10 KCAL/MOL
REMARK 922        TOTAL FREE ENERGY PREDICTED BY IDOCK:   -5.75 KCAL/MOL
REMARK 923 INTER-LIGAND FREE ENERGY PREDICTED BY IDOCK:   -5.88 KCAL/MOL
REMARK 924 INTRA-LIGAND FREE ENERGY PREDICTED BY IDOCK:    0.13 KCAL/MOL
REMARK 927      BINDING AFFINITY PREDICTED BY RF-SCORE:    0.00 PKD
ROOT
HETATM    1  C   UNL     1     -11.636  13.359  67.066  1.00  0.00    -0.356 C  
HETATM    2  C   UNL     1     -12.372  13.096  65.750  1.00  0.00    -0.496 C  
HETATM    3  C   UNL     1     -11.979  14.292  64.880  1.00  0.00    -0.430 C  
HETATM    4  C   UNL     1     -11.285  15.280  65.850  1.00  0.00    -0.237 C  
HETATM    5  C   UNL     1      -9.735  15.177  65.762  1.00  0.00    -0.379 C  
HETATM    6  N   UNL     1     -11.850  14.803  67.117  1.00  0.00    -0.347 NA 
HETATM    7  C   UNL     1     -10.171  12.883  66.930  1.00  0.00    -0.243 C  
HETATM    8  C   UNL     1      -9.113  13.952  66.534  1.00  0.00    -0.165 C  
ENDROOT
BRANCH   5   9
HETATM    9  C   UNL     1      -9.138  16.539  66.090  1.00  0.00    -0.306 C  
HETATM   10  O   UNL     1      -7.952  16.834  66.018  1.00  0.00    -0.372 OA 
BRANCH   9  11
HETATM   11  O   UNL     1     -10.093  17.446  66.455  1.00  0.00    -0.302 OA 
HETATM   12  C   UNL     1      -9.570  18.765  66.658  1.00  0.00    -0.336 C  
ENDBRANCH   9  11
ENDBRANCH   5   9
BRANCH   6  13
HETATM   13  C   UNL     1     -11.485  15.498  68.343  1.00  0.00    -0.363 C  
BRANCH  13  14
HETATM   14  C   UNL     1     -12.065  14.876  69.620  1.00  0.00    -0.334 C  
HETATM   15  F   UNL     1     -12.029  14.738  71.944  1.00  0.00    -0.364 F  
HETATM   16  C   UNL     1     -11.397  15.337  70.893  1.00  0.00    -0.342 C  
ENDBRANCH  13  14
ENDBRANCH   6  13
BRANCH   8  17
HETATM   17  C   UNL     1      -8.119  14.320  67.654  1.00  0.00    -0.188 A  
HETATM   18  I   UNL     1      -5.245  14.403  71.593  1.00  0.00    -0.154 I  
HETATM   19  C   UNL     1      -6.727  14.186  67.532  1.00  0.00    -0.127 A  
HETATM   20  C   UNL     1      -5.892  14.286  68.648  1.00  0.00    -0.086 A  
HETATM   21  C   UNL     1      -8.621  14.736  68.896  1.00  0.00    -0.160 A  
HETATM   22  C   UNL     1      -6.442  14.519  69.906  1.00  0.00    -0.161 A  
HETATM   23  C   UNL     1      -7.802  14.780  70.028  1.00  0.00     0.369 A  
ENDBRANCH   8  17
TORSDOF 5
ENDMDL
MODEL       51
REMARK 921   NORMALIZED FREE ENERGY PREDICTED BY IDOCK:   -4.09 KCAL/MOL
REMARK 922        TOTAL FREE ENERGY PREDICTED BY IDOCK:   -5.74 KCAL/MOL
REMARK 923 INTER-LIGAND FREE ENERGY PREDICTED BY IDOCK:   -5.70 KCAL/MOL
REMARK 924 INTRA-LIGAND FREE ENERGY PREDICTED BY IDOCK:   -0.04 KCAL/MOL
REMARK 927      BINDING AFFINITY PREDICTED BY RF-SCORE:    0.00 PKD
ROOT
HETATM    1  C   UNL     1      -7.377  17.700  68.271  1.00  0.00    -0.234 C  
HETATM    2  C   UNL     1      -6.919  18.551  67.083  1.00  0.00    -0.213 C  
HETATM    3  C   UNL     1      -7.290  17.692  65.872  1.00  0.00    -0.213 C  
HETATM    4  C   UNL     1      -7.668  16.311  66.461  1.00  0.00    -0.225 C  
HETATM    5  C   UNL     1      -9.210  16.144  66.587  1.00  0.00    -0.273 C  
HETATM    6  N   UNL     1      -6.964  16.402  67.745  1.00  0.00    -0.130 NA 
HETATM    7  C   UNL     1      -8.895  17.908  68.486  1.00  0.00    -0.293 C  
HETATM    8  C   UNL     1      -9.851  16.871  67.829  1.00  0.00    -0.252 C  
ENDROOT
BRANCH   5   9
HETATM    9  C   UNL     1      -9.552  14.668  66.434  1.00  0.00    -0.301 C  
HETATM   10  O   UNL     1      -8.921  13.736  66.916  1.00  0.00    -0.237 OA 
BRANCH   9  11
HETATM   11  O   UNL     1     -10.692  14.476  65.706  1.00  0.00    -0.293 OA 
HETATM   12  C   UNL     1     -10.944  15.529  64.765  1.00  0.00    -0.399 C  
ENDBRANCH   9  11
ENDBRANCH   5   9
BRANCH   6  13
HETATM   13  C   UNL     1      -7.018  15.259  68.646  1.00  0.00    -0.110 C  
BRANCH  13  14
HETATM   14  C   UNL     1      -6.353  15.496  70.009  1.00  0.00    -0.124 C  
HETATM   15  F   UNL     1      -5.361  14.586  71.908  1.00  0.00    -0.136 F  
HETATM   16  C   UNL     1      -5.968  14.232  70.738  1.00  0.00    -0.202 C  
ENDBRANCH  13  14
ENDBRANCH   6  13
BRANCH   8  17
HETATM   17  C   UNL     1     -10.580  15.947  68.826  1.00  0.00    -0.245 A  
HETATM   18  I   UNL     1     -13.421  14.027  72.293  1.00  0.00    -0.696 I  
HETATM   19  C   UNL     1     -11.703  15.174  68.490  1.00  0.00    -0.347 A  
HETATM   20  C   UNL     1     -12.476  14.559  69.477  1.00  0.00    -0.162 A  
HETATM   21  C   UNL     1     -10.159  15.926  70.163  1.00  0.00    -0.019 A  
HETATM   22  C   UNL     1     -12.135  14.710  70.819  1.00  0.00    -0.320 A  
HETATM   23  C   UNL     1     -10.958  15.362  71.163  1.00  0.00    -0.277 A  
ENDBRANCH   8  17
TORSDOF 5
ENDMDL
MODEL       52
REMARK 921   NORMALIZED FREE ENERGY PREDICTED BY IDOCK:   -4.09 KCAL/MOL
REMARK 922        TOTAL FREE ENERGY PREDICTED BY IDOCK:   -5.74 KCAL/MOL
REMARK 923 INTER-LIGAND FREE ENERGY PREDICTED BY IDOCK:   -5.63 KCAL/MOL
REMARK 924 INTRA-LIGAND FREE ENERGY PREDICTED BY IDOCK:   -0.11 KCAL/MOL
REMARK 927      BINDING AFFINITY PREDICTED BY RF-SCORE:    0.00 PKD
ROOT
HETATM    1  C   UNL     1     -11.911   7.871  71.000  1.00  0.00    -0.268 C  
HETATM    2  C   UNL     1     -11.946   7.772  72.527  1.00  0.00    -0.304 C  
HETATM    3  C   UNL     1     -10.475   7.915  72.924  1.00  0.00    -0.422 C  
HETATM    4  C   UNL     1      -9.689   7.802  71.595  1.00  0.00    -0.163 C  
HETATM    5  C   UNL     1      -9.294   9.201  71.041  1.00  0.00    -0.333 C  
HETATM    6  N   UNL     1     -10.691   7.095  70.788  1.00  0.00    -0.227 NA 
HETATM    7  C   UNL     1     -11.861   9.361  70.591  1.00  0.00    -0.268 C  
HETATM    8  C   UNL     1     -10.458   9.972  70.310  1.00  0.00    -0.331 C  
ENDROOT
BRANCH   5   9
HETATM    9  C   UNL     1      -7.995   9.064  70.257  1.00  0.00    -0.121 C  
HETATM   10  O   UNL     1      -7.659   8.087  69.600  1.00  0.00    -0.092 OA 
BRANCH   9  11
HETATM   11  O   UNL     1      -7.226  10.190  70.335  1.00  0.00    -0.218 OA 
HETATM   12  C   UNL     1      -5.820   9.918  70.263  1.00  0.00    -0.059 C  
ENDBRANCH   9  11
ENDBRANCH   5   9
BRANCH   6  13
HETATM   13  C   UNL     1     -10.348   6.733  69.420  1.00  0.00    -0.199 C  
BRANCH  13  14
HETATM   14  C   UNL     1     -10.100   5.234  69.206  1.00  0.00    -0.300 C  
HETATM   15  F   UNL     1      -9.739   3.137  70.150  1.00  0.00    -0.240 F  
HETATM   16  C   UNL     1      -9.914   4.449  70.482  1.00  0.00    -0.185 C  
ENDBRANCH  13  14
ENDBRANCH   6  13
BRANCH   8  17
HETATM   17  C   UNL     1     -10.190  10.314  68.830  1.00  0.00    -0.220 A  
HETATM   18  I   UNL     1     -10.515  11.521  64.117  1.00  0.00    -0.514 I  
HETATM   19  C   UNL     1      -9.803  11.589  68.386  1.00  0.00    -0.204 A  
HETATM   20  C   UNL     1      -9.822  11.914  67.028  1.00  0.00    -0.206 A  
HETATM   21  C   UNL     1     -10.416   9.332  67.856  1.00  0.00    -0.290 A  
HETATM   22  C   UNL     1     -10.230  10.967  66.093  1.00  0.00    -0.249 A  
HETATM   23  C   UNL     1     -10.494   9.664  66.500  1.00  0.00    -0.213 A  
ENDBRANCH   8  17
TORSDOF 5
ENDMDL
MODEL       53
REMARK 921   NORMALIZED FREE ENERGY PREDICTED BY IDOCK:   -4.09 KCAL/MOL
REMARK 922        TOTAL FREE ENERGY PREDICTED BY IDOCK:   -5.73 KCAL/MOL
REMARK 923 INTER-LIGAND FREE ENERGY PREDICTED BY IDOCK:   -6.08 KCAL/MOL
REMARK 924 INTRA-LIGAND FREE ENERGY PREDICTED BY IDOCK:    0.34 KCAL/MOL
REMARK 927      BINDING AFFINITY PREDICTED BY RF-SCORE:    0.00 PKD
ROOT
HETATM    1  C   UNL     1     -11.574  15.907  68.102  1.00  0.00    -0.223 C  
HETATM    2  C   UNL     1     -12.273  14.897  69.016  1.00  0.00    -0.171 C  
HETATM    3  C   UNL     1     -11.243  13.773  69.151  1.00  0.00    -0.307 C  
HETATM    4  C   UNL     1     -10.162  14.091  68.089  1.00  0.00    -0.243 C  
HETATM    5  C   UNL     1      -8.928  14.797  68.720  1.00  0.00    -0.179 C  
HETATM    6  N   UNL     1     -10.953  14.944  67.196  1.00  0.00    -0.315 NA 
HETATM    7  C   UNL     1     -10.615  16.776  68.948  1.00  0.00    -0.350 C  
HETATM    8  C   UNL     1      -9.125  16.334  69.008  1.00  0.00    -0.255 C  
ENDROOT
BRANCH   5   9
HETATM    9  C   UNL     1      -7.691  14.428  67.912  1.00  0.00    -0.146 C  
HETATM   10  O   UNL     1      -6.588  14.950  68.018  1.00  0.00    -0.118 OA 
BRANCH   9  11
HETATM   11  O   UNL     1      -7.929  13.398  67.047  1.00  0.00    -0.102 OA 
HETATM   12  C   UNL     1      -7.200  12.207  67.373  1.00  0.00    -0.147 C  
ENDBRANCH   9  11
ENDBRANCH   5   9
BRANCH   6  13
HETATM   13  C   UNL     1     -10.319  15.460  65.991  1.00  0.00    -0.324 C  
BRANCH  13  14
HETATM   14  C   UNL     1     -10.670  14.689  64.711  1.00  0.00    -0.399 C  
HETATM   15  F   UNL     1     -12.305  13.671  63.404  1.00  0.00    -0.548 F  
HETATM   16  C   UNL     1     -12.128  14.316  64.593  1.00  0.00    -0.463 C  
ENDBRANCH  13  14
ENDBRANCH   6  13
BRANCH   8  17
HETATM   17  C   UNL     1      -8.146  17.270  68.271  1.00  0.00    -0.246 A  
HETATM   18  I   UNL     1      -5.852  21.050  66.215  1.00  0.00    -0.313 I  
HETATM   19  C   UNL     1      -7.011  17.837  68.873  1.00  0.00    -0.250 A  
HETATM   20  C   UNL     1      -6.305  18.869  68.251  1.00  0.00    -0.235 A  
HETATM   21  C   UNL     1      -8.434  17.648  66.951  1.00  0.00    -0.261 A  
HETATM   22  C   UNL     1      -6.728  19.351  67.015  1.00  0.00    -0.192 A  
HETATM   23  C   UNL     1      -7.770  18.719  66.346  1.00  0.00    -0.289 A  
ENDBRANCH   8  17
TORSDOF 5
ENDMDL
MODEL       54
REMARK 921   NORMALIZED FREE ENERGY PREDICTED BY IDOCK:   -4.03 KCAL/MOL
REMARK 922        TOTAL FREE ENERGY PREDICTED BY IDOCK:   -5.66 KCAL/MOL
REMARK 923 INTER-LIGAND FREE ENERGY PREDICTED BY IDOCK:   -6.16 KCAL/MOL
REMARK 924 INTRA-LIGAND FREE ENERGY PREDICTED BY IDOCK:    0.49 KCAL/MOL
REMARK 927      BINDING AFFINITY PREDICTED BY RF-SCORE:    0.00 PKD
ROOT
HETATM    1  C   UNL     1     -10.842  13.305  68.600  1.00  0.00    -0.259 C  
HETATM    2  C   UNL     1     -11.761  13.972  67.573  1.00  0.00    -0.421 C  
HETATM    3  C   UNL     1     -11.827  12.946  66.440  1.00  0.00    -0.478 C  
HETATM    4  C   UNL     1     -10.728  11.908  66.775  1.00  0.00    -0.246 C  
HETATM    5  C   UNL     1     -11.323  10.643  67.459  1.00  0.00    -0.241 C  
HETATM    6  N   UNL     1      -9.889  12.730  67.654  1.00  0.00    -0.209 NA 
HETATM    7  C   UNL     1     -11.667  12.305  69.443  1.00  0.00    -0.392 C  
HETATM    8  C   UNL     1     -11.654  10.817  68.989  1.00  0.00    -0.370 C  
ENDROOT
BRANCH   5   9
HETATM    9  C   UNL     1     -10.455   9.444  67.100  1.00  0.00    -0.244 C  
HETATM   10  O   UNL     1     -10.745   8.271  67.298  1.00  0.00    -0.289 OA 
BRANCH   9  11
HETATM   11  O   UNL     1      -9.293   9.814  66.485  1.00  0.00    -0.151 OA 
HETATM   12  C   UNL     1      -8.950   8.974  65.375  1.00  0.00    -0.200 C  
ENDBRANCH   9  11
ENDBRANCH   5   9
BRANCH   6  13
HETATM   13  C   UNL     1      -8.670  12.143  68.194  1.00  0.00    -0.185 C  
BRANCH  13  14
HETATM   14  C   UNL     1      -7.382  12.612  67.504  1.00  0.00    -0.151 C  
HETATM   15  F   UNL     1      -5.295  12.062  66.633  1.00  0.00    -0.122 F  
HETATM   16  C   UNL     1      -6.366  11.518  67.280  1.00  0.00    -0.107 C  
ENDBRANCH  13  14
ENDBRANCH   6  13
BRANCH   8  17
HETATM   17  C   UNL     1     -10.898   9.862  69.936  1.00  0.00    -0.316 A  
HETATM   18  I   UNL     1      -8.421   7.811  73.601  1.00  0.00    -0.332 I  
HETATM   19  C   UNL     1     -11.536   9.001  70.843  1.00  0.00    -0.347 A  
HETATM   20  C   UNL     1     -10.816   8.351  71.848  1.00  0.00    -0.372 A  
HETATM   21  C   UNL     1      -9.496   9.903  69.961  1.00  0.00    -0.246 A  
HETATM   22  C   UNL     1      -9.444   8.556  71.961  1.00  0.00    -0.294 A  
HETATM   23  C   UNL     1      -8.775   9.302  70.998  1.00  0.00    -0.182 A  
ENDBRANCH   8  17
TORSDOF 5
ENDMDL
MODEL       55
REMARK 921   NORMALIZED FREE ENERGY PREDICTED BY IDOCK:   -4.00 KCAL/MOL
REMARK 922        TOTAL FREE ENERGY PREDICTED BY IDOCK:   -5.63 KCAL/MOL
REMARK 923 INTER-LIGAND FREE ENERGY PREDICTED BY IDOCK:   -5.38 KCAL/MOL
REMARK 924 INTRA-LIGAND FREE ENERGY PREDICTED BY IDOCK:   -0.25 KCAL/MOL
REMARK 927      BINDING AFFINITY PREDICTED BY RF-SCORE:    0.00 PKD
ROOT
HETATM    1  C   UNL     1     -10.116  13.858  66.451  1.00  0.00    -0.295 C  
HETATM    2  C   UNL     1     -11.162  14.777  67.087  1.00  0.00    -0.346 C  
HETATM    3  C   UNL     1     -11.953  13.835  67.997  1.00  0.00    -0.390 C  
HETATM    4  C   UNL     1     -11.487  12.412  67.602  1.00  0.00    -0.337 C  
HETATM    5  C   UNL     1     -10.414  11.866  68.587  1.00  0.00    -0.231 C  
HETATM    6  N   UNL     1     -10.980  12.696  66.255  1.00  0.00    -0.275 NA 
HETATM    7  C   UNL     1      -8.935  13.681  67.433  1.00  0.00    -0.218 C  
HETATM    8  C   UNL     1      -8.960  12.428  68.355  1.00  0.00    -0.133 C  
ENDROOT
BRANCH   5   9
HETATM    9  C   UNL     1     -10.536  10.349  68.646  1.00  0.00    -0.209 C  
HETATM   10  O   UNL     1     -10.792   9.617  67.698  1.00  0.00    -0.282 OA 
BRANCH   9  11
HETATM   11  O   UNL     1     -10.295   9.861  69.899  1.00  0.00    -0.225 OA 
HETATM   12  C   UNL     1     -11.394  10.050  70.800  1.00  0.00    -0.360 C  
ENDBRANCH   9  11
ENDBRANCH   5   9
BRANCH   6  13
HETATM   13  C   UNL     1     -10.457  11.590  65.465  1.00  0.00    -0.275 C  
BRANCH  13  14
HETATM   14  C   UNL     1     -11.241  11.308  64.176  1.00  0.00    -0.222 C  
HETATM   15  F   UNL     1     -12.951  11.936  62.726  1.00  0.00    -0.495 F  
HETATM   16  C   UNL     1     -12.366  12.279  63.910  1.00  0.00    -0.509 C  
ENDBRANCH  13  14
ENDBRANCH   6  13
BRANCH   8  17
HETATM   17  C   UNL     1      -7.891  11.366  68.027  1.00  0.00    -0.121 A  
HETATM   18  I   UNL     1      -5.404   7.259  67.175  1.00  0.00    -0.024 I  
HETATM   19  C   UNL     1      -7.541  10.995  66.719  1.00  0.00    -0.139 A  
HETATM   20  C   UNL     1      -6.763   9.861  66.475  1.00  0.00    -0.080 A  
HETATM   21  C   UNL     1      -7.285  10.667  69.080  1.00  0.00    -0.102 A  
HETATM   22  C   UNL     1      -6.326   9.078  67.540  1.00  0.00    -0.063 A  
HETATM   23  C   UNL     1      -6.554   9.498  68.845  1.00  0.00    -0.047 A  
ENDBRANCH   8  17
TORSDOF 5
ENDMDL
MODEL       56
REMARK 921   NORMALIZED FREE ENERGY PREDICTED BY IDOCK:   -4.00 KCAL/MOL
REMARK 922        TOTAL FREE ENERGY PREDICTED BY IDOCK:   -5.63 KCAL/MOL
REMARK 923 INTER-LIGAND FREE ENERGY PREDICTED BY IDOCK:   -6.06 KCAL/MOL
REMARK 924 INTRA-LIGAND FREE ENERGY PREDICTED BY IDOCK:    0.43 KCAL/MOL
REMARK 927      BINDING AFFINITY PREDICTED BY RF-SCORE:    0.00 PKD
ROOT
HETATM    1  C   UNL     1     -11.157  12.429  64.769  1.00  0.00    -0.304 C  
HETATM    2  C   UNL     1     -10.722  11.269  63.869  1.00  0.00    -0.451 C  
HETATM    3  C   UNL     1      -9.590  10.612  64.662  1.00  0.00    -0.334 C  
HETATM    4  C   UNL     1      -9.278  11.603  65.810  1.00  0.00    -0.173 C  
HETATM    5  C   UNL     1      -9.963  11.175  67.140  1.00  0.00    -0.215 C  
HETATM    6  N   UNL     1      -9.826  12.829  65.218  1.00  0.00    -0.164 NA 
HETATM    7  C   UNL     1     -12.119  11.892  65.855  1.00  0.00     0.211 C  
HETATM    8  C   UNL     1     -11.497  11.521  67.232  1.00  0.00    -0.338 C  
ENDROOT
BRANCH   5   9
HETATM    9  C   UNL     1      -9.105  11.653  68.304  1.00  0.00    -0.187 C  
HETATM   10  O   UNL     1      -8.754  10.970  69.258  1.00  0.00    -0.053 OA 
BRANCH   9  11
HETATM   11  O   UNL     1      -8.723  12.956  68.161  1.00  0.00    -0.180 OA 
HETATM   12  C   UNL     1      -7.435  13.232  68.728  1.00  0.00    -0.053 C  
ENDBRANCH   9  11
ENDBRANCH   5   9
BRANCH   6  13
HETATM   13  C   UNL     1      -9.710  14.071  65.969  1.00  0.00    -0.258 C  
BRANCH  13  14
HETATM   14  C   UNL     1      -9.975  15.337  65.143  1.00  0.00    -0.260 C  
HETATM   15  F   UNL     1     -11.529  16.815  64.236  1.00  0.00    -0.459 F  
HETATM   16  C   UNL     1     -11.439  15.657  64.952  1.00  0.00    -0.245 C  
ENDBRANCH  13  14
ENDBRANCH   6  13
BRANCH   8  17
HETATM   17  C   UNL     1     -11.889  12.462  68.389  1.00  0.00    -0.361 A  
HETATM   18  I   UNL     1     -11.984  15.344  72.321  1.00  0.00    -0.627 I  
HETATM   19  C   UNL     1     -11.988  13.856  68.257  1.00  0.00    -0.392 A  
HETATM   20  C   UNL     1     -12.093  14.680  69.380  1.00  0.00    -0.317 A  
HETATM   21  C   UNL     1     -12.083  11.919  69.668  1.00  0.00    -0.304 A  
HETATM   22  C   UNL     1     -12.098  14.119  70.654  1.00  0.00    -0.351 A  
HETATM   23  C   UNL     1     -12.130  12.738  70.800  1.00  0.00    -0.246 A  
ENDBRANCH   8  17
TORSDOF 5
ENDMDL
MODEL       57
REMARK 921   NORMALIZED FREE ENERGY PREDICTED BY IDOCK:   -4.00 KCAL/MOL
REMARK 922        TOTAL FREE ENERGY PREDICTED BY IDOCK:   -5.62 KCAL/MOL
REMARK 923 INTER-LIGAND FREE ENERGY PREDICTED BY IDOCK:   -6.11 KCAL/MOL
REMARK 924 INTRA-LIGAND FREE ENERGY PREDICTED BY IDOCK:    0.49 KCAL/MOL
REMARK 927      BINDING AFFINITY PREDICTED BY RF-SCORE:    0.00 PKD
ROOT
HETATM    1  C   UNL     1      -8.062  15.329  68.036  1.00  0.00    -0.137 C  
HETATM    2  C   UNL     1      -7.678  16.671  67.407  1.00  0.00    -0.188 C  
HETATM    3  C   UNL     1      -8.666  16.812  66.246  1.00  0.00    -0.342 C  
HETATM    4  C   UNL     1      -9.344  15.426  66.128  1.00  0.00    -0.332 C  
HETATM    5  C   UNL     1     -10.735  15.406  66.825  1.00  0.00    -0.310 C  
HETATM    6  N   UNL     1      -8.325  14.607  66.793  1.00  0.00    -0.130 NA 
HETATM    7  C   UNL     1      -9.268  15.541  68.980  1.00  0.00    -0.238 C  
HETATM    8  C   UNL     1     -10.684  15.269  68.393  1.00  0.00    -0.250 C  
ENDROOT
BRANCH   5   9
HETATM    9  C   UNL     1     -11.627  14.407  66.101  1.00  0.00    -0.369 C  
HETATM   10  O   UNL     1     -12.770  14.107  66.424  1.00  0.00    -0.356 OA 
BRANCH   9  11
HETATM   11  O   UNL     1     -11.020  13.880  64.997  1.00  0.00    -0.330 OA 
HETATM   12  C   UNL     1     -11.949  13.351  64.040  1.00  0.00    -0.464 C  
ENDBRANCH   9  11
ENDBRANCH   5   9
BRANCH   6  13
HETATM   13  C   UNL     1      -8.540  13.169  66.879  1.00  0.00    -0.109 C  
BRANCH  13  14
HETATM   14  C   UNL     1      -7.291  12.365  67.265  1.00  0.00    -0.127 C  
HETATM   15  F   UNL     1      -6.267  10.900  68.756  1.00  0.00    -0.044 F  
HETATM   16  C   UNL     1      -7.427  11.591  68.554  1.00  0.00    -0.115 C  
ENDBRANCH  13  14
ENDBRANCH   6  13
BRANCH   8  17
HETATM   17  C   UNL     1     -11.389  14.023  68.966  1.00  0.00    -0.319 A  
HETATM   18  I   UNL     1     -12.667  10.041  71.473  1.00  0.00    -0.578 I  
HETATM   19  C   UNL     1     -12.395  14.080  69.944  1.00  0.00    -0.367 A  
HETATM   20  C   UNL     1     -12.818  12.928  70.611  1.00  0.00    -0.048 A  
HETATM   21  C   UNL     1     -10.959  12.752  68.556  1.00  0.00    -0.288 A  
HETATM   22  C   UNL     1     -12.238  11.699  70.309  1.00  0.00    -0.318 A  
HETATM   23  C   UNL     1     -11.334  11.602  69.258  1.00  0.00    -0.353 A  
ENDBRANCH   8  17
TORSDOF 5
ENDMDL
MODEL       58
REMARK 921   NORMALIZED FREE ENERGY PREDICTED BY IDOCK:   -3.99 KCAL/MOL
REMARK 922        TOTAL FREE ENERGY PREDICTED BY IDOCK:   -5.61 KCAL/MOL
REMARK 923 INTER-LIGAND FREE ENERGY PREDICTED BY IDOCK:   -5.40 KCAL/MOL
REMARK 924 INTRA-LIGAND FREE ENERGY PREDICTED BY IDOCK:   -0.20 KCAL/MOL
REMARK 927      BINDING AFFINITY PREDICTED BY RF-SCORE:    0.00 PKD
ROOT
HETATM    1  C   UNL     1      -9.908   9.858  65.351  1.00  0.00    -0.313 C  
HETATM    2  C   UNL     1      -8.791   9.497  64.368  1.00  0.00    -0.251 C  
HETATM    3  C   UNL     1      -7.536  10.064  65.036  1.00  0.00    -0.139 C  
HETATM    4  C   UNL     1      -8.063  10.942  66.197  1.00  0.00    -0.160 C  
HETATM    5  C   UNL     1      -8.001  10.192  67.558  1.00  0.00    -0.106 C  
HETATM    6  N   UNL     1      -9.424  11.189  65.706  1.00  0.00    -0.213 NA 
HETATM    7  C   UNL     1      -9.939   8.809  66.487  1.00  0.00    -0.360 C  
HETATM    8  C   UNL     1      -9.163   9.153  67.791  1.00  0.00    -0.145 C  
ENDROOT
BRANCH   5   9
HETATM    9  C   UNL     1      -7.795  11.214  68.668  1.00  0.00    -0.138 C  
HETATM   10  O   UNL     1      -8.144  12.387  68.630  1.00  0.00    -0.114 OA 
BRANCH   9  11
HETATM   11  O   UNL     1      -7.188  10.670  69.764  1.00  0.00    -0.149 OA 
HETATM   12  C   UNL     1      -5.780  10.465  69.585  1.00  0.00    -0.040 C  
ENDBRANCH   9  11
ENDBRANCH   5   9
BRANCH   6  13
HETATM   13  C   UNL     1     -10.302  12.039  66.499  1.00  0.00    -0.210 C  
BRANCH  13  14
HETATM   14  C   UNL     1     -11.567  12.502  65.764  1.00  0.00    -0.439 C  
HETATM   15  F   UNL     1     -13.293  14.055  65.587  1.00  0.00    -0.522 F  
HETATM   16  C   UNL     1     -12.208  13.736  66.352  1.00  0.00    -0.436 C  
ENDBRANCH  13  14
ENDBRANCH   6  13
BRANCH   8  17
HETATM   17  C   UNL     1     -10.056   9.432  69.017  1.00  0.00    -0.202 A  
HETATM   18  I   UNL     1     -13.638   9.611  72.321  1.00  0.00    -0.026 I  
HETATM   19  C   UNL     1      -9.954   8.729  70.228  1.00  0.00    -0.210 A  
HETATM   20  C   UNL     1     -10.941   8.838  71.210  1.00  0.00    -0.345 A  
HETATM   21  C   UNL     1     -11.084  10.380  68.905  1.00  0.00    -0.296 A  
HETATM   22  C   UNL     1     -12.049   9.652  70.992  1.00  0.00    -0.337 A  
HETATM   23  C   UNL     1     -12.106  10.452  69.856  1.00  0.00    -0.252 A  
ENDBRANCH   8  17
TORSDOF 5
ENDMDL
MODEL       59
REMARK 921   NORMALIZED FREE ENERGY PREDICTED BY IDOCK:   -3.91 KCAL/MOL
REMARK 922        TOTAL FREE ENERGY PREDICTED BY IDOCK:   -5.50 KCAL/MOL
REMARK 923 INTER-LIGAND FREE ENERGY PREDICTED BY IDOCK:   -5.53 KCAL/MOL
REMARK 924 INTRA-LIGAND FREE ENERGY PREDICTED BY IDOCK:    0.03 KCAL/MOL
REMARK 927      BINDING AFFINITY PREDICTED BY RF-SCORE:    0.00 PKD
ROOT
HETATM    1  C   UNL     1     -10.450  17.761  66.481  1.00  0.00    -0.297 C  
HETATM    2  C   UNL     1     -10.709  19.084  65.756  1.00  0.00    -0.350 C  
HETATM    3  C   UNL     1      -9.752  20.059  66.448  1.00  0.00    -0.557 C  
HETATM    4  C   UNL     1      -9.232  19.295  67.689  1.00  0.00    -0.304 C  
HETATM    5  C   UNL     1      -7.828  18.675  67.434  1.00  0.00    -0.242 C  
HETATM    6  N   UNL     1     -10.309  18.309  67.828  1.00  0.00    -0.383 NA 
HETATM    7  C   UNL     1      -9.196  17.090  65.875  1.00  0.00    -0.076 C  
HETATM    8  C   UNL     1      -7.839  17.342  66.594  1.00  0.00    -0.295 C  
ENDROOT
BRANCH   5   9
HETATM    9  C   UNL     1      -7.074  18.618  68.756  1.00  0.00    -0.303 C  
HETATM   10  O   UNL     1      -7.248  17.789  69.641  1.00  0.00     0.051 OA 
BRANCH   9  11
HETATM   11  O   UNL     1      -6.127  19.598  68.852  1.00  0.00    -0.235 OA 
HETATM   12  C   UNL     1      -5.175  19.568  67.780  1.00  0.00    -0.172 C  
ENDBRANCH   9  11
ENDBRANCH   5   9
BRANCH   6  13
HETATM   13  C   UNL     1     -10.248  17.367  68.938  1.00  0.00    -0.352 C  
BRANCH  13  14
HETATM   14  C   UNL     1     -11.364  16.314  68.936  1.00  0.00    -0.317 C  
HETATM   15  F   UNL     1     -12.874  15.034  70.162  1.00  0.00    -0.352 F  
HETATM   16  C   UNL     1     -11.869  15.946  70.310  1.00  0.00    -0.327 C  
ENDBRANCH  13  14
ENDBRANCH   6  13
BRANCH   8  17
HETATM   17  C   UNL     1      -7.253  16.109  67.312  1.00  0.00    -0.232 A  
HETATM   18  I   UNL     1      -5.279  12.969  70.477  1.00  0.00    -0.167 I  
HETATM   19  C   UNL     1      -8.039  15.127  67.936  1.00  0.00    -0.144 A  
HETATM   20  C   UNL     1      -7.465  14.177  68.784  1.00  0.00    -0.129 A  
HETATM   21  C   UNL     1      -5.860  15.989  67.423  1.00  0.00    -0.140 A  
HETATM   22  C   UNL     1      -6.093  14.198  69.021  1.00  0.00    -0.093 A  
HETATM   23  C   UNL     1      -5.283  15.079  68.315  1.00  0.00    -0.114 A  
ENDBRANCH   8  17
TORSDOF 5
ENDMDL
MODEL       60
REMARK 921   NORMALIZED FREE ENERGY PREDICTED BY IDOCK:   -3.89 KCAL/MOL
REMARK 922        TOTAL FREE ENERGY PREDICTED BY IDOCK:   -5.49 KCAL/MOL
REMARK 923 INTER-LIGAND FREE ENERGY PREDICTED BY IDOCK:   -5.15 KCAL/MOL
REMARK 924 INTRA-LIGAND FREE ENERGY PREDICTED BY IDOCK:   -0.33 KCAL/MOL
REMARK 927      BINDING AFFINITY PREDICTED BY RF-SCORE:    0.00 PKD
ROOT
HETATM    1  C   UNL     1     -10.814   9.672  68.625  1.00  0.00    -0.167 C  
HETATM    2  C   UNL     1     -10.086  10.649  67.697  1.00  0.00    -0.208 C  
HETATM    3  C   UNL     1      -8.695  10.762  68.327  1.00  0.00    -0.136 C  
HETATM    4  C   UNL     1      -8.823  10.072  69.706  1.00  0.00    -0.183 C  
HETATM    5  C   UNL     1      -8.284   8.613  69.670  1.00  0.00    -0.114 C  
HETATM    6  N   UNL     1     -10.275  10.173  69.887  1.00  0.00    -0.249 NA 
HETATM    7  C   UNL     1     -10.430   8.225  68.236  1.00  0.00    -0.211 C  
HETATM    8  C   UNL     1      -9.269   7.562  69.032  1.00  0.00    -0.146 C  
ENDROOT
BRANCH   5   9
HETATM    9  C   UNL     1      -7.743   8.261  71.050  1.00  0.00    -0.090 C  
HETATM   10  O   UNL     1      -8.144   8.720  72.111  1.00  0.00    -0.336 OA 
BRANCH   9  11
HETATM   11  O   UNL     1      -6.751   7.324  70.990  1.00  0.00    -0.047 OA 
HETATM   12  C   UNL     1      -6.394   6.797  72.275  1.00  0.00    -0.049 C  
ENDBRANCH   9  11
ENDBRANCH   5   9
BRANCH   6  13
HETATM   13  C   UNL     1     -10.857   9.662  71.120  1.00  0.00    -0.334 C  
BRANCH  13  14
HETATM   14  C   UNL     1     -12.328  10.045  71.332  1.00  0.00    -0.512 C  
HETATM   15  F   UNL     1     -14.361   9.579  72.366  1.00  0.00    -0.370 F  
HETATM   16  C   UNL     1     -13.088   9.106  72.238  1.00  0.00    -0.438 C  
ENDBRANCH  13  14
ENDBRANCH   6  13
BRANCH   8  17
HETATM   17  C   UNL     1      -9.703   6.416  69.968  1.00  0.00    -0.183 A  
HETATM   18  I   UNL     1     -10.223   3.226  73.619  1.00  0.00    -0.280 I  
HETATM   19  C   UNL     1     -10.791   6.504  70.851  1.00  0.00    -0.302 A  
HETATM   20  C   UNL     1     -10.987   5.549  71.851  1.00  0.00    -0.264 A  
HETATM   21  C   UNL     1      -8.932   5.246  70.008  1.00  0.00    -0.154 A  
HETATM   22  C   UNL     1     -10.092   4.490  71.982  1.00  0.00    -0.196 A  
HETATM   23  C   UNL     1      -9.085   4.316  71.041  1.00  0.00    -0.181 A  
ENDBRANCH   8  17
TORSDOF 5
ENDMDL
MODEL       61
REMARK 921   NORMALIZED FREE ENERGY PREDICTED BY IDOCK:   -3.88 KCAL/MOL
REMARK 922        TOTAL FREE ENERGY PREDICTED BY IDOCK:   -5.46 KCAL/MOL
REMARK 923 INTER-LIGAND FREE ENERGY PREDICTED BY IDOCK:   -5.11 KCAL/MOL
REMARK 924 INTRA-LIGAND FREE ENERGY PREDICTED BY IDOCK:   -0.35 KCAL/MOL
REMARK 927      BINDING AFFINITY PREDICTED BY RF-SCORE:    0.00 PKD
ROOT
HETATM    1  C   UNL     1     -11.669   7.169  70.645  1.00  0.00    -0.307 C  
HETATM    2  C   UNL     1     -11.721   6.718  72.107  1.00  0.00    -0.332 C  
HETATM    3  C   UNL     1     -10.301   6.987  72.610  1.00  0.00    -0.235 C  
HETATM    4  C   UNL     1      -9.479   7.301  71.336  1.00  0.00    -0.160 C  
HETATM    5  C   UNL     1      -9.300   8.833  71.132  1.00  0.00    -0.297 C  
HETATM    6  N   UNL     1     -10.337   6.656  70.336  1.00  0.00    -0.195 NA 
HETATM    7  C   UNL     1     -11.849   8.704  70.583  1.00  0.00    -0.122 C  
HETATM    8  C   UNL     1     -10.556   9.567  70.527  1.00  0.00    -0.358 C  
ENDROOT
BRANCH   5   9
HETATM    9  C   UNL     1      -7.980   9.077  70.414  1.00  0.00    -0.128 C  
HETATM   10  O   UNL     1      -7.596   8.492  69.409  1.00  0.00    -0.086 OA 
BRANCH   9  11
HETATM   11  O   UNL     1      -7.250  10.072  71.001  1.00  0.00    -0.300 OA 
HETATM   12  C   UNL     1      -5.836   9.909  70.830  1.00  0.00    -0.088 C  
ENDBRANCH   9  11
ENDBRANCH   5   9
BRANCH   6  13
HETATM   13  C   UNL     1      -9.911   6.674  68.944  1.00  0.00    -0.139 C  
BRANCH  13  14
HETATM   14  C   UNL     1     -10.911   6.038  67.969  1.00  0.00    -0.340 C  
HETATM   15  F   UNL     1     -11.267   4.866  65.989  1.00  0.00    -0.278 F  
HETATM   16  C   UNL     1     -10.276   5.420  66.746  1.00  0.00    -0.241 C  
ENDBRANCH  13  14
ENDBRANCH   6  13
BRANCH   8  17
HETATM   17  C   UNL     1     -10.315  10.276  69.179  1.00  0.00    -0.241 A  
HETATM   18  I   UNL     1     -10.679  12.837  65.045  1.00  0.00    -0.383 I  
HETATM   19  C   UNL     1      -9.724  11.545  69.063  1.00  0.00     0.016 A  
HETATM   20  C   UNL     1      -9.759  12.249  67.858  1.00  0.00    -0.202 A  
HETATM   21  C   UNL     1     -10.776   9.670  68.002  1.00  0.00    -0.284 A  
HETATM   22  C   UNL     1     -10.390  11.693  66.748  1.00  0.00    -0.222 A  
HETATM   23  C   UNL     1     -10.868  10.390  66.806  1.00  0.00    -0.186 A  
ENDBRANCH   8  17
TORSDOF 5
ENDMDL
MODEL       62
REMARK 921   NORMALIZED FREE ENERGY PREDICTED BY IDOCK:   -3.87 KCAL/MOL
REMARK 922        TOTAL FREE ENERGY PREDICTED BY IDOCK:   -5.46 KCAL/MOL
REMARK 923 INTER-LIGAND FREE ENERGY PREDICTED BY IDOCK:   -5.18 KCAL/MOL
REMARK 924 INTRA-LIGAND FREE ENERGY PREDICTED BY IDOCK:   -0.27 KCAL/MOL
REMARK 927      BINDING AFFINITY PREDICTED BY RF-SCORE:    0.00 PKD
ROOT
HETATM    1  C   UNL     1      -8.898   5.031  72.716  1.00  0.00    -0.121 C  
HETATM    2  C   UNL     1      -9.562   4.111  73.744  1.00  0.00    -0.128 C  
HETATM    3  C   UNL     1     -10.978   4.681  73.864  1.00  0.00    -0.333 C  
HETATM    4  C   UNL     1     -10.928   6.036  73.118  1.00  0.00    -0.239 C  
HETATM    5  C   UNL     1     -11.495   5.918  71.674  1.00  0.00    -0.238 C  
HETATM    6  N   UNL     1      -9.484   6.286  73.180  1.00  0.00    -0.138 NA 
HETATM    7  C   UNL     1      -9.293   4.568  71.295  1.00  0.00    -0.209 C  
HETATM    8  C   UNL     1     -10.503   5.283  70.627  1.00  0.00    -0.306 C  
ENDROOT
BRANCH   5   9
HETATM    9  C   UNL     1     -12.106   7.256  71.280  1.00  0.00    -0.338 C  
HETATM   10  O   UNL     1     -11.534   8.338  71.314  1.00  0.00    -0.261 OA 
BRANCH   9  11
HETATM   11  O   UNL     1     -13.392   7.125  70.840  1.00  0.00    -0.184 OA 
HETATM   12  C   UNL     1     -14.319   7.961  71.547  1.00  0.00    -0.445 C  
ENDBRANCH   9  11
ENDBRANCH   5   9
BRANCH   6  13
HETATM   13  C   UNL     1      -8.971   7.524  72.608  1.00  0.00    -0.144 C  
BRANCH  13  14
HETATM   14  C   UNL     1      -7.671   8.026  73.252  1.00  0.00    -0.205 C  
HETATM   15  F   UNL     1      -5.558   8.962  72.966  1.00  0.00    -0.068 F  
HETATM   16  C   UNL     1      -6.640   8.516  72.263  1.00  0.00    -0.084 C  
ENDBRANCH  13  14
ENDBRANCH   6  13
BRANCH   8  17
HETATM   17  C   UNL     1     -10.136   6.192  69.436  1.00  0.00    -0.230 A  
HETATM   18  I   UNL     1      -9.753   9.797  66.175  1.00  0.00    -0.334 I  
HETATM   19  C   UNL     1      -9.006   7.024  69.413  1.00  0.00    -0.139 A  
HETATM   20  C   UNL     1      -8.855   8.008  68.434  1.00  0.00    -0.134 A  
HETATM   21  C   UNL     1     -11.011   6.261  68.343  1.00  0.00    -0.409 A  
HETATM   22  C   UNL     1      -9.838   8.175  67.462  1.00  0.00    -0.177 A  
HETATM   23  C   UNL     1     -10.899   7.280  67.392  1.00  0.00    -0.317 A  
ENDBRANCH   8  17
TORSDOF 5
ENDMDL
MODEL       63
REMARK 921   NORMALIZED FREE ENERGY PREDICTED BY IDOCK:   -3.87 KCAL/MOL
REMARK 922        TOTAL FREE ENERGY PREDICTED BY IDOCK:   -5.45 KCAL/MOL
REMARK 923 INTER-LIGAND FREE ENERGY PREDICTED BY IDOCK:   -5.72 KCAL/MOL
REMARK 924 INTRA-LIGAND FREE ENERGY PREDICTED BY IDOCK:    0.26 KCAL/MOL
REMARK 927      BINDING AFFINITY PREDICTED BY RF-SCORE:    0.00 PKD
ROOT
HETATM    1  C   UNL     1      -8.493   8.295  66.581  1.00  0.00    -0.123 C  
HETATM    2  C   UNL     1      -9.196   6.941  66.453  1.00  0.00    -0.186 C  
HETATM    3  C   UNL     1     -10.541   7.175  67.145  1.00  0.00    -0.417 C  
HETATM    4  C   UNL     1     -10.392   8.543  67.855  1.00  0.00    -0.223 C  
HETATM    5  C   UNL     1     -11.036   9.692  67.027  1.00  0.00    -0.020 C  
HETATM    6  N   UNL     1      -8.929   8.607  67.940  1.00  0.00    -0.140 NA 
HETATM    7  C   UNL     1      -8.998   9.234  65.461  1.00  0.00    -0.251 C  
HETATM    8  C   UNL     1     -10.162  10.202  65.819  1.00  0.00    -0.283 C  
ENDROOT
BRANCH   5   9
HETATM    9  C   UNL     1     -11.529  10.766  67.988  1.00  0.00    -0.256 C  
HETATM   10  O   UNL     1     -12.035  11.833  67.665  1.00  0.00    -0.599 OA 
BRANCH   9  11
HETATM   11  O   UNL     1     -11.376  10.398  69.294  1.00  0.00    -0.237 OA 
HETATM   12  C   UNL     1     -11.995  11.308  70.213  1.00  0.00    -0.379 C  
ENDBRANCH   9  11
ENDBRANCH   5   9
BRANCH   6  13
HETATM   13  C   UNL     1      -8.323   9.757  68.597  1.00  0.00    -0.111 C  
BRANCH  13  14
HETATM   14  C   UNL     1      -8.391   9.716  70.130  1.00  0.00    -0.221 C  
HETATM   15  F   UNL     1      -8.036   8.515  72.092  1.00  0.00    -0.149 F  
HETATM   16  C   UNL     1      -7.962   8.401  70.734  1.00  0.00    -0.106 C  
ENDBRANCH  13  14
ENDBRANCH   6  13
BRANCH   8  17
HETATM   17  C   UNL     1      -9.764  11.691  65.881  1.00  0.00    -0.260 A  
HETATM   18  I   UNL     1      -9.506  16.493  66.691  1.00  0.00    -0.348 I  
HETATM   19  C   UNL     1      -8.859  12.215  66.817  1.00  0.00    -0.198 A  
HETATM   20  C   UNL     1      -8.727  13.594  66.999  1.00  0.00    -0.204 A  
HETATM   21  C   UNL     1     -10.390  12.596  65.012  1.00  0.00    -0.320 A  
HETATM   22  C   UNL     1      -9.502  14.470  66.243  1.00  0.00    -0.283 A  
HETATM   23  C   UNL     1     -10.308  13.976  65.225  1.00  0.00    -0.403 A  
ENDBRANCH   8  17
TORSDOF 5
ENDMDL
MODEL       64
REMARK 921   NORMALIZED FREE ENERGY PREDICTED BY IDOCK:   -3.85 KCAL/MOL
REMARK 922        TOTAL FREE ENERGY PREDICTED BY IDOCK:   -5.43 KCAL/MOL
REMARK 923 INTER-LIGAND FREE ENERGY PREDICTED BY IDOCK:   -5.69 KCAL/MOL
REMARK 924 INTRA-LIGAND FREE ENERGY PREDICTED BY IDOCK:    0.26 KCAL/MOL
REMARK 927      BINDING AFFINITY PREDICTED BY RF-SCORE:    0.00 PKD
ROOT
HETATM    1  C   UNL     1     -11.529  12.438  67.619  1.00  0.00    -0.337 C  
HETATM    2  C   UNL     1     -11.937  11.232  68.469  1.00  0.00    -0.288 C  
HETATM    3  C   UNL     1     -10.701  10.331  68.421  1.00  0.00    -0.263 C  
HETATM    4  C   UNL     1      -9.796  10.952  67.328  1.00  0.00    -0.175 C  
HETATM    5  C   UNL     1      -8.674  11.835  67.946  1.00  0.00    -0.164 C  
HETATM    6  N   UNL     1     -10.811  11.702  66.580  1.00  0.00    -0.271 NA 
HETATM    7  C   UNL     1     -10.689  13.405  68.485  1.00  0.00    -0.278 C  
HETATM    8  C   UNL     1      -9.142  13.270  68.401  1.00  0.00    -0.137 C  
ENDROOT
BRANCH   5   9
HETATM    9  C   UNL     1      -7.462  11.795  67.025  1.00  0.00    -0.137 C  
HETATM   10  O   UNL     1      -6.357  12.255  67.281  1.00  0.00    -0.140 OA 
BRANCH   9  11
HETATM   11  O   UNL     1      -7.726  11.142  65.854  1.00  0.00    -0.072 OA 
HETATM   12  C   UNL     1      -6.605  10.397  65.359  1.00  0.00    -0.109 C  
ENDBRANCH   9  11
ENDBRANCH   5   9
BRANCH   6  13
HETATM   13  C   UNL     1     -10.394  12.439  65.395  1.00  0.00    -0.277 C  
BRANCH  13  14
HETATM   14  C   UNL     1     -11.098  12.007  64.102  1.00  0.00    -0.431 C  
HETATM   15  F   UNL     1     -13.094  11.740  62.934  1.00  0.00    -0.578 F  
HETATM   16  C   UNL     1     -12.603  12.118  64.150  1.00  0.00    -0.365 C  
ENDBRANCH  13  14
ENDBRANCH   6  13
BRANCH   8  17
HETATM   17  C   UNL     1      -8.429  14.444  67.700  1.00  0.00    -0.191 A  
HETATM   18  I   UNL     1      -6.971  18.804  66.074  1.00  0.00    -0.268 I  
HETATM   19  C   UNL     1      -7.247  15.032  68.178  1.00  0.00    -0.122 A  
HETATM   20  C   UNL     1      -6.784  16.244  67.660  1.00  0.00    -0.169 A  
HETATM   21  C   UNL     1      -9.025  15.020  66.568  1.00  0.00    -0.310 A  
HETATM   22  C   UNL     1      -7.502  16.888  66.656  1.00  0.00    -0.268 A  
HETATM   23  C   UNL     1      -8.602  16.261  66.083  1.00  0.00    -0.342 A  
ENDBRANCH   8  17
TORSDOF 5
ENDMDL
MODEL       65
REMARK 921   NORMALIZED FREE ENERGY PREDICTED BY IDOCK:   -3.80 KCAL/MOL
REMARK 922        TOTAL FREE ENERGY PREDICTED BY IDOCK:   -5.37 KCAL/MOL
REMARK 923 INTER-LIGAND FREE ENERGY PREDICTED BY IDOCK:   -5.07 KCAL/MOL
REMARK 924 INTRA-LIGAND FREE ENERGY PREDICTED BY IDOCK:   -0.30 KCAL/MOL
REMARK 927      BINDING AFFINITY PREDICTED BY RF-SCORE:    0.00 PKD
ROOT
HETATM    1  C   UNL     1     -10.651  12.399  67.334  1.00  0.00    -0.216 C  
HETATM    2  C   UNL     1     -11.050  12.839  65.923  1.00  0.00    -0.318 C  
HETATM    3  C   UNL     1     -10.287  11.867  65.020  1.00  0.00    -0.330 C  
HETATM    4  C   UNL     1      -9.301  11.135  65.964  1.00  0.00    -0.206 C  
HETATM    5  C   UNL     1      -9.842   9.739  66.388  1.00  0.00    -0.298 C  
HETATM    6  N   UNL     1      -9.245  12.116  67.053  1.00  0.00    -0.195 NA 
HETATM    7  C   UNL     1     -11.526  11.194  67.753  1.00  0.00    -0.349 C  
HETATM    8  C   UNL     1     -10.934   9.774  67.524  1.00  0.00    -0.205 C  
ENDROOT
BRANCH   5   9
HETATM    9  C   UNL     1      -8.658   8.814  66.635  1.00  0.00    -0.112 C  
HETATM   10  O   UNL     1      -7.689   9.069  67.341  1.00  0.00    -0.091 OA 
BRANCH   9  11
HETATM   11  O   UNL     1      -8.799   7.615  65.996  1.00  0.00    -0.161 OA 
HETATM   12  C   UNL     1      -7.956   6.587  66.534  1.00  0.00    -0.109 C  
ENDBRANCH   9  11
ENDBRANCH   5   9
BRANCH   6  13
HETATM   13  C   UNL     1      -8.371  11.845  68.185  1.00  0.00    -0.161 C  
BRANCH  13  14
HETATM   14  C   UNL     1      -6.972  12.466  68.068  1.00  0.00    -0.097 C  
HETATM   15  F   UNL     1      -5.679  14.362  67.675  1.00  0.00    -0.133 F  
HETATM   16  C   UNL     1      -6.975  13.933  67.712  1.00  0.00    -0.172 C  
ENDBRANCH  13  14
ENDBRANCH   6  13
BRANCH   8  17
HETATM   17  C   UNL     1     -10.562   9.016  68.814  1.00  0.00    -0.196 A  
HETATM   18  I   UNL     1     -10.495   6.884  73.199  1.00  0.00    -0.411 I  
HETATM   19  C   UNL     1     -10.610   7.618  68.936  1.00  0.00    -0.176 A  
HETATM   20  C   UNL     1     -10.514   6.999  70.184  1.00  0.00    -0.232 A  
HETATM   21  C   UNL     1     -10.232   9.752  69.961  1.00  0.00    -0.308 A  
HETATM   22  C   UNL     1     -10.370   7.773  71.332  1.00  0.00    -0.197 A  
HETATM   23  C   UNL     1     -10.192   9.147  71.221  1.00  0.00    -0.400 A  
ENDBRANCH   8  17
TORSDOF 5
ENDMDL
MODEL       66
REMARK 921   NORMALIZED FREE ENERGY PREDICTED BY IDOCK:   -3.75 KCAL/MOL
REMARK 922        TOTAL FREE ENERGY PREDICTED BY IDOCK:   -5.30 KCAL/MOL
REMARK 923 INTER-LIGAND FREE ENERGY PREDICTED BY IDOCK:   -5.32 KCAL/MOL
REMARK 924 INTRA-LIGAND FREE ENERGY PREDICTED BY IDOCK:    0.02 KCAL/MOL
REMARK 927      BINDING AFFINITY PREDICTED BY RF-SCORE:    0.00 PKD
ROOT
HETATM    1  C   UNL     1     -11.181   9.003  70.274  1.00  0.00    -0.205 C  
HETATM    2  C   UNL     1     -12.275   9.961  70.753  1.00  0.00    -0.380 C  
HETATM    3  C   UNL     1     -12.785   9.301  72.037  1.00  0.00    -0.479 C  
HETATM    4  C   UNL     1     -12.148   7.890  72.041  1.00  0.00    -0.320 C  
HETATM    5  C   UNL     1     -10.887   7.833  72.951  1.00  0.00    -0.453 C  
HETATM    6  N   UNL     1     -11.863   7.756  70.608  1.00  0.00    -0.189 NA 
HETATM    7  C   UNL     1      -9.874   9.302  71.045  1.00  0.00    -0.355 C  
HETATM    8  C   UNL     1      -9.583   8.441  72.308  1.00  0.00    -0.374 C  
ENDROOT
BRANCH   5   9
HETATM    9  C   UNL     1     -10.754   6.422  73.509  1.00  0.00    -0.244 C  
HETATM   10  O   UNL     1     -10.131   6.110  74.516  1.00  0.00    -0.296 OA 
BRANCH   9  11
HETATM   11  O   UNL     1     -11.449   5.508  72.769  1.00  0.00    -0.303 OA 
HETATM   12  C   UNL     1     -10.785   4.241  72.669  1.00  0.00    -0.093 C  
ENDBRANCH   9  11
ENDBRANCH   5   9
BRANCH   6  13
HETATM   13  C   UNL     1     -11.271   6.513  70.134  1.00  0.00    -0.377 C  
BRANCH  13  14
HETATM   14  C   UNL     1     -11.092   6.438  68.611  1.00  0.00    -0.393 C  
HETATM   15  F   UNL     1     -10.122   5.366  66.786  1.00  0.00    -0.147 F  
HETATM   16  C   UNL     1     -10.161   5.342  68.150  1.00  0.00    -0.165 C  
ENDBRANCH  13  14
ENDBRANCH   6  13
BRANCH   8  17
HETATM   17  C   UNL     1      -8.405   7.456  72.157  1.00  0.00    -0.122 A  
HETATM   18  I   UNL     1      -5.340   3.672  72.394  1.00  0.00     0.000 I  
HETATM   19  C   UNL     1      -8.262   6.578  71.072  1.00  0.00    -0.121 A  
HETATM   20  C   UNL     1      -7.330   5.538  71.105  1.00  0.00    -0.084 A  
HETATM   21  C   UNL     1      -7.462   7.366  73.190  1.00  0.00    -0.088 A  
HETATM   22  C   UNL     1      -6.528   5.361  72.229  1.00  0.00    -0.055 A  
HETATM   23  C   UNL     1      -6.566   6.294  73.258  1.00  0.00    -0.073 A  
ENDBRANCH   8  17
TORSDOF 5
ENDMDL
MODEL       67
REMARK 921   NORMALIZED FREE ENERGY PREDICTED BY IDOCK:   -3.73 KCAL/MOL
REMARK 922        TOTAL FREE ENERGY PREDICTED BY IDOCK:   -5.28 KCAL/MOL
REMARK 923 INTER-LIGAND FREE ENERGY PREDICTED BY IDOCK:   -4.86 KCAL/MOL
REMARK 924 INTRA-LIGAND FREE ENERGY PREDICTED BY IDOCK:   -0.42 KCAL/MOL
REMARK 927      BINDING AFFINITY PREDICTED BY RF-SCORE:    0.00 PKD
ROOT
HETATM    1  C   UNL     1      -8.588   9.246  65.845  1.00  0.00    -0.148 C  
HETATM    2  C   UNL     1      -8.770   7.853  65.236  1.00  0.00    -0.032 C  
HETATM    3  C   UNL     1      -9.142   6.987  66.442  1.00  0.00    -0.189 C  
HETATM    4  C   UNL     1      -8.870   7.881  67.676  1.00  0.00    -0.128 C  
HETATM    5  C   UNL     1     -10.177   8.536  68.209  1.00  0.00    -0.244 C  
HETATM    6  N   UNL     1      -7.923   8.828  67.077  1.00  0.00    -0.095 NA 
HETATM    7  C   UNL     1      -9.974   9.914  66.001  1.00  0.00    -0.338 C  
HETATM    8  C   UNL     1     -10.670   9.786  67.387  1.00  0.00    -0.314 C  
ENDROOT
BRANCH   5   9
HETATM    9  C   UNL     1     -10.039   8.744  69.711  1.00  0.00    -0.196 C  
HETATM   10  O   UNL     1      -9.096   9.289  70.271  1.00  0.00    -0.197 OA 
BRANCH   9  11
HETATM   11  O   UNL     1     -11.122   8.274  70.398  1.00  0.00    -0.249 OA 
HETATM   12  C   UNL     1     -11.240   8.832  71.714  1.00  0.00    -0.340 C  
ENDBRANCH   9  11
ENDBRANCH   5   9
BRANCH   6  13
HETATM   13  C   UNL     1      -7.354   9.867  67.924  1.00  0.00    -0.088 C  
BRANCH  13  14
HETATM   14  C   UNL     1      -6.576  10.948  67.161  1.00  0.00    -0.083 C  
HETATM   15  F   UNL     1      -5.350  12.926  67.240  1.00  0.00    -0.103 F  
HETATM   16  C   UNL     1      -6.045  12.060  68.034  1.00  0.00    -0.058 C  
ENDBRANCH  13  14
ENDBRANCH   6  13
BRANCH   8  17
HETATM   17  C   UNL     1     -10.760  11.103  68.185  1.00  0.00    -0.244 A  
HETATM   18  I   UNL     1     -11.495  15.678  69.701  1.00  0.00    -0.408 I  
HETATM   19  C   UNL     1     -11.814  11.410  69.059  1.00  0.00    -0.415 A  
HETATM   20  C   UNL     1     -11.983  12.704  69.557  1.00  0.00    -0.332 A  
HETATM   21  C   UNL     1      -9.785  12.089  67.977  1.00  0.00    -0.198 A  
HETATM   22  C   UNL     1     -11.098  13.712  69.184  1.00  0.00    -0.231 A  
HETATM   23  C   UNL     1      -9.978  13.400  68.423  1.00  0.00    -0.231 A  
ENDBRANCH   8  17
TORSDOF 5
ENDMDL
MODEL       68
REMARK 921   NORMALIZED FREE ENERGY PREDICTED BY IDOCK:   -3.69 KCAL/MOL
REMARK 922        TOTAL FREE ENERGY PREDICTED BY IDOCK:   -5.23 KCAL/MOL
REMARK 923 INTER-LIGAND FREE ENERGY PREDICTED BY IDOCK:   -4.96 KCAL/MOL
REMARK 924 INTRA-LIGAND FREE ENERGY PREDICTED BY IDOCK:   -0.27 KCAL/MOL
REMARK 927      BINDING AFFINITY PREDICTED BY RF-SCORE:    0.00 PKD
ROOT
HETATM    1  C   UNL     1      -9.953  15.287  69.460  1.00  0.00    -0.242 C  
HETATM    2  C   UNL     1     -10.843  16.532  69.493  1.00  0.00    -0.315 C  
HETATM    3  C   UNL     1     -11.485  16.543  68.104  1.00  0.00    -0.037 C  
HETATM    4  C   UNL     1     -10.706  15.477  67.295  1.00  0.00    -0.308 C  
HETATM    5  C   UNL     1     -11.476  14.127  67.235  1.00  0.00    -0.371 C  
HETATM    6  N   UNL     1      -9.473  15.433  68.089  1.00  0.00    -0.201 NA 
HETATM    7  C   UNL     1     -10.818  14.040  69.760  1.00  0.00     0.064 C  
HETATM    8  C   UNL     1     -11.366  13.248  68.538  1.00  0.00    -0.319 C  
ENDROOT
BRANCH   5   9
HETATM    9  C   UNL     1     -11.125  13.425  65.930  1.00  0.00    -0.280 C  
HETATM   10  O   UNL     1      -9.992  13.205  65.521  1.00  0.00    -0.272 OA 
BRANCH   9  11
HETATM   11  O   UNL     1     -12.237  13.021  65.247  1.00  0.00    -0.412 OA 
HETATM   12  C   UNL     1     -12.516  13.828  64.095  1.00  0.00    -0.240 C  
ENDBRANCH   9  11
ENDBRANCH   5   9
BRANCH   6  13
HETATM   13  C   UNL     1      -8.399  14.553  67.650  1.00  0.00    -0.180 C  
BRANCH  13  14
HETATM   14  C   UNL     1      -7.033  15.241  67.516  1.00  0.00    -0.225 C  
HETATM   15  F   UNL     1      -5.830  17.225  67.331  1.00  0.00    -0.122 F  
HETATM   16  C   UNL     1      -7.105  16.745  67.408  1.00  0.00    -0.156 C  
ENDBRANCH  13  14
ENDBRANCH   6  13
BRANCH   8  17
HETATM   17  C   UNL     1     -10.733  11.855  68.337  1.00  0.00    -0.248 A  
HETATM   18  I   UNL     1      -8.708   7.786  66.573  1.00  0.00    -0.203 I  
HETATM   19  C   UNL     1      -9.369  11.587  68.533  1.00  0.00    -0.171 A  
HETATM   20  C   UNL     1      -8.800  10.388  68.097  1.00  0.00    -0.132 A  
HETATM   21  C   UNL     1     -11.534  10.809  67.858  1.00  0.00    -0.306 A  
HETATM   22  C   UNL     1      -9.591   9.439  67.455  1.00  0.00    -0.141 A  
HETATM   23  C   UNL     1     -10.965   9.631  67.366  1.00  0.00    -0.139 A  
ENDBRANCH   8  17
TORSDOF 5
ENDMDL
MODEL       69
REMARK 921   NORMALIZED FREE ENERGY PREDICTED BY IDOCK:   -3.69 KCAL/MOL
REMARK 922        TOTAL FREE ENERGY PREDICTED BY IDOCK:   -5.22 KCAL/MOL
REMARK 923 INTER-LIGAND FREE ENERGY PREDICTED BY IDOCK:   -4.91 KCAL/MOL
REMARK 924 INTRA-LIGAND FREE ENERGY PREDICTED BY IDOCK:   -0.31 KCAL/MOL
REMARK 927      BINDING AFFINITY PREDICTED BY RF-SCORE:    0.00 PKD
ROOT
HETATM    1  C   UNL     1      -9.582   6.849  69.249  1.00  0.00    -0.149 C  
HETATM    2  C   UNL     1     -10.196   5.582  68.648  1.00  0.00    -0.261 C  
HETATM    3  C   UNL     1     -10.891   6.093  67.384  1.00  0.00    -0.431 C  
HETATM    4  C   UNL     1     -10.862   7.636  67.507  1.00  0.00    -0.135 C  
HETATM    5  C   UNL     1      -9.703   8.256  66.675  1.00  0.00    -0.321 C  
HETATM    6  N   UNL     1     -10.692   7.753  68.959  1.00  0.00    -0.157 NA 
HETATM    7  C   UNL     1      -8.243   7.149  68.535  1.00  0.00    -0.125 C  
HETATM    8  C   UNL     1      -8.282   8.156  67.350  1.00  0.00    -0.122 C  
ENDROOT
BRANCH   5   9
HETATM    9  C   UNL     1     -10.123   9.646  66.218  1.00  0.00    -0.252 C  
HETATM   10  O   UNL     1     -10.634  10.505  66.926  1.00  0.00    -0.248 OA 
BRANCH   9  11
HETATM   11  O   UNL     1      -9.836   9.864  64.901  1.00  0.00    -0.315 OA 
HETATM   12  C   UNL     1     -10.347  11.111  64.410  1.00  0.00    -0.344 C  
ENDBRANCH   9  11
ENDBRANCH   5   9
BRANCH   6  13
HETATM   13  C   UNL     1     -10.650   9.085  69.546  1.00  0.00    -0.225 C  
BRANCH  13  14
HETATM   14  C   UNL     1     -10.998   9.130  71.040  1.00  0.00    -0.375 C  
HETATM   15  F   UNL     1     -12.487   8.566  72.739  1.00  0.00    -0.447 F  
HETATM   16  C   UNL     1     -12.320   8.488  71.387  1.00  0.00    -0.297 C  
ENDBRANCH  13  14
ENDBRANCH   6  13
BRANCH   8  17
HETATM   17  C   UNL     1      -7.593   9.506  67.630  1.00  0.00    -0.094 A  
HETATM   18  I   UNL     1      -6.377  14.214  67.997  1.00  0.00    -0.150 I  
HETATM   19  C   UNL     1      -7.664  10.174  68.863  1.00  0.00    -0.093 A  
HETATM   20  C   UNL     1      -7.245  11.500  68.990  1.00  0.00    -0.106 A  
HETATM   21  C   UNL     1      -6.920  10.154  66.583  1.00  0.00    -0.093 A  
HETATM   22  C   UNL     1      -6.749  12.179  67.880  1.00  0.00    -0.085 A  
HETATM   23  C   UNL     1      -6.551  11.499  66.685  1.00  0.00    -0.081 A  
ENDBRANCH   8  17
TORSDOF 5
ENDMDL
MODEL       70
REMARK 921   NORMALIZED FREE ENERGY PREDICTED BY IDOCK:   -3.68 KCAL/MOL
REMARK 922        TOTAL FREE ENERGY PREDICTED BY IDOCK:   -5.21 KCAL/MOL
REMARK 923 INTER-LIGAND FREE ENERGY PREDICTED BY IDOCK:   -5.09 KCAL/MOL
REMARK 924 INTRA-LIGAND FREE ENERGY PREDICTED BY IDOCK:   -0.12 KCAL/MOL
REMARK 927      BINDING AFFINITY PREDICTED BY RF-SCORE:    0.00 PKD
ROOT
HETATM    1  C   UNL     1      -9.157   7.657  66.330  1.00  0.00    -0.174 C  
HETATM    2  C   UNL     1      -8.758   6.209  66.627  1.00  0.00    -0.124 C  
HETATM    3  C   UNL     1      -8.167   6.288  68.037  1.00  0.00    -0.115 C  
HETATM    4  C   UNL     1      -8.016   7.803  68.323  1.00  0.00    -0.122 C  
HETATM    5  C   UNL     1      -9.193   8.344  69.184  1.00  0.00    -0.150 C  
HETATM    6  N   UNL     1      -7.999   8.302  66.943  1.00  0.00    -0.099 NA 
HETATM    7  C   UNL     1     -10.532   7.944  66.978  1.00  0.00    -0.419 C  
HETATM    8  C   UNL     1     -10.526   8.607  68.386  1.00  0.00    -0.220 C  
ENDROOT
BRANCH   5   9
HETATM    9  C   UNL     1      -8.685   9.507  70.026  1.00  0.00    -0.221 C  
HETATM   10  O   UNL     1      -8.318  10.593  69.595  1.00  0.00    -0.078 OA 
BRANCH   9  11
HETATM   11  O   UNL     1      -8.706   9.223  71.362  1.00  0.00    -0.317 OA 
HETATM   12  C   UNL     1      -9.713   8.267  71.720  1.00  0.00    -0.212 C  
ENDBRANCH   9  11
ENDBRANCH   5   9
BRANCH   6  13
HETATM   13  C   UNL     1      -7.829   9.732  66.727  1.00  0.00    -0.102 C  
BRANCH  13  14
HETATM   14  C   UNL     1      -7.945  10.168  65.260  1.00  0.00    -0.145 C  
HETATM   15  F   UNL     1      -6.974  10.270  63.146  1.00  0.00    -0.131 F  
HETATM   16  C   UNL     1      -6.723   9.866  64.426  1.00  0.00    -0.125 C  
ENDBRANCH  13  14
ENDBRANCH   6  13
BRANCH   8  17
HETATM   17  C   UNL     1     -11.029  10.065  68.412  1.00  0.00    -0.266 A  
HETATM   18  I   UNL     1     -11.607  14.862  69.069  1.00  0.00    -0.353 I  
HETATM   19  C   UNL     1     -10.867  10.962  67.345  1.00  0.00    -0.333 A  
HETATM   20  C   UNL     1     -11.106  12.328  67.508  1.00  0.00    -0.326 A  
HETATM   21  C   UNL     1     -11.612  10.560  69.588  1.00  0.00    -0.342 A  
HETATM   22  C   UNL     1     -11.510  12.818  68.748  1.00  0.00    -0.304 A  
HETATM   23  C   UNL     1     -11.798  11.932  69.779  1.00  0.00    -0.411 A  
ENDBRANCH   8  17
TORSDOF 5
ENDMDL
MODEL       71
REMARK 921   NORMALIZED FREE ENERGY PREDICTED BY IDOCK:   -3.66 KCAL/MOL
REMARK 922        TOTAL FREE ENERGY PREDICTED BY IDOCK:   -5.18 KCAL/MOL
REMARK 923 INTER-LIGAND FREE ENERGY PREDICTED BY IDOCK:   -4.93 KCAL/MOL
REMARK 924 INTRA-LIGAND FREE ENERGY PREDICTED BY IDOCK:   -0.25 KCAL/MOL
REMARK 927      BINDING AFFINITY PREDICTED BY RF-SCORE:    0.00 PKD
ROOT
HETATM    1  C   UNL     1      -7.388   8.111  67.680  1.00  0.00    -0.093 C  
HETATM    2  C   UNL     1      -6.256   8.987  67.137  1.00  0.00    -0.059 C  
HETATM    3  C   UNL     1      -6.937  10.336  66.898  1.00  0.00    -0.091 C  
HETATM    4  C   UNL     1      -8.451  10.053  67.053  1.00  0.00    -0.125 C  
HETATM    5  C   UNL     1      -8.970  10.457  68.463  1.00  0.00    -0.139 C  
HETATM    6  N   UNL     1      -8.447   8.607  66.804  1.00  0.00    -0.114 NA 
HETATM    7  C   UNL     1      -7.558   8.386  69.192  1.00  0.00    -0.087 C  
HETATM    8  C   UNL     1      -8.639   9.425  69.607  1.00  0.00    -0.171 C  
ENDROOT
BRANCH   5   9
HETATM    9  C   UNL     1     -10.431  10.869  68.344  1.00  0.00    -0.183 C  
HETATM   10  O   UNL     1     -11.306  10.234  67.768  1.00  0.00    -0.322 OA 
BRANCH   9  11
HETATM   11  O   UNL     1     -10.689  12.044  68.991  1.00  0.00    -0.206 OA 
HETATM   12  C   UNL     1     -11.581  12.903  68.267  1.00  0.00    -0.335 C  
ENDBRANCH   9  11
ENDBRANCH   5   9
BRANCH   6  13
HETATM   13  C   UNL     1      -9.720   7.899  66.815  1.00  0.00    -0.234 C  
BRANCH  13  14
HETATM   14  C   UNL     1      -9.611   6.399  66.509  1.00  0.00    -0.185 C  
HETATM   15  F   UNL     1     -10.673   4.333  66.354  1.00  0.00    -0.161 F  
HETATM   16  C   UNL     1     -10.902   5.635  66.689  1.00  0.00    -0.204 C  
ENDBRANCH  13  14
ENDBRANCH   6  13
BRANCH   8  17
HETATM   17  C   UNL     1      -9.866   8.826  70.324  1.00  0.00    -0.198 A  
HETATM   18  I   UNL     1     -14.337   7.489  71.737  1.00  0.00    -0.401 I  
HETATM   19  C   UNL     1     -10.326   7.516  70.113  1.00  0.00    -0.217 A  
HETATM   20  C   UNL     1     -11.575   7.107  70.584  1.00  0.00    -0.354 A  
HETATM   21  C   UNL     1     -10.621   9.646  71.175  1.00  0.00    -0.327 A  
HETATM   22  C   UNL     1     -12.386   8.006  71.272  1.00  0.00    -0.271 A  
HETATM   23  C   UNL     1     -11.897   9.264  71.601  1.00  0.00    -0.453 A  
ENDBRANCH   8  17
TORSDOF 5
ENDMDL
MODEL       72
REMARK 921   NORMALIZED FREE ENERGY PREDICTED BY IDOCK:   -3.66 KCAL/MOL
REMARK 922        TOTAL FREE ENERGY PREDICTED BY IDOCK:   -5.18 KCAL/MOL
REMARK 923 INTER-LIGAND FREE ENERGY PREDICTED BY IDOCK:   -5.04 KCAL/MOL
REMARK 924 INTRA-LIGAND FREE ENERGY PREDICTED BY IDOCK:   -0.15 KCAL/MOL
REMARK 927      BINDING AFFINITY PREDICTED BY RF-SCORE:    0.00 PKD
ROOT
HETATM    1  C   UNL     1      -8.447  12.633  66.737  1.00  0.00    -0.049 C  
HETATM    2  C   UNL     1      -8.440  14.155  66.903  1.00  0.00    -0.117 C  
HETATM    3  C   UNL     1      -9.693  14.426  67.738  1.00  0.00    -0.221 C  
HETATM    4  C   UNL     1     -10.466  13.084  67.746  1.00  0.00    -0.228 C  
HETATM    5  C   UNL     1     -10.213  12.284  69.057  1.00  0.00     0.063 C  
HETATM    6  N   UNL     1      -9.886  12.471  66.545  1.00  0.00    -0.240 NA 
HETATM    7  C   UNL     1      -7.843  11.984  68.004  1.00  0.00    -0.145 C  
HETATM    8  C   UNL     1      -8.838  11.516  69.104  1.00  0.00     0.263 C  
ENDROOT
BRANCH   5   9
HETATM    9  C   UNL     1     -11.450  11.450  69.363  1.00  0.00    -0.310 C  
HETATM   10  O   UNL     1     -12.259  11.046  68.537  1.00  0.00    -0.582 OA 
BRANCH   9  11
HETATM   11  O   UNL     1     -11.557  11.156  70.692  1.00  0.00    -0.286 OA 
HETATM   12  C   UNL     1     -12.679  10.316  70.996  1.00  0.00    -0.396 C  
ENDBRANCH   9  11
ENDBRANCH   5   9
BRANCH   6  13
HETATM   13  C   UNL     1     -10.371  11.161  66.135  1.00  0.00    -0.250 C  
BRANCH  13  14
HETATM   14  C   UNL     1     -10.990  11.127  64.731  1.00  0.00    -0.218 C  
HETATM   15  F   UNL     1     -12.408  12.118  63.173  1.00  0.00    -0.579 F  
HETATM   16  C   UNL     1     -11.964  12.247  64.457  1.00  0.00    -0.383 C  
ENDBRANCH  13  14
ENDBRANCH   6  13
BRANCH   8  17
HETATM   17  C   UNL     1      -8.948   9.986  69.263  1.00  0.00    -0.186 A  
HETATM   18  I   UNL     1     -10.330   5.417  70.260  1.00  0.00    -0.269 I  
HETATM   19  C   UNL     1      -9.388   9.128  68.243  1.00  0.00    -0.141 A  
HETATM   20  C   UNL     1      -9.712   7.796  68.510  1.00  0.00    -0.165 A  
HETATM   21  C   UNL     1      -8.672   9.413  70.513  1.00  0.00    -0.276 A  
HETATM   22  C   UNL     1      -9.601   7.303  69.807  1.00  0.00    -0.162 A  
HETATM   23  C   UNL     1      -9.048   8.098  70.804  1.00  0.00    -0.159 A  
ENDBRANCH   8  17
TORSDOF 5
ENDMDL
MODEL       73
REMARK 921   NORMALIZED FREE ENERGY PREDICTED BY IDOCK:   -3.66 KCAL/MOL
REMARK 922        TOTAL FREE ENERGY PREDICTED BY IDOCK:   -5.18 KCAL/MOL
REMARK 923 INTER-LIGAND FREE ENERGY PREDICTED BY IDOCK:   -4.82 KCAL/MOL
REMARK 924 INTRA-LIGAND FREE ENERGY PREDICTED BY IDOCK:   -0.36 KCAL/MOL
REMARK 927      BINDING AFFINITY PREDICTED BY RF-SCORE:    0.00 PKD
ROOT
HETATM    1  C   UNL     1      -9.347   6.553  67.346  1.00  0.00    -0.121 C  
HETATM    2  C   UNL     1      -9.919   5.305  68.024  1.00  0.00    -0.202 C  
HETATM    3  C   UNL     1     -10.153   5.763  69.465  1.00  0.00    -0.278 C  
HETATM    4  C   UNL     1      -9.443   7.135  69.570  1.00  0.00    -0.151 C  
HETATM    5  C   UNL     1     -10.448   8.314  69.421  1.00  0.00    -0.224 C  
HETATM    6  N   UNL     1      -8.503   7.000  68.451  1.00  0.00    -0.123 NA 
HETATM    7  C   UNL     1     -10.512   7.488  66.945  1.00  0.00    -0.385 C  
HETATM    8  C   UNL     1     -10.879   8.628  67.939  1.00  0.00    -0.061 C  
ENDROOT
BRANCH   5   9
HETATM    9  C   UNL     1      -9.929   9.498  70.226  1.00  0.00    -0.259 C  
HETATM   10  O   UNL     1      -8.755   9.831  70.328  1.00  0.00    -0.209 OA 
BRANCH   9  11
HETATM   11  O   UNL     1     -10.939  10.200  70.819  1.00  0.00    -0.320 OA 
HETATM   12  C   UNL     1     -11.864   9.366  71.530  1.00  0.00    -0.385 C  
ENDBRANCH   9  11
ENDBRANCH   5   9
BRANCH   6  13
HETATM   13  C   UNL     1      -7.572   8.089  68.194  1.00  0.00    -0.109 C  
BRANCH  13  14
HETATM   14  C   UNL     1      -6.482   7.760  67.165  1.00  0.00    -0.055 C  
HETATM   15  F   UNL     1      -5.357   8.362  65.218  1.00  0.00    -0.034 F  
HETATM   16  C   UNL     1      -6.379   8.754  66.033  1.00  0.00    -0.057 C  
ENDBRANCH  13  14
ENDBRANCH   6  13
BRANCH   8  17
HETATM   17  C   UNL     1     -10.538  10.048  67.443  1.00  0.00    -0.330 A  
HETATM   18  I   UNL     1      -9.173  14.709  67.009  1.00  0.00    -0.288 I  
HETATM   19  C   UNL     1      -9.316  10.387  66.839  1.00  0.00    -0.186 A  
HETATM   20  C   UNL     1      -8.955  11.722  66.643  1.00  0.00    -0.195 A  
HETATM   21  C   UNL     1     -11.454  11.085  67.673  1.00  0.00    -0.303 A  
HETATM   22  C   UNL     1      -9.813  12.739  67.052  1.00  0.00    -0.231 A  
HETATM   23  C   UNL     1     -11.078  12.424  67.534  1.00  0.00    -0.313 A  
ENDBRANCH   8  17
TORSDOF 5
ENDMDL
MODEL       74
REMARK 921   NORMALIZED FREE ENERGY PREDICTED BY IDOCK:   -3.64 KCAL/MOL
REMARK 922        TOTAL FREE ENERGY PREDICTED BY IDOCK:   -5.16 KCAL/MOL
REMARK 923 INTER-LIGAND FREE ENERGY PREDICTED BY IDOCK:   -4.81 KCAL/MOL
REMARK 924 INTRA-LIGAND FREE ENERGY PREDICTED BY IDOCK:   -0.34 KCAL/MOL
REMARK 927      BINDING AFFINITY PREDICTED BY RF-SCORE:    0.00 PKD
ROOT
HETATM    1  C   UNL     1     -10.934   8.690  72.194  1.00  0.00    -0.364 C  
HETATM    2  C   UNL     1     -11.733   7.528  72.790  1.00  0.00    -0.232 C  
HETATM    3  C   UNL     1     -11.971   6.610  71.589  1.00  0.00    -0.395 C  
HETATM    4  C   UNL     1     -11.541   7.444  70.357  1.00  0.00    -0.183 C  
HETATM    5  C   UNL     1     -10.104   7.073  69.888  1.00  0.00    -0.202 C  
HETATM    6  N   UNL     1     -11.659   8.789  70.930  1.00  0.00    -0.282 NA 
HETATM    7  C   UNL     1      -9.444   8.284  72.104  1.00  0.00    -0.328 C  
HETATM    8  C   UNL     1      -8.947   7.709  70.747  1.00  0.00    -0.149 C  
ENDROOT
BRANCH   5   9
HETATM    9  C   UNL     1     -10.012   7.296  68.384  1.00  0.00    -0.161 C  
HETATM   10  O   UNL     1     -10.565   8.194  67.761  1.00  0.00    -0.222 OA 
BRANCH   9  11
HETATM   11  O   UNL     1      -9.198   6.383  67.777  1.00  0.00    -0.116 OA 
HETATM   12  C   UNL     1      -8.743   6.804  66.484  1.00  0.00    -0.136 C  
ENDBRANCH   9  11
ENDBRANCH   5   9
BRANCH   6  13
HETATM   13  C   UNL     1     -11.375   9.933  70.074  1.00  0.00    -0.249 C  
BRANCH  13  14
HETATM   14  C   UNL     1     -11.918  11.268  70.602  1.00  0.00    -0.435 C  
HETATM   15  F   UNL     1     -12.306  13.532  70.221  1.00  0.00    -0.359 F  
HETATM   16  C   UNL     1     -11.753  12.425  69.646  1.00  0.00    -0.307 C  
ENDBRANCH  13  14
ENDBRANCH   6  13
BRANCH   8  17
HETATM   17  C   UNL     1      -7.985   8.632  69.971  1.00  0.00    -0.106 A  
HETATM   18  I   UNL     1      -5.513  11.116  66.581  1.00  0.00    -0.129 I  
HETATM   19  C   UNL     1      -8.213  10.003  69.774  1.00  0.00    -0.191 A  
HETATM   20  C   UNL     1      -7.455  10.736  68.859  1.00  0.00    -0.116 A  
HETATM   21  C   UNL     1      -6.856   8.071  69.356  1.00  0.00    -0.047 A  
HETATM   22  C   UNL     1      -6.456  10.104  68.123  1.00  0.00    -0.057 A  
HETATM   23  C   UNL     1      -6.130   8.781  68.395  1.00  0.00    -0.050 A  
ENDBRANCH   8  17
TORSDOF 5
ENDMDL
MODEL       75
REMARK 921   NORMALIZED FREE ENERGY PREDICTED BY IDOCK:   -3.63 KCAL/MOL
REMARK 922        TOTAL FREE ENERGY PREDICTED BY IDOCK:   -5.15 KCAL/MOL
REMARK 923 INTER-LIGAND FREE ENERGY PREDICTED BY IDOCK:   -5.14 KCAL/MOL
REMARK 924 INTRA-LIGAND FREE ENERGY PREDICTED BY IDOCK:   -0.01 KCAL/MOL
REMARK 927      BINDING AFFINITY PREDICTED BY RF-SCORE:    0.00 PKD
ROOT
HETATM    1  C   UNL     1      -9.142   9.014  64.876  1.00  0.00    -0.072 C  
HETATM    2  C   UNL     1      -7.837   8.464  64.295  1.00  0.00    -0.143 C  
HETATM    3  C   UNL     1      -6.760   9.298  64.994  1.00  0.00    -0.078 C  
HETATM    4  C   UNL     1      -7.534  10.438  65.700  1.00  0.00    -0.149 C  
HETATM    5  C   UNL     1      -7.755  10.132  67.209  1.00  0.00    -0.095 C  
HETATM    6  N   UNL     1      -8.761  10.424  64.896  1.00  0.00    -0.178 NA 
HETATM    7  C   UNL     1      -9.403   8.350  66.248  1.00  0.00    -0.283 C  
HETATM    8  C   UNL     1      -8.927   9.123  67.512  1.00  0.00    -0.131 C  
ENDROOT
BRANCH   5   9
HETATM    9  C   UNL     1      -7.803  11.450  67.971  1.00  0.00    -0.121 C  
HETATM   10  O   UNL     1      -7.751  11.572  69.188  1.00  0.00    -0.080 OA 
BRANCH   9  11
HETATM   11  O   UNL     1      -7.880  12.526  67.133  1.00  0.00    -0.169 OA 
HETATM   12  C   UNL     1      -8.526  13.659  67.728  1.00  0.00    -0.183 C  
ENDBRANCH   9  11
ENDBRANCH   5   9
BRANCH   6  13
HETATM   13  C   UNL     1      -9.798  11.400  65.199  1.00  0.00    -0.260 C  
BRANCH  13  14
HETATM   14  C   UNL     1     -10.957  11.423  64.193  1.00  0.00    -0.411 C  
HETATM   15  F   UNL     1     -12.699  12.618  63.214  1.00  0.00    -0.505 F  
HETATM   16  C   UNL     1     -11.729  12.721  64.167  1.00  0.00    -0.401 C  
ENDBRANCH  13  14
ENDBRANCH   6  13
BRANCH   8  17
HETATM   17  C   UNL     1     -10.065   9.684  68.389  1.00  0.00    -0.199 A  
HETATM   18  I   UNL     1     -12.816  12.182  71.545  1.00  0.00     0.049 I  
HETATM   19  C   UNL     1     -11.000  10.628  67.937  1.00  0.00    -0.351 A  
HETATM   20  C   UNL     1     -11.844  11.291  68.831  1.00  0.00    -0.413 A  
HETATM   21  C   UNL     1     -10.135   9.299  69.735  1.00  0.00    -0.218 A  
HETATM   22  C   UNL     1     -11.762  11.018  70.194  1.00  0.00    -0.356 A  
HETATM   23  C   UNL     1     -10.935   9.997  70.645  1.00  0.00    -0.392 A  
ENDBRANCH   8  17
TORSDOF 5
ENDMDL
MODEL       76
REMARK 921   NORMALIZED FREE ENERGY PREDICTED BY IDOCK:   -3.62 KCAL/MOL
REMARK 922        TOTAL FREE ENERGY PREDICTED BY IDOCK:   -5.13 KCAL/MOL
REMARK 923 INTER-LIGAND FREE ENERGY PREDICTED BY IDOCK:   -4.84 KCAL/MOL
REMARK 924 INTRA-LIGAND FREE ENERGY PREDICTED BY IDOCK:   -0.29 KCAL/MOL
REMARK 927      BINDING AFFINITY PREDICTED BY RF-SCORE:    0.00 PKD
ROOT
HETATM    1  C   UNL     1      -7.643   5.249  68.554  1.00  0.00    -0.079 C  
HETATM    2  C   UNL     1      -6.316   5.529  67.844  1.00  0.00    -0.042 C  
HETATM    3  C   UNL     1      -6.605   6.801  67.044  1.00  0.00    -0.044 C  
HETATM    4  C   UNL     1      -8.139   6.989  67.134  1.00  0.00    -0.118 C  
HETATM    5  C   UNL     1      -8.527   8.029  68.225  1.00  0.00    -0.123 C  
HETATM    6  N   UNL     1      -8.528   5.611  67.450  1.00  0.00    -0.107 NA 
HETATM    7  C   UNL     1      -7.731   6.126  69.825  1.00  0.00    -0.097 C  
HETATM    8  C   UNL     1      -8.489   7.479  69.701  1.00  0.00    -0.135 C  
ENDROOT
BRANCH   5   9
HETATM    9  C   UNL     1      -9.821   8.713  67.806  1.00  0.00    -0.175 C  
HETATM   10  O   UNL     1     -10.798   8.155  67.323  1.00  0.00    -0.248 OA 
BRANCH   9  11
HETATM   11  O   UNL     1      -9.800  10.055  68.058  1.00  0.00    -0.139 OA 
HETATM   12  C   UNL     1     -11.105  10.650  68.059  1.00  0.00    -0.301 C  
ENDBRANCH   9  11
ENDBRANCH   5   9
BRANCH   6  13
HETATM   13  C   UNL     1      -9.945   5.306  67.591  1.00  0.00    -0.165 C  
BRANCH  13  14
HETATM   14  C   UNL     1     -10.670   5.042  66.264  1.00  0.00    -0.262 C  
HETATM   15  F   UNL     1     -10.728   3.897  64.238  1.00  0.00    -0.245 F  
HETATM   16  C   UNL     1      -9.963   4.065  65.356  1.00  0.00    -0.179 C  
ENDBRANCH  13  14
ENDBRANCH   6  13
BRANCH   8  17
HETATM   17  C   UNL     1      -9.832   7.536  70.457  1.00  0.00    -0.183 A  
HETATM   18  I   UNL     1     -14.396   8.399  71.940  1.00  0.00    -0.431 I  
HETATM   19  C   UNL     1     -10.819   6.543  70.361  1.00  0.00    -0.326 A  
HETATM   20  C   UNL     1     -12.108   6.758  70.854  1.00  0.00    -0.421 A  
HETATM   21  C   UNL     1     -10.131   8.671  71.223  1.00  0.00    -0.312 A  
HETATM   22  C   UNL     1     -12.428   7.975  71.450  1.00  0.00    -0.301 A  
HETATM   23  C   UNL     1     -11.433   8.920  71.669  1.00  0.00    -0.409 A  
ENDBRANCH   8  17
TORSDOF 5
ENDMDL
MODEL       77
REMARK 921   NORMALIZED FREE ENERGY PREDICTED BY IDOCK:   -3.58 KCAL/MOL
REMARK 922        TOTAL FREE ENERGY PREDICTED BY IDOCK:   -5.08 KCAL/MOL
REMARK 923 INTER-LIGAND FREE ENERGY PREDICTED BY IDOCK:   -5.04 KCAL/MOL
REMARK 924 INTRA-LIGAND FREE ENERGY PREDICTED BY IDOCK:   -0.04 KCAL/MOL
REMARK 927      BINDING AFFINITY PREDICTED BY RF-SCORE:    0.00 PKD
ROOT
HETATM    1  C   UNL     1      -9.756   5.860  66.516  1.00  0.00    -0.155 C  
HETATM    2  C   UNL     1      -9.855   4.643  67.440  1.00  0.00    -0.207 C  
HETATM    3  C   UNL     1      -9.202   5.129  68.735  1.00  0.00    -0.152 C  
HETATM    4  C   UNL     1      -8.533   6.476  68.365  1.00  0.00    -0.120 C  
HETATM    5  C   UNL     1      -9.413   7.688  68.787  1.00  0.00    -0.152 C  
HETATM    6  N   UNL     1      -8.419   6.291  66.914  1.00  0.00    -0.109 NA 
HETATM    7  C   UNL     1     -10.917   6.830  66.833  1.00  0.00    -0.370 C  
HETATM    8  C   UNL     1     -10.617   7.996  67.818  1.00  0.00    -0.239 C  
ENDROOT
BRANCH   5   9
HETATM    9  C   UNL     1      -8.500   8.865  69.104  1.00  0.00    -0.132 C  
HETATM   10  O   UNL     1      -7.885   9.531  68.281  1.00  0.00    -0.086 OA 
BRANCH   9  11
HETATM   11  O   UNL     1      -8.454   9.135  70.442  1.00  0.00    -0.157 OA 
HETATM   12  C   UNL     1      -9.721   8.975  71.094  1.00  0.00    -0.299 C  
ENDBRANCH   9  11
ENDBRANCH   5   9
BRANCH   6  13
HETATM   13  C   UNL     1      -7.786   7.343  66.130  1.00  0.00    -0.094 C  
BRANCH  13  14
HETATM   14  C   UNL     1      -7.617   7.008  64.642  1.00  0.00    -0.106 C  
HETATM   15  F   UNL     1      -7.527   7.768  62.444  1.00  0.00    -0.084 F  
HETATM   16  C   UNL     1      -7.731   8.199  63.722  1.00  0.00    -0.142 C  
ENDBRANCH  13  14
ENDBRANCH   6  13
BRANCH   8  17
HETATM   17  C   UNL     1     -10.596   9.396  67.171  1.00  0.00    -0.294 A  
HETATM   18  I   UNL     1     -11.492  13.422  64.570  1.00  0.00    -0.456 I  
HETATM   19  C   UNL     1     -11.131  10.542  67.780  1.00  0.00    -0.382 A  
HETATM   20  C   UNL     1     -11.319  11.722  67.057  1.00  0.00    -0.387 A  
HETATM   21  C   UNL     1     -10.090   9.533  65.870  1.00  0.00    -0.284 A  
HETATM   22  C   UNL     1     -10.973  11.771  65.709  1.00  0.00    -0.301 A  
HETATM   23  C   UNL     1     -10.325  10.691  65.122  1.00  0.00    -0.331 A  
ENDBRANCH   8  17
TORSDOF 5
ENDMDL
MODEL       78
REMARK 921   NORMALIZED FREE ENERGY PREDICTED BY IDOCK:   -3.55 KCAL/MOL
REMARK 922        TOTAL FREE ENERGY PREDICTED BY IDOCK:   -5.04 KCAL/MOL
REMARK 923 INTER-LIGAND FREE ENERGY PREDICTED BY IDOCK:   -4.87 KCAL/MOL
REMARK 924 INTRA-LIGAND FREE ENERGY PREDICTED BY IDOCK:   -0.17 KCAL/MOL
REMARK 927      BINDING AFFINITY PREDICTED BY RF-SCORE:    0.00 PKD
ROOT
HETATM    1  C   UNL     1      -7.569  18.276  66.198  1.00  0.00    -0.241 C  
HETATM    2  C   UNL     1      -6.294  18.260  65.352  1.00  0.00    -0.233 C  
HETATM    3  C   UNL     1      -5.415  17.224  66.056  1.00  0.00     0.030 C  
HETATM    4  C   UNL     1      -6.133  16.937  67.398  1.00  0.00    -0.152 C  
HETATM    5  C   UNL     1      -6.977  15.632  67.329  1.00  0.00    -0.224 C  
HETATM    6  N   UNL     1      -6.929  18.164  67.506  1.00  0.00    -0.196 NA 
HETATM    7  C   UNL     1      -8.474  17.097  65.770  1.00  0.00     0.213 C  
HETATM    8  C   UNL     1      -8.364  15.783  66.596  1.00  0.00    -0.319 C  
ENDROOT
BRANCH   5   9
HETATM    9  C   UNL     1      -7.026  15.011  68.719  1.00  0.00    -0.107 C  
HETATM   10  O   UNL     1      -7.136  15.627  69.771  1.00  0.00    -0.185 OA 
BRANCH   9  11
HETATM   11  O   UNL     1      -6.966  13.647  68.676  1.00  0.00    -0.091 OA 
HETATM   12  C   UNL     1      -6.026  13.095  69.608  1.00  0.00    -0.116 C  
ENDBRANCH   9  11
ENDBRANCH   5   9
BRANCH   6  13
HETATM   13  C   UNL     1      -7.764  18.346  68.686  1.00  0.00    -0.301 C  
BRANCH  13  14
HETATM   14  C   UNL     1      -8.512  19.685  68.731  1.00  0.00    -0.274 C  
HETATM   15  F   UNL     1     -10.515  20.819  69.083  1.00  0.00    -0.262 F  
HETATM   16  C   UNL     1      -9.985  19.562  69.039  1.00  0.00    -0.414 C  
ENDBRANCH  13  14
ENDBRANCH   6  13
BRANCH   8  17
HETATM   17  C   UNL     1      -9.601  15.461  67.460  1.00  0.00    -0.206 A  
HETATM   18  I   UNL     1     -12.698  14.062  70.957  1.00  0.00    -0.377 I  
HETATM   19  C   UNL     1     -10.255  16.409  68.263  1.00  0.00    -0.255 A  
HETATM   20  C   UNL     1     -11.201  16.018  69.214  1.00  0.00    -0.346 A  
HETATM   21  C   UNL     1     -10.060  14.137  67.519  1.00  0.00    -0.236 A  
HETATM   22  C   UNL     1     -11.503  14.669  69.376  1.00  0.00    -0.296 A  
HETATM   23  C   UNL     1     -10.962  13.730  68.507  1.00  0.00    -0.283 A  
ENDBRANCH   8  17
TORSDOF 5
ENDMDL
MODEL       79
REMARK 921   NORMALIZED FREE ENERGY PREDICTED BY IDOCK:   -3.54 KCAL/MOL
REMARK 922        TOTAL FREE ENERGY PREDICTED BY IDOCK:   -5.04 KCAL/MOL
REMARK 923 INTER-LIGAND FREE ENERGY PREDICTED BY IDOCK:   -5.53 KCAL/MOL
REMARK 924 INTRA-LIGAND FREE ENERGY PREDICTED BY IDOCK:    0.49 KCAL/MOL
REMARK 927      BINDING AFFINITY PREDICTED BY RF-SCORE:    0.00 PKD
ROOT
HETATM    1  C   UNL     1     -12.558   7.706  72.202  1.00  0.00    -0.187 C  
HETATM    2  C   UNL     1     -13.407   8.975  72.320  1.00  0.00    -0.523 C  
HETATM    3  C   UNL     1     -12.536  10.045  71.659  1.00  0.00    -0.513 C  
HETATM    4  C   UNL     1     -11.153   9.375  71.470  1.00  0.00    -0.376 C  
HETATM    5  C   UNL     1     -10.964   8.850  70.017  1.00  0.00    -0.217 C  
HETATM    6  N   UNL     1     -11.263   8.319  72.483  1.00  0.00    -0.380 NA 
HETATM    7  C   UNL     1     -12.744   7.103  70.790  1.00  0.00    -0.133 C  
HETATM    8  C   UNL     1     -11.690   7.485  69.711  1.00  0.00     0.298 C  
ENDROOT
BRANCH   5   9
HETATM    9  C   UNL     1      -9.483   8.905  69.670  1.00  0.00    -0.168 C  
HETATM   10  O   UNL     1      -8.567   9.036  70.472  1.00  0.00    -0.160 OA 
BRANCH   9  11
HETATM   11  O   UNL     1      -9.262   8.758  68.330  1.00  0.00    -0.138 OA 
HETATM   12  C   UNL     1      -7.945   8.279  68.024  1.00  0.00    -0.123 C  
ENDBRANCH   9  11
ENDBRANCH   5   9
BRANCH   6  13
HETATM   13  C   UNL     1     -10.124   7.434  72.685  1.00  0.00    -0.208 C  
BRANCH  13  14
HETATM   14  C   UNL     1     -10.309   6.415  73.818  1.00  0.00    -0.326 C  
HETATM   15  F   UNL     1     -10.767   4.220  74.445  1.00  0.00    -0.262 F  
HETATM   16  C   UNL     1     -10.668   5.025  73.348  1.00  0.00    -0.273 C  
ENDBRANCH  13  14
ENDBRANCH   6  13
BRANCH   8  17
HETATM   17  C   UNL     1     -10.761   6.330  69.283  1.00  0.00    -0.367 A  
HETATM   18  I   UNL     1      -8.802   2.033  68.071  1.00  0.00    -0.220 I  
HETATM   19  C   UNL     1     -10.469   6.025  67.944  1.00  0.00    -0.294 A  
HETATM   20  C   UNL     1      -9.838   4.827  67.599  1.00  0.00    -0.201 A  
HETATM   21  C   UNL     1     -10.235   5.482  70.268  1.00  0.00    -0.326 A  
HETATM   22  C   UNL     1      -9.491   3.916  68.593  1.00  0.00    -0.150 A  
HETATM   23  C   UNL     1      -9.655   4.256  69.930  1.00  0.00    -0.279 A  
ENDBRANCH   8  17
TORSDOF 5
ENDMDL
MODEL       80
REMARK 921   NORMALIZED FREE ENERGY PREDICTED BY IDOCK:   -3.53 KCAL/MOL
REMARK 922        TOTAL FREE ENERGY PREDICTED BY IDOCK:   -5.02 KCAL/MOL
REMARK 923 INTER-LIGAND FREE ENERGY PREDICTED BY IDOCK:   -4.67 KCAL/MOL
REMARK 924 INTRA-LIGAND FREE ENERGY PREDICTED BY IDOCK:   -0.35 KCAL/MOL
REMARK 927      BINDING AFFINITY PREDICTED BY RF-SCORE:    0.00 PKD
ROOT
HETATM    1  C   UNL     1      -8.437   8.973  70.757  1.00  0.00    -0.200 C  
HETATM    2  C   UNL     1      -7.848   8.177  71.924  1.00  0.00    -0.139 C  
HETATM    3  C   UNL     1      -8.401   6.767  71.705  1.00  0.00    -0.111 C  
HETATM    4  C   UNL     1      -9.478   6.927  70.604  1.00  0.00    -0.165 C  
HETATM    5  C   UNL     1      -8.929   6.531  69.203  1.00  0.00    -0.130 C  
HETATM    6  N   UNL     1      -9.762   8.358  70.758  1.00  0.00    -0.171 NA 
HETATM    7  C   UNL     1      -7.569   8.740  69.498  1.00  0.00    -0.080 C  
HETATM    8  C   UNL     1      -8.033   7.629  68.513  1.00  0.00    -0.123 C  
ENDROOT
BRANCH   5   9
HETATM    9  C   UNL     1     -10.080   5.993  68.364  1.00  0.00    -0.164 C  
HETATM   10  O   UNL     1     -11.218   6.445  68.342  1.00  0.00    -0.320 OA 
BRANCH   9  11
HETATM   11  O   UNL     1      -9.701   4.937  67.586  1.00  0.00    -0.144 OA 
HETATM   12  C   UNL     1     -10.366   4.905  66.315  1.00  0.00    -0.298 C  
ENDBRANCH   9  11
ENDBRANCH   5   9
BRANCH   6  13
HETATM   13  C   UNL     1     -10.786   8.955  69.912  1.00  0.00    -0.227 C  
BRANCH  13  14
HETATM   14  C   UNL     1     -11.338  10.289  70.433  1.00  0.00    -0.410 C  
HETATM   15  F   UNL     1     -11.622  12.575  70.101  1.00  0.00    -0.346 F  
HETATM   16  C   UNL     1     -11.049  11.471  69.540  1.00  0.00    -0.191 C  
ENDBRANCH  13  14
ENDBRANCH   6  13
BRANCH   8  17
HETATM   17  C   UNL     1      -8.557   8.147  67.159  1.00  0.00    -0.124 A  
HETATM   18  I   UNL     1      -9.404  10.627  63.046  1.00  0.00    -0.408 I  
HETATM   19  C   UNL     1      -8.128   7.651  65.918  1.00  0.00    -0.122 A  
HETATM   20  C   UNL     1      -8.434   8.318  64.729  1.00  0.00    -0.089 A  
HETATM   21  C   UNL     1      -9.453   9.226  67.147  1.00  0.00    -0.191 A  
HETATM   22  C   UNL     1      -9.175   9.496  64.767  1.00  0.00    -0.205 A  
HETATM   23  C   UNL     1      -9.717   9.933  65.970  1.00  0.00    -0.310 A  
ENDBRANCH   8  17
TORSDOF 5
ENDMDL
MODEL       81
REMARK 921   NORMALIZED FREE ENERGY PREDICTED BY IDOCK:   -3.51 KCAL/MOL
REMARK 922        TOTAL FREE ENERGY PREDICTED BY IDOCK:   -5.00 KCAL/MOL
REMARK 923 INTER-LIGAND FREE ENERGY PREDICTED BY IDOCK:   -5.36 KCAL/MOL
REMARK 924 INTRA-LIGAND FREE ENERGY PREDICTED BY IDOCK:    0.37 KCAL/MOL
REMARK 927      BINDING AFFINITY PREDICTED BY RF-SCORE:    0.00 PKD
ROOT
HETATM    1  C   UNL     1     -10.606   9.492  67.101  1.00  0.00    -0.225 C  
HETATM    2  C   UNL     1     -10.342   8.254  67.963  1.00  0.00    -0.268 C  
HETATM    3  C   UNL     1      -8.994   8.562  68.618  1.00  0.00    -0.139 C  
HETATM    4  C   UNL     1      -8.462   9.809  67.871  1.00  0.00    -0.125 C  
HETATM    5  C   UNL     1      -8.732  11.116  68.672  1.00  0.00    -0.153 C  
HETATM    6  N   UNL     1      -9.237   9.691  66.632  1.00  0.00    -0.147 NA 
HETATM    7  C   UNL     1     -11.200  10.609  67.990  1.00  0.00    -0.373 C  
HETATM    8  C   UNL     1     -10.207  11.658  68.568  1.00  0.00    -0.216 C  
ENDROOT
BRANCH   5   9
HETATM    9  C   UNL     1      -7.632  12.119  68.350  1.00  0.00    -0.128 C  
HETATM   10  O   UNL     1      -7.515  13.232  68.847  1.00  0.00    -0.089 OA 
BRANCH   9  11
HETATM   11  O   UNL     1      -6.737  11.629  67.443  1.00  0.00    -0.087 OA 
HETATM   12  C   UNL     1      -5.467  12.293  67.488  1.00  0.00    -0.118 C  
ENDBRANCH   9  11
ENDBRANCH   5   9
BRANCH   6  13
HETATM   13  C   UNL     1      -9.019  10.676  65.582  1.00  0.00    -0.185 C  
BRANCH  13  14
HETATM   14  C   UNL     1      -9.929  10.508  64.358  1.00  0.00    -0.410 C  
HETATM   15  F   UNL     1     -11.647  11.366  63.040  1.00  0.00    -0.341 F  
HETATM   16  C   UNL     1     -10.933  11.621  64.175  1.00  0.00    -0.376 C  
ENDBRANCH  13  14
ENDBRANCH   6  13
BRANCH   8  17
HETATM   17  C   UNL     1     -10.345  13.073  67.968  1.00  0.00    -0.237 A  
HETATM   18  I   UNL     1      -9.790  17.743  66.681  1.00  0.00    -0.347 I  
HETATM   19  C   UNL     1      -9.904  13.417  66.681  1.00  0.00    -0.278 A  
HETATM   20  C   UNL     1      -9.816  14.752  66.282  1.00  0.00    -0.316 A  
HETATM   21  C   UNL     1     -10.865  14.100  68.768  1.00  0.00    -0.271 A  
HETATM   22  C   UNL     1     -10.169  15.765  67.169  1.00  0.00    -0.279 A  
HETATM   23  C   UNL     1     -10.727  15.442  68.400  1.00  0.00    -0.256 A  
ENDBRANCH   8  17
TORSDOF 5
ENDMDL
MODEL       82
REMARK 921   NORMALIZED FREE ENERGY PREDICTED BY IDOCK:   -3.50 KCAL/MOL
REMARK 922        TOTAL FREE ENERGY PREDICTED BY IDOCK:   -4.97 KCAL/MOL
REMARK 923 INTER-LIGAND FREE ENERGY PREDICTED BY IDOCK:   -4.52 KCAL/MOL
REMARK 924 INTRA-LIGAND FREE ENERGY PREDICTED BY IDOCK:   -0.46 KCAL/MOL
REMARK 927      BINDING AFFINITY PREDICTED BY RF-SCORE:    0.00 PKD
ROOT
HETATM    1  C   UNL     1      -9.928   5.749  72.757  1.00  0.00    -0.176 C  
HETATM    2  C   UNL     1     -10.263   6.786  73.833  1.00  0.00    -0.396 C  
HETATM    3  C   UNL     1      -9.811   8.105  73.203  1.00  0.00    -0.267 C  
HETATM    4  C   UNL     1      -9.003   7.694  71.948  1.00  0.00    -0.120 C  
HETATM    5  C   UNL     1      -9.861   7.796  70.654  1.00  0.00    -0.182 C  
HETATM    6  N   UNL     1      -8.653   6.322  72.332  1.00  0.00    -0.122 NA 
HETATM    7  C   UNL     1     -11.061   5.729  71.705  1.00  0.00    -0.290 C  
HETATM    8  C   UNL     1     -10.858   6.597  70.429  1.00  0.00    -0.316 C  
ENDROOT
BRANCH   5   9
HETATM    9  C   UNL     1      -8.941   8.121  69.485  1.00  0.00    -0.151 C  
HETATM   10  O   UNL     1      -7.911   7.522  69.202  1.00  0.00    -0.114 OA 
BRANCH   9  11
HETATM   11  O   UNL     1      -9.407   9.163  68.736  1.00  0.00    -0.139 OA 
HETATM   12  C   UNL     1      -8.708   9.323  67.495  1.00  0.00    -0.115 C  
ENDBRANCH   9  11
ENDBRANCH   5   9
BRANCH   6  13
HETATM   13  C   UNL     1      -7.828   5.538  71.424  1.00  0.00    -0.110 C  
BRANCH  13  14
HETATM   14  C   UNL     1      -7.572   4.097  71.887  1.00  0.00    -0.070 C  
HETATM   15  F   UNL     1      -6.724   1.986  71.394  1.00  0.00    -0.021 F  
HETATM   16  C   UNL     1      -6.925   3.218  70.843  1.00  0.00    -0.033 C  
ENDBRANCH  13  14
ENDBRANCH   6  13
BRANCH   8  17
HETATM   17  C   UNL     1     -10.635   5.793  69.132  1.00  0.00    -0.365 A  
HETATM   18  I   UNL     1      -9.060   4.031  64.867  1.00  0.00    -0.169 I  
HETATM   19  C   UNL     1      -9.895   4.601  69.075  1.00  0.00    -0.224 A  
HETATM   20  C   UNL     1      -9.508   4.052  67.851  1.00  0.00    -0.225 A  
HETATM   21  C   UNL     1     -11.123   6.308  67.923  1.00  0.00    -0.360 A  
HETATM   22  C   UNL     1      -9.854   4.691  66.664  1.00  0.00    -0.221 A  
HETATM   23  C   UNL     1     -10.692   5.799  66.695  1.00  0.00    -0.333 A  
ENDBRANCH   8  17
TORSDOF 5
ENDMDL
MODEL       83
REMARK 921   NORMALIZED FREE ENERGY PREDICTED BY IDOCK:   -3.47 KCAL/MOL
REMARK 922        TOTAL FREE ENERGY PREDICTED BY IDOCK:   -4.94 KCAL/MOL
REMARK 923 INTER-LIGAND FREE ENERGY PREDICTED BY IDOCK:   -4.58 KCAL/MOL
REMARK 924 INTRA-LIGAND FREE ENERGY PREDICTED BY IDOCK:   -0.36 KCAL/MOL
REMARK 927      BINDING AFFINITY PREDICTED BY RF-SCORE:    0.00 PKD
ROOT
HETATM    1  C   UNL     1     -11.109   7.628  71.795  1.00  0.00    -0.242 C  
HETATM    2  C   UNL     1     -12.391   8.266  72.334  1.00  0.00    -0.385 C  
HETATM    3  C   UNL     1     -12.396   9.652  71.684  1.00  0.00    -0.489 C  
HETATM    4  C   UNL     1     -10.990   9.804  71.055  1.00  0.00    -0.332 C  
HETATM    5  C   UNL     1     -11.006   9.494  69.531  1.00  0.00    -0.217 C  
HETATM    6  N   UNL     1     -10.263   8.817  71.863  1.00  0.00    -0.329 NA 
HETATM    7  C   UNL     1     -11.383   7.056  70.384  1.00  0.00    -0.354 C  
HETATM    8  C   UNL     1     -11.023   7.961  69.171  1.00  0.00     0.046 C  
ENDROOT
BRANCH   5   9
HETATM    9  C   UNL     1      -9.921  10.322  68.855  1.00  0.00    -0.201 C  
HETATM   10  O   UNL     1      -8.780  10.477  69.272  1.00  0.00    -0.163 OA 
BRANCH   9  11
HETATM   11  O   UNL     1     -10.347  10.870  67.679  1.00  0.00    -0.183 OA 
HETATM   12  C   UNL     1      -9.272  11.236  66.804  1.00  0.00    -0.175 C  
ENDBRANCH   9  11
ENDBRANCH   5   9
BRANCH   6  13
HETATM   13  C   UNL     1      -8.836   8.647  71.628  1.00  0.00    -0.223 C  
BRANCH  13  14
HETATM   14  C   UNL     1      -8.067   8.046  72.813  1.00  0.00    -0.205 C  
HETATM   15  F   UNL     1      -6.014   7.485  73.755  1.00  0.00    -0.061 F  
HETATM   16  C   UNL     1      -6.570   8.005  72.622  1.00  0.00    -0.078 C  
ENDBRANCH  13  14
ENDBRANCH   6  13
BRANCH   8  17
HETATM   17  C   UNL     1      -9.823   7.469  68.336  1.00  0.00    -0.173 A  
HETATM   18  I   UNL     1      -6.545   4.866  65.836  1.00  0.00    -0.047 I  
HETATM   19  C   UNL     1      -9.776   7.527  66.934  1.00  0.00    -0.272 A  
HETATM   20  C   UNL     1      -8.791   6.843  66.217  1.00  0.00    -0.161 A  
HETATM   21  C   UNL     1      -8.745   6.858  68.993  1.00  0.00    -0.131 A  
HETATM   22  C   UNL     1      -7.838   6.090  66.896  1.00  0.00    -0.101 A  
HETATM   23  C   UNL     1      -7.790   6.124  68.284  1.00  0.00    -0.104 A  
ENDBRANCH   8  17
TORSDOF 5
ENDMDL
MODEL       84
REMARK 921   NORMALIZED FREE ENERGY PREDICTED BY IDOCK:   -3.46 KCAL/MOL
REMARK 922        TOTAL FREE ENERGY PREDICTED BY IDOCK:   -4.93 KCAL/MOL
REMARK 923 INTER-LIGAND FREE ENERGY PREDICTED BY IDOCK:   -4.52 KCAL/MOL
REMARK 924 INTRA-LIGAND FREE ENERGY PREDICTED BY IDOCK:   -0.41 KCAL/MOL
REMARK 927      BINDING AFFINITY PREDICTED BY RF-SCORE:    0.00 PKD
ROOT
HETATM    1  C   UNL     1     -11.230  11.132  67.143  1.00  0.00    -0.249 C  
HETATM    2  C   UNL     1     -11.030  12.353  66.241  1.00  0.00    -0.323 C  
HETATM    3  C   UNL     1      -9.633  12.848  66.621  1.00  0.00    -0.257 C  
HETATM    4  C   UNL     1      -9.260  12.052  67.896  1.00  0.00    -0.190 C  
HETATM    5  C   UNL     1      -8.340  10.841  67.568  1.00  0.00    -0.115 C  
HETATM    6  N   UNL     1     -10.607  11.681  68.344  1.00  0.00    -0.202 NA 
HETATM    7  C   UNL     1     -10.533   9.910  66.501  1.00  0.00    -0.213 C  
HETATM    8  C   UNL     1      -9.089   9.586  66.980  1.00  0.00    -0.154 C  
ENDROOT
BRANCH   5   9
HETATM    9  C   UNL     1      -7.442  10.574  68.769  1.00  0.00    -0.097 C  
HETATM   10  O   UNL     1      -7.815  10.488  69.932  1.00  0.00    -0.117 OA 
BRANCH   9  11
HETATM   11  O   UNL     1      -6.136  10.402  68.407  1.00  0.00    -0.044 OA 
HETATM   12  C   UNL     1      -5.522  11.603  67.922  1.00  0.00    -0.048 C  
ENDBRANCH   9  11
ENDBRANCH   5   9
BRANCH   6  13
HETATM   13  C   UNL     1     -10.741  10.925  69.582  1.00  0.00    -0.180 C  
BRANCH  13  14
HETATM   14  C   UNL     1     -12.190  10.726  70.047  1.00  0.00    -0.409 C  
HETATM   15  F   UNL     1     -13.650   9.917  71.671  1.00  0.00    -0.404 F  
HETATM   16  C   UNL     1     -12.323   9.993  71.361  1.00  0.00    -0.415 C  
ENDBRANCH  13  14
ENDBRANCH   6  13
BRANCH   8  17
HETATM   17  C   UNL     1      -8.963   8.296  67.815  1.00  0.00    -0.139 A  
HETATM   18  I   UNL     1      -9.242   3.767  69.602  1.00  0.00    -0.240 I  
HETATM   19  C   UNL     1      -7.868   7.421  67.733  1.00  0.00    -0.113 A  
HETATM   20  C   UNL     1      -7.916   6.150  68.310  1.00  0.00    -0.107 A  
HETATM   21  C   UNL     1     -10.027   7.921  68.649  1.00  0.00    -0.201 A  
HETATM   22  C   UNL     1      -9.065   5.735  68.979  1.00  0.00    -0.116 A  
HETATM   23  C   UNL     1     -10.108   6.631  69.181  1.00  0.00    -0.185 A  
ENDBRANCH   8  17
TORSDOF 5
ENDMDL
MODEL       85
REMARK 921   NORMALIZED FREE ENERGY PREDICTED BY IDOCK:   -3.45 KCAL/MOL
REMARK 922        TOTAL FREE ENERGY PREDICTED BY IDOCK:   -4.92 KCAL/MOL
REMARK 923 INTER-LIGAND FREE ENERGY PREDICTED BY IDOCK:   -4.81 KCAL/MOL
REMARK 924 INTRA-LIGAND FREE ENERGY PREDICTED BY IDOCK:   -0.10 KCAL/MOL
REMARK 927      BINDING AFFINITY PREDICTED BY RF-SCORE:    0.00 PKD
ROOT
HETATM    1  C   UNL     1     -10.595   9.264  67.239  1.00  0.00    -0.233 C  
HETATM    2  C   UNL     1      -9.938   9.733  65.938  1.00  0.00    -0.345 C  
HETATM    3  C   UNL     1      -8.532  10.145  66.382  1.00  0.00    -0.133 C  
HETATM    4  C   UNL     1      -8.586  10.147  67.929  1.00  0.00    -0.118 C  
HETATM    5  C   UNL     1      -7.991   8.840  68.526  1.00  0.00    -0.112 C  
HETATM    6  N   UNL     1     -10.034  10.289  68.115  1.00  0.00    -0.144 NA 
HETATM    7  C   UNL     1     -10.167   7.805  67.523  1.00  0.00    -0.301 C  
HETATM    8  C   UNL     1      -8.955   7.594  68.474  1.00  0.00    -0.129 C  
ENDROOT
BRANCH   5   9
HETATM    9  C   UNL     1      -7.390   9.157  69.889  1.00  0.00    -0.064 C  
HETATM   10  O   UNL     1      -7.999   9.616  70.846  1.00  0.00    -0.307 OA 
BRANCH   9  11
HETATM   11  O   UNL     1      -6.063   8.838  69.953  1.00  0.00    -0.034 OA 
HETATM   12  C   UNL     1      -5.294   9.778  70.716  1.00  0.00    -0.052 C  
ENDBRANCH   9  11
ENDBRANCH   5   9
BRANCH   6  13
HETATM   13  C   UNL     1     -10.553  10.377  69.472  1.00  0.00    -0.246 C  
BRANCH  13  14
HETATM   14  C   UNL     1     -11.574  11.502  69.688  1.00  0.00    -0.403 C  
HETATM   15  F   UNL     1     -12.355  13.606  69.070  1.00  0.00    -0.371 F  
HETATM   16  C   UNL     1     -11.366  12.706  68.801  1.00  0.00    -0.289 C  
ENDBRANCH  13  14
ENDBRANCH   6  13
BRANCH   8  17
HETATM   17  C   UNL     1      -9.311   6.984  69.845  1.00  0.00    -0.150 A  
HETATM   18  I   UNL     1     -10.864   4.175  73.516  1.00  0.00    -0.325 I  
HETATM   19  C   UNL     1      -8.401   6.262  70.633  1.00  0.00    -0.133 A  
HETATM   20  C   UNL     1      -8.833   5.517  71.733  1.00  0.00    -0.140 A  
HETATM   21  C   UNL     1     -10.631   7.078  70.306  1.00  0.00    -0.247 A  
HETATM   22  C   UNL     1     -10.186   5.482  72.059  1.00  0.00    -0.199 A  
HETATM   23  C   UNL     1     -11.083   6.290  71.370  1.00  0.00    -0.339 A  
ENDBRANCH   8  17
TORSDOF 5
ENDMDL
MODEL       86
REMARK 921   NORMALIZED FREE ENERGY PREDICTED BY IDOCK:   -3.43 KCAL/MOL
REMARK 922        TOTAL FREE ENERGY PREDICTED BY IDOCK:   -4.89 KCAL/MOL
REMARK 923 INTER-LIGAND FREE ENERGY PREDICTED BY IDOCK:   -4.93 KCAL/MOL
REMARK 924 INTRA-LIGAND FREE ENERGY PREDICTED BY IDOCK:    0.03 KCAL/MOL
REMARK 927      BINDING AFFINITY PREDICTED BY RF-SCORE:    0.00 PKD
ROOT
HETATM    1  C   UNL     1     -12.264   6.468  71.406  1.00  0.00    -0.247 C  
HETATM    2  C   UNL     1     -13.356   7.538  71.489  1.00  0.00    -0.409 C  
HETATM    3  C   UNL     1     -12.612   8.760  72.033  1.00  0.00    -0.447 C  
HETATM    4  C   UNL     1     -11.233   8.221  72.483  1.00  0.00    -0.376 C  
HETATM    5  C   UNL     1     -10.135   8.490  71.413  1.00  0.00    -0.302 C  
HETATM    6  N   UNL     1     -11.576   6.804  72.650  1.00  0.00    -0.191 NA 
HETATM    7  C   UNL     1     -11.462   6.665  70.099  1.00  0.00    -0.444 C  
HETATM    8  C   UNL     1     -10.149   7.494  70.192  1.00  0.00    -0.195 C  
ENDROOT
BRANCH   5   9
HETATM    9  C   UNL     1      -8.797   8.653  72.120  1.00  0.00    -0.175 C  
HETATM   10  O   UNL     1      -7.862   9.339  71.727  1.00  0.00    -0.310 OA 
BRANCH   9  11
HETATM   11  O   UNL     1      -8.747   7.960  73.296  1.00  0.00    -0.184 OA 
HETATM   12  C   UNL     1      -7.712   8.415  74.176  1.00  0.00    -0.171 C  
ENDBRANCH   9  11
ENDBRANCH   5   9
BRANCH   6  13
HETATM   13  C   UNL     1     -10.542   5.892  73.120  1.00  0.00    -0.245 C  
BRANCH  13  14
HETATM   14  C   UNL     1     -11.077   4.586  73.722  1.00  0.00    -0.330 C  
HETATM   15  F   UNL     1     -11.261   2.270  73.569  1.00  0.00    -0.243 F  
HETATM   16  C   UNL     1     -10.762   3.354  72.907  1.00  0.00    -0.086 C  
ENDBRANCH  13  14
ENDBRANCH   6  13
BRANCH   8  17
HETATM   17  C   UNL     1      -8.856   6.675  69.999  1.00  0.00    -0.141 A  
HETATM   18  I   UNL     1      -5.422   3.512  68.593  1.00  0.00    -0.015 I  
HETATM   19  C   UNL     1      -7.792   7.085  69.180  1.00  0.00    -0.114 A  
HETATM   20  C   UNL     1      -6.765   6.203  68.837  1.00  0.00    -0.060 A  
HETATM   21  C   UNL     1      -8.755   5.415  70.605  1.00  0.00    -0.135 A  
HETATM   22  C   UNL     1      -6.790   4.893  69.309  1.00  0.00    -0.050 A  
HETATM   23  C   UNL     1      -7.764   4.506  70.222  1.00  0.00    -0.056 A  
ENDBRANCH   8  17
TORSDOF 5
ENDMDL
MODEL       87
REMARK 921   NORMALIZED FREE ENERGY PREDICTED BY IDOCK:   -3.42 KCAL/MOL
REMARK 922        TOTAL FREE ENERGY PREDICTED BY IDOCK:   -4.88 KCAL/MOL
REMARK 923 INTER-LIGAND FREE ENERGY PREDICTED BY IDOCK:   -4.51 KCAL/MOL
REMARK 924 INTRA-LIGAND FREE ENERGY PREDICTED BY IDOCK:   -0.37 KCAL/MOL
REMARK 927      BINDING AFFINITY PREDICTED BY RF-SCORE:    0.00 PKD
ROOT
HETATM    1  C   UNL     1      -9.959  12.702  66.006  1.00  0.00    -0.258 C  
HETATM    2  C   UNL     1     -11.088  13.701  66.273  1.00  0.00    -0.304 C  
HETATM    3  C   UNL     1     -11.957  12.982  67.309  1.00  0.00    -0.379 C  
HETATM    4  C   UNL     1     -11.420  11.531  67.343  1.00  0.00    -0.274 C  
HETATM    5  C   UNL     1     -10.452  11.304  68.540  1.00  0.00    -0.218 C  
HETATM    6  N   UNL     1     -10.771  11.488  66.027  1.00  0.00    -0.276 NA 
HETATM    7  C   UNL     1      -8.891  12.838  67.116  1.00  0.00    -0.202 C  
HETATM    8  C   UNL     1      -8.994  11.859  68.321  1.00  0.00    -0.178 C  
ENDROOT
BRANCH   5   9
HETATM    9  C   UNL     1     -10.549   9.848  68.974  1.00  0.00    -0.220 C  
HETATM   10  O   UNL     1     -10.646   8.885  68.223  1.00  0.00    -0.212 OA 
BRANCH   9  11
HETATM   11  O   UNL     1     -10.484   9.710  70.331  1.00  0.00    -0.253 OA 
HETATM   12  C   UNL     1     -10.965   8.440  70.793  1.00  0.00    -0.247 C  
ENDBRANCH   9  11
ENDBRANCH   5   9
BRANCH   6  13
HETATM   13  C   UNL     1     -10.141  10.245  65.606  1.00  0.00    -0.271 C  
BRANCH  13  14
HETATM   14  C   UNL     1      -9.614  10.260  64.165  1.00  0.00    -0.376 C  
HETATM   15  F   UNL     1      -8.200   9.325  62.568  1.00  0.00    -0.126 F  
HETATM   16  C   UNL     1      -8.551   9.226  63.883  1.00  0.00    -0.192 C  
ENDBRANCH  13  14
ENDBRANCH   6  13
BRANCH   8  17
HETATM   17  C   UNL     1      -7.873  10.802  68.389  1.00  0.00    -0.120 A  
HETATM   18  I   UNL     1      -5.196   6.776  69.017  1.00  0.00    -0.014 I  
HETATM   19  C   UNL     1      -7.468  10.029  67.289  1.00  0.00    -0.091 A  
HETATM   20  C   UNL     1      -6.637   8.918  67.457  1.00  0.00    -0.062 A  
HETATM   21  C   UNL     1      -7.270  10.531  69.626  1.00  0.00    -0.148 A  
HETATM   22  C   UNL     1      -6.201   8.564  68.730  1.00  0.00    -0.045 A  
HETATM   23  C   UNL     1      -6.486   9.389  69.812  1.00  0.00    -0.041 A  
ENDBRANCH   8  17
TORSDOF 5
ENDMDL
MODEL       88
REMARK 921   NORMALIZED FREE ENERGY PREDICTED BY IDOCK:   -3.41 KCAL/MOL
REMARK 922        TOTAL FREE ENERGY PREDICTED BY IDOCK:   -4.86 KCAL/MOL
REMARK 923 INTER-LIGAND FREE ENERGY PREDICTED BY IDOCK:   -4.59 KCAL/MOL
REMARK 924 INTRA-LIGAND FREE ENERGY PREDICTED BY IDOCK:   -0.27 KCAL/MOL
REMARK 927      BINDING AFFINITY PREDICTED BY RF-SCORE:    0.00 PKD
ROOT
HETATM    1  C   UNL     1      -7.950   9.015  69.767  1.00  0.00    -0.099 C  
HETATM    2  C   UNL     1      -6.744   8.188  70.219  1.00  0.00    -0.037 C  
HETATM    3  C   UNL     1      -6.894   6.885  69.430  1.00  0.00    -0.054 C  
HETATM    4  C   UNL     1      -8.310   6.954  68.809  1.00  0.00    -0.121 C  
HETATM    5  C   UNL     1      -8.264   7.417  67.325  1.00  0.00    -0.115 C  
HETATM    6  N   UNL     1      -8.921   7.925  69.724  1.00  0.00    -0.145 NA 
HETATM    7  C   UNL     1      -7.618   9.697  68.420  1.00  0.00    -0.081 C  
HETATM    8  C   UNL     1      -8.079   8.969  67.124  1.00  0.00    -0.106 C  
ENDROOT
BRANCH   5   9
HETATM    9  C   UNL     1      -9.436   6.788  66.583  1.00  0.00    -0.165 C  
HETATM   10  O   UNL     1     -10.610   6.845  66.926  1.00  0.00    -0.288 OA 
BRANCH   9  11
HETATM   11  O   UNL     1      -9.042   6.156  65.438  1.00  0.00    -0.024 OA 
HETATM   12  C   UNL     1      -9.082   4.726  65.540  1.00  0.00    -0.152 C  
ENDBRANCH   9  11
ENDBRANCH   5   9
BRANCH   6  13
HETATM   13  C   UNL     1     -10.322   8.273  69.529  1.00  0.00    -0.219 C  
BRANCH  13  14
HETATM   14  C   UNL     1     -11.279   7.647  70.552  1.00  0.00    -0.275 C  
HETATM   15  F   UNL     1     -11.548   6.487  72.553  1.00  0.00    -0.287 F  
HETATM   16  C   UNL     1     -10.588   6.965  71.709  1.00  0.00    -0.212 C  
ENDBRANCH  13  14
ENDBRANCH   6  13
BRANCH   8  17
HETATM   17  C   UNL     1      -9.220   9.672  66.362  1.00  0.00    -0.205 A  
HETATM   18  I   UNL     1     -12.122  12.836  64.050  1.00  0.00    -0.594 I  
HETATM   19  C   UNL     1      -9.364   9.629  64.966  1.00  0.00    -0.319 A  
HETATM   20  C   UNL     1     -10.252  10.482  64.306  1.00  0.00    -0.314 A  
HETATM   21  C   UNL     1     -10.126  10.467  67.080  1.00  0.00    -0.264 A  
HETATM   22  C   UNL     1     -11.009  11.394  65.037  1.00  0.00    -0.204 A  
HETATM   23  C   UNL     1     -10.975  11.364  66.426  1.00  0.00    -0.315 A  
ENDBRANCH   8  17
TORSDOF 5
ENDMDL
MODEL       89
REMARK 921   NORMALIZED FREE ENERGY PREDICTED BY IDOCK:   -3.40 KCAL/MOL
REMARK 922        TOTAL FREE ENERGY PREDICTED BY IDOCK:   -4.85 KCAL/MOL
REMARK 923 INTER-LIGAND FREE ENERGY PREDICTED BY IDOCK:   -5.38 KCAL/MOL
REMARK 924 INTRA-LIGAND FREE ENERGY PREDICTED BY IDOCK:    0.52 KCAL/MOL
REMARK 927      BINDING AFFINITY PREDICTED BY RF-SCORE:    0.00 PKD
ROOT
HETATM    1  C   UNL     1     -10.364  12.567  68.827  1.00  0.00    -0.117 C  
HETATM    2  C   UNL     1     -11.687  13.085  69.398  1.00  0.00    -0.386 C  
HETATM    3  C   UNL     1     -12.286  13.881  68.236  1.00  0.00    -0.185 C  
HETATM    4  C   UNL     1     -11.143  13.992  67.198  1.00  0.00    -0.303 C  
HETATM    5  C   UNL     1     -11.291  12.935  66.066  1.00  0.00    -0.354 C  
HETATM    6  N   UNL     1      -9.996  13.769  68.084  1.00  0.00    -0.235 NA 
HETATM    7  C   UNL     1     -10.639  11.296  67.990  1.00  0.00    -0.230 C  
HETATM    8  C   UNL     1     -10.821  11.483  66.456  1.00  0.00    -0.335 C  
ENDROOT
BRANCH   5   9
HETATM    9  C   UNL     1     -10.691  13.504  64.787  1.00  0.00    -0.401 C  
HETATM   10  O   UNL     1     -10.510  12.884  63.747  1.00  0.00    -0.379 OA 
BRANCH   9  11
HETATM   11  O   UNL     1     -10.392  14.832  64.905  1.00  0.00    -0.406 OA 
HETATM   12  C   UNL     1     -11.389  15.688  64.332  1.00  0.00    -0.263 C  
ENDBRANCH   9  11
ENDBRANCH   5   9
BRANCH   6  13
HETATM   13  C   UNL     1      -8.658  13.827  67.512  1.00  0.00    -0.193 C  
BRANCH  13  14
HETATM   14  C   UNL     1      -7.530  13.915  68.550  1.00  0.00    -0.122 C  
HETATM   15  F   UNL     1      -5.516  13.069  69.355  1.00  0.00    -0.073 F  
HETATM   16  C   UNL     1      -6.466  12.854  68.399  1.00  0.00    -0.082 C  
ENDBRANCH  13  14
ENDBRANCH   6  13
BRANCH   8  17
HETATM   17  C   UNL     1      -9.674  10.912  65.598  1.00  0.00    -0.279 A  
HETATM   18  I   UNL     1      -6.102   8.218  63.658  1.00  0.00    -0.072 I  
HETATM   19  C   UNL     1      -9.876  10.201  64.405  1.00  0.00    -0.307 A  
HETATM   20  C   UNL     1      -8.835   9.490  63.804  1.00  0.00    -0.238 A  
HETATM   21  C   UNL     1      -8.356  11.032  66.062  1.00  0.00    -0.147 A  
HETATM   22  C   UNL     1      -7.573   9.479  64.392  1.00  0.00    -0.122 A  
HETATM   23  C   UNL     1      -7.321  10.278  65.501  1.00  0.00    -0.149 A  
ENDBRANCH   8  17
TORSDOF 5
ENDMDL
MODEL       90
REMARK 921   NORMALIZED FREE ENERGY PREDICTED BY IDOCK:   -3.40 KCAL/MOL
REMARK 922        TOTAL FREE ENERGY PREDICTED BY IDOCK:   -4.85 KCAL/MOL
REMARK 923 INTER-LIGAND FREE ENERGY PREDICTED BY IDOCK:   -4.41 KCAL/MOL
REMARK 924 INTRA-LIGAND FREE ENERGY PREDICTED BY IDOCK:   -0.44 KCAL/MOL
REMARK 927      BINDING AFFINITY PREDICTED BY RF-SCORE:    0.00 PKD
ROOT
HETATM    1  C   UNL     1     -10.666   9.386  70.515  1.00  0.00    -0.276 C  
HETATM    2  C   UNL     1     -11.833   9.876  71.376  1.00  0.00    -0.476 C  
HETATM    3  C   UNL     1     -12.504   8.578  71.832  1.00  0.00    -0.402 C  
HETATM    4  C   UNL     1     -11.847   7.466  70.979  1.00  0.00    -0.307 C  
HETATM    5  C   UNL     1     -10.723   6.729  71.763  1.00  0.00    -0.250 C  
HETATM    6  N   UNL     1     -11.364   8.283  69.859  1.00  0.00    -0.026 NA 
HETATM    7  C   UNL     1      -9.484   9.004  71.437  1.00  0.00    -0.334 C  
HETATM    8  C   UNL     1      -9.355   7.507  71.839  1.00  0.00    -0.171 C  
ENDROOT
BRANCH   5   9
HETATM    9  C   UNL     1     -10.643   5.293  71.262  1.00  0.00    -0.172 C  
HETATM   10  O   UNL     1     -10.626   4.949  70.087  1.00  0.00    -0.184 OA 
BRANCH   9  11
HETATM   11  O   UNL     1     -10.555   4.394  72.286  1.00  0.00    -0.165 OA 
HETATM   12  C   UNL     1     -11.322   4.774  73.437  1.00  0.00    -0.312 C  
ENDBRANCH   9  11
ENDBRANCH   5   9
BRANCH   6  13
HETATM   13  C   UNL     1     -10.688   7.615  68.756  1.00  0.00    -0.077 C  
BRANCH  13  14
HETATM   14  C   UNL     1     -10.375   8.526  67.561  1.00  0.00    -0.334 C  
HETATM   15  F   UNL     1      -9.289   8.805  65.521  1.00  0.00    -0.260 F  
HETATM   16  C   UNL     1      -9.453   7.909  66.537  1.00  0.00    -0.214 C  
ENDBRANCH  13  14
ENDBRANCH   6  13
BRANCH   8  17
HETATM   17  C   UNL     1      -8.149   6.775  71.215  1.00  0.00    -0.111 A  
HETATM   18  I   UNL     1      -5.134   3.613  69.050  1.00  0.00    -0.013 I  
HETATM   19  C   UNL     1      -7.708   6.987  69.899  1.00  0.00    -0.108 A  
HETATM   20  C   UNL     1      -6.785   6.126  69.301  1.00  0.00    -0.060 A  
HETATM   21  C   UNL     1      -7.496   5.784  71.963  1.00  0.00    -0.096 A  
HETATM   22  C   UNL     1      -6.291   5.037  70.013  1.00  0.00    -0.026 A  
HETATM   23  C   UNL     1      -6.616   4.883  71.356  1.00  0.00    -0.038 A  
ENDBRANCH   8  17
TORSDOF 5
ENDMDL
MODEL       91
REMARK 921   NORMALIZED FREE ENERGY PREDICTED BY IDOCK:   -3.40 KCAL/MOL
REMARK 922        TOTAL FREE ENERGY PREDICTED BY IDOCK:   -4.84 KCAL/MOL
REMARK 923 INTER-LIGAND FREE ENERGY PREDICTED BY IDOCK:   -4.97 KCAL/MOL
REMARK 924 INTRA-LIGAND FREE ENERGY PREDICTED BY IDOCK:    0.13 KCAL/MOL
REMARK 927      BINDING AFFINITY PREDICTED BY RF-SCORE:    0.00 PKD
ROOT
HETATM    1  C   UNL     1      -9.939   6.016  68.585  1.00  0.00    -0.149 C  
HETATM    2  C   UNL     1      -9.466   4.581  68.828  1.00  0.00    -0.221 C  
HETATM    3  C   UNL     1      -8.865   4.641  70.234  1.00  0.00    -0.122 C  
HETATM    4  C   UNL     1      -8.785   6.150  70.571  1.00  0.00    -0.142 C  
HETATM    5  C   UNL     1      -9.978   6.603  71.461  1.00  0.00    -0.189 C  
HETATM    6  N   UNL     1      -8.807   6.697  69.210  1.00  0.00    -0.133 NA 
HETATM    7  C   UNL     1     -11.318   6.213  69.255  1.00  0.00    -0.361 C  
HETATM    8  C   UNL     1     -11.331   6.827  70.684  1.00  0.00    -0.384 C  
ENDROOT
BRANCH   5   9
HETATM    9  C   UNL     1      -9.518   7.759  72.339  1.00  0.00    -0.178 C  
HETATM   10  O   UNL     1     -10.191   8.310  73.201  1.00  0.00    -0.221 OA 
BRANCH   9  11
HETATM   11  O   UNL     1      -8.225   8.116  72.084  1.00  0.00    -0.124 OA 
HETATM   12  C   UNL     1      -7.420   8.203  73.268  1.00  0.00    -0.142 C  
ENDBRANCH   9  11
ENDBRANCH   5   9
BRANCH   6  13
HETATM   13  C   UNL     1      -8.709   8.140  69.042  1.00  0.00    -0.144 C  
BRANCH  13  14
HETATM   14  C   UNL     1      -7.292   8.647  68.742  1.00  0.00    -0.083 C  
HETATM   15  F   UNL     1      -5.773  10.410  68.790  1.00  0.00    -0.042 F  
HETATM   16  C   UNL     1      -7.073  10.104  69.071  1.00  0.00    -0.072 C  
ENDBRANCH  13  14
ENDBRANCH   6  13
BRANCH   8  17
HETATM   17  C   UNL     1     -11.905   8.256  70.766  1.00  0.00    -0.172 A  
HETATM   18  I   UNL     1     -13.093  12.815  72.024  1.00  0.00    -0.073 I  
HETATM   19  C   UNL     1     -11.347   9.356  70.095  1.00  0.00    -0.220 A  
HETATM   20  C   UNL     1     -11.742  10.661  70.399  1.00  0.00    -0.446 A  
HETATM   21  C   UNL     1     -12.994   8.502  71.615  1.00  0.00    -0.369 A  
HETATM   22  C   UNL     1     -12.700  10.884  71.384  1.00  0.00    -0.434 A  
HETATM   23  C   UNL     1     -13.354   9.806  71.968  1.00  0.00    -0.547 A  
ENDBRANCH   8  17
TORSDOF 5
ENDMDL
MODEL       92
REMARK 921   NORMALIZED FREE ENERGY PREDICTED BY IDOCK:   -3.40 KCAL/MOL
REMARK 922        TOTAL FREE ENERGY PREDICTED BY IDOCK:   -4.84 KCAL/MOL
REMARK 923 INTER-LIGAND FREE ENERGY PREDICTED BY IDOCK:   -5.58 KCAL/MOL
REMARK 924 INTRA-LIGAND FREE ENERGY PREDICTED BY IDOCK:    0.74 KCAL/MOL
REMARK 927      BINDING AFFINITY PREDICTED BY RF-SCORE:    0.00 PKD
ROOT
HETATM    1  C   UNL     1     -10.645  18.570  68.621  1.00  0.00     0.075 C  
HETATM    2  C   UNL     1      -9.558  19.606  68.920  1.00  0.00    -0.421 C  
HETATM    3  C   UNL     1      -8.266  18.789  68.864  1.00  0.00    -0.255 C  
HETATM    4  C   UNL     1      -8.728  17.312  68.818  1.00  0.00    -0.232 C  
HETATM    5  C   UNL     1      -8.712  16.750  67.367  1.00  0.00    -0.202 C  
HETATM    6  N   UNL     1     -10.071  17.468  69.389  1.00  0.00    -0.138 NA 
HETATM    7  C   UNL     1     -10.742  18.368  67.090  1.00  0.00    -0.366 C  
HETATM    8  C   UNL     1      -9.940  17.183  66.480  1.00  0.00    -0.308 C  
ENDROOT
BRANCH   5   9
HETATM    9  C   UNL     1      -8.433  15.254  67.429  1.00  0.00    -0.179 C  
HETATM   10  O   UNL     1      -8.286  14.516  66.462  1.00  0.00     0.001 OA 
BRANCH   9  11
HETATM   11  O   UNL     1      -8.326  14.802  68.713  1.00  0.00    -0.158 OA 
HETATM   12  C   UNL     1      -7.624  13.557  68.816  1.00  0.00    -0.066 C  
ENDBRANCH   9  11
ENDBRANCH   5   9
BRANCH   6  13
HETATM   13  C   UNL     1     -10.886  16.276  69.574  1.00  0.00    -0.342 C  
BRANCH  13  14
HETATM   14  C   UNL     1     -11.414  16.086  71.003  1.00  0.00    -0.460 C  
HETATM   15  F   UNL     1     -13.197  15.532  72.393  1.00  0.00    -0.383 F  
HETATM   16  C   UNL     1     -12.872  15.701  71.079  1.00  0.00    -0.463 C  
ENDBRANCH  13  14
ENDBRANCH   6  13
BRANCH   8  17
HETATM   17  C   UNL     1     -10.808  16.023  65.951  1.00  0.00    -0.210 A  
HETATM   18  I   UNL     1     -12.509  11.920  63.939  1.00  0.00    -0.046 I  
HETATM   19  C   UNL     1     -11.256  14.961  66.752  1.00  0.00    -0.338 A  
HETATM   20  C   UNL     1     -11.815  13.814  66.182  1.00  0.00    -0.424 A  
HETATM   21  C   UNL     1     -11.107  15.970  64.582  1.00  0.00    -0.346 A  
HETATM   22  C   UNL     1     -11.932  13.714  64.799  1.00  0.00    -0.396 A  
HETATM   23  C   UNL     1     -11.612  14.804  63.998  1.00  0.00     0.076 A  
ENDBRANCH   8  17
TORSDOF 5
ENDMDL
MODEL       93
REMARK 921   NORMALIZED FREE ENERGY PREDICTED BY IDOCK:   -3.39 KCAL/MOL
REMARK 922        TOTAL FREE ENERGY PREDICTED BY IDOCK:   -4.83 KCAL/MOL
REMARK 923 INTER-LIGAND FREE ENERGY PREDICTED BY IDOCK:   -4.46 KCAL/MOL
REMARK 924 INTRA-LIGAND FREE ENERGY PREDICTED BY IDOCK:   -0.37 KCAL/MOL
REMARK 927      BINDING AFFINITY PREDICTED BY RF-SCORE:    0.00 PKD
ROOT
HETATM    1  C   UNL     1      -7.340   7.905  72.088  1.00  0.00    -0.083 C  
HETATM    2  C   UNL     1      -7.486   7.847  73.611  1.00  0.00    -0.179 C  
HETATM    3  C   UNL     1      -9.001   7.907  73.822  1.00  0.00    -0.324 C  
HETATM    4  C   UNL     1      -9.584   8.276  72.436  1.00  0.00    -0.294 C  
HETATM    5  C   UNL     1     -10.109   7.020  71.682  1.00  0.00    -0.194 C  
HETATM    6  N   UNL     1      -8.393   8.885  71.834  1.00  0.00    -0.371 NA 
HETATM    7  C   UNL     1      -7.559   6.490  71.506  1.00  0.00    -0.094 C  
HETATM    8  C   UNL     1      -8.990   6.145  71.001  1.00  0.00    -0.144 C  
ENDROOT
BRANCH   5   9
HETATM    9  C   UNL     1     -11.261   7.442  70.780  1.00  0.00    -0.271 C  
HETATM   10  O   UNL     1     -11.254   8.398  70.015  1.00  0.00    -0.206 OA 
BRANCH   9  11
HETATM   11  O   UNL     1     -12.333   6.601  70.886  1.00  0.00    -0.353 OA 
HETATM   12  C   UNL     1     -13.446   7.189  71.572  1.00  0.00    -0.332 C  
ENDBRANCH   9  11
ENDBRANCH   5   9
BRANCH   6  13
HETATM   13  C   UNL     1      -8.499   9.430  70.487  1.00  0.00    -0.212 C  
BRANCH  13  14
HETATM   14  C   UNL     1      -7.243  10.166  70.002  1.00  0.00    -0.166 C  
HETATM   15  F   UNL     1      -6.307  11.741  68.565  1.00  0.00    -0.050 F  
HETATM   16  C   UNL     1      -7.492  11.136  68.872  1.00  0.00    -0.125 C  
ENDBRANCH  13  14
ENDBRANCH   6  13
BRANCH   8  17
HETATM   17  C   UNL     1      -9.114   5.997  69.471  1.00  0.00    -0.141 A  
HETATM   18  I   UNL     1      -8.520   4.892  64.759  1.00  0.00    -0.137 I  
HETATM   19  C   UNL     1      -9.933   5.043  68.847  1.00  0.00    -0.236 A  
HETATM   20  C   UNL     1      -9.819   4.778  67.480  1.00  0.00    -0.206 A  
HETATM   21  C   UNL     1      -8.311   6.798  68.645  1.00  0.00    -0.120 A  
HETATM   22  C   UNL     1      -8.878   5.465  66.717  1.00  0.00    -0.112 A  
HETATM   23  C   UNL     1      -8.148   6.500  67.289  1.00  0.00    -0.113 A  
ENDBRANCH   8  17
TORSDOF 5
ENDMDL
MODEL       94
REMARK 921   NORMALIZED FREE ENERGY PREDICTED BY IDOCK:   -3.37 KCAL/MOL
REMARK 922        TOTAL FREE ENERGY PREDICTED BY IDOCK:   -4.81 KCAL/MOL
REMARK 923 INTER-LIGAND FREE ENERGY PREDICTED BY IDOCK:   -5.01 KCAL/MOL
REMARK 924 INTRA-LIGAND FREE ENERGY PREDICTED BY IDOCK:    0.20 KCAL/MOL
REMARK 927      BINDING AFFINITY PREDICTED BY RF-SCORE:    0.00 PKD
ROOT
HETATM    1  C   UNL     1     -10.226   7.339  72.303  1.00  0.00    -0.196 C  
HETATM    2  C   UNL     1      -9.308   6.371  73.053  1.00  0.00    -0.141 C  
HETATM    3  C   UNL     1      -8.421   5.797  71.945  1.00  0.00    -0.127 C  
HETATM    4  C   UNL     1      -9.079   6.263  70.624  1.00  0.00    -0.151 C  
HETATM    5  C   UNL     1      -8.366   7.516  70.038  1.00  0.00    -0.136 C  
HETATM    6  N   UNL     1     -10.438   6.517  71.114  1.00  0.00    -0.216 NA 
HETATM    7  C   UNL     1      -9.482   8.679  72.092  1.00  0.00    -0.373 C  
HETATM    8  C   UNL     1      -8.751   8.877  70.733  1.00  0.00    -0.245 C  
ENDROOT
BRANCH   5   9
HETATM    9  C   UNL     1      -8.498   7.486  68.522  1.00  0.00    -0.129 C  
HETATM   10  O   UNL     1      -9.552   7.452  67.898  1.00  0.00    -0.139 OA 
BRANCH   9  11
HETATM   11  O   UNL     1      -7.284   7.534  67.898  1.00  0.00    -0.085 OA 
HETATM   12  C   UNL     1      -7.310   8.274  66.670  1.00  0.00    -0.082 C  
ENDBRANCH   9  11
ENDBRANCH   5   9
BRANCH   6  13
HETATM   13  C   UNL     1     -11.448   6.955  70.160  1.00  0.00    -0.303 C  
BRANCH  13  14
HETATM   14  C   UNL     1     -12.870   7.026  70.733  1.00  0.00    -0.069 C  
HETATM   15  F   UNL     1     -14.375   8.084  72.160  1.00  0.00    -0.428 F  
HETATM   16  C   UNL     1     -13.069   8.110  71.765  1.00  0.00    -0.345 C  
ENDBRANCH  13  14
ENDBRANCH   6  13
BRANCH   8  17
HETATM   17  C   UNL     1      -9.392   9.929  69.805  1.00  0.00    -0.248 A  
HETATM   18  I   UNL     1     -11.243  12.427  66.049  1.00  0.00    -0.441 I  
HETATM   19  C   UNL     1     -10.778  10.104  69.671  1.00  0.00    -0.295 A  
HETATM   20  C   UNL     1     -11.310  10.883  68.640  1.00  0.00    -0.360 A  
HETATM   21  C   UNL     1      -8.561  10.706  68.985  1.00  0.00    -0.150 A  
HETATM   22  C   UNL     1     -10.458  11.497  67.726  1.00  0.00    -0.188 A  
HETATM   23  C   UNL     1      -9.083  11.440  67.916  1.00  0.00    -0.164 A  
ENDBRANCH   8  17
TORSDOF 5
ENDMDL
MODEL       95
REMARK 921   NORMALIZED FREE ENERGY PREDICTED BY IDOCK:   -3.35 KCAL/MOL
REMARK 922        TOTAL FREE ENERGY PREDICTED BY IDOCK:   -4.78 KCAL/MOL
REMARK 923 INTER-LIGAND FREE ENERGY PREDICTED BY IDOCK:   -4.40 KCAL/MOL
REMARK 924 INTRA-LIGAND FREE ENERGY PREDICTED BY IDOCK:   -0.38 KCAL/MOL
REMARK 927      BINDING AFFINITY PREDICTED BY RF-SCORE:    0.00 PKD
ROOT
HETATM    1  C   UNL     1      -9.614  11.537  68.558  1.00  0.00    -0.178 C  
HETATM    2  C   UNL     1     -10.181  12.359  67.398  1.00  0.00    -0.215 C  
HETATM    3  C   UNL     1     -10.363  11.322  66.287  1.00  0.00    -0.294 C  
HETATM    4  C   UNL     1      -9.630  10.057  66.797  1.00  0.00    -0.181 C  
HETATM    5  C   UNL     1     -10.622   9.029  67.413  1.00  0.00    -0.309 C  
HETATM    6  N   UNL     1      -8.729  10.683  67.770  1.00  0.00    -0.128 NA 
HETATM    7  C   UNL     1     -10.778  10.833  69.294  1.00  0.00    -0.268 C  
HETATM    8  C   UNL     1     -11.097   9.368  68.876  1.00  0.00    -0.003 C  
ENDROOT
BRANCH   5   9
HETATM    9  C   UNL     1     -10.061   7.629  67.206  1.00  0.00    -0.237 C  
HETATM   10  O   UNL     1      -8.918   7.274  67.464  1.00  0.00    -0.122 OA 
BRANCH   9  11
HETATM   11  O   UNL     1     -10.999   6.765  66.715  1.00  0.00    -0.337 OA 
HETATM   12  C   UNL     1     -10.550   5.403  66.684  1.00  0.00    -0.294 C  
ENDBRANCH   9  11
ENDBRANCH   5   9
BRANCH   6  13
HETATM   13  C   UNL     1      -7.791   9.834  68.491  1.00  0.00    -0.081 C  
BRANCH  13  14
HETATM   14  C   UNL     1      -7.020  10.549  69.609  1.00  0.00    -0.135 C  
HETATM   15  F   UNL     1      -5.321  12.025  70.206  1.00  0.00    -0.072 F  
HETATM   16  C   UNL     1      -5.894  11.428  69.120  1.00  0.00    -0.047 C  
ENDBRANCH  13  14
ENDBRANCH   6  13
BRANCH   8  17
HETATM   17  C   UNL     1     -10.751   8.306  69.940  1.00  0.00    -0.234 A  
HETATM   18  I   UNL     1      -9.147   4.407  72.390  1.00  0.00    -0.168 I  
HETATM   19  C   UNL     1      -9.649   8.403  70.804  1.00  0.00    -0.203 A  
HETATM   20  C   UNL     1      -9.232   7.309  71.567  1.00  0.00    -0.150 A  
HETATM   21  C   UNL     1     -11.524   7.138  70.008  1.00  0.00    -0.200 A  
HETATM   22  C   UNL     1      -9.915   6.099  71.472  1.00  0.00    -0.182 A  
HETATM   23  C   UNL     1     -11.081   6.020  70.722  1.00  0.00    -0.355 A  
ENDBRANCH   8  17
TORSDOF 5
ENDMDL
MODEL       96
REMARK 921   NORMALIZED FREE ENERGY PREDICTED BY IDOCK:   -3.34 KCAL/MOL
REMARK 922        TOTAL FREE ENERGY PREDICTED BY IDOCK:   -4.78 KCAL/MOL
REMARK 923 INTER-LIGAND FREE ENERGY PREDICTED BY IDOCK:   -4.50 KCAL/MOL
REMARK 924 INTRA-LIGAND FREE ENERGY PREDICTED BY IDOCK:   -0.27 KCAL/MOL
REMARK 927      BINDING AFFINITY PREDICTED BY RF-SCORE:    0.00 PKD
ROOT
HETATM    1  C   UNL     1      -9.855   9.171  70.839  1.00  0.00    -0.291 C  
HETATM    2  C   UNL     1     -10.638   8.674  72.057  1.00  0.00    -0.421 C  
HETATM    3  C   UNL     1     -11.446   7.499  71.501  1.00  0.00    -0.293 C  
HETATM    4  C   UNL     1     -11.280   7.590  69.964  1.00  0.00    -0.157 C  
HETATM    5  C   UNL     1     -10.190   6.609  69.445  1.00  0.00    -0.207 C  
HETATM    6  N   UNL     1     -10.918   9.008  69.851  1.00  0.00    -0.223 NA 
HETATM    7  C   UNL     1      -8.598   8.290  70.652  1.00  0.00    -0.139 C  
HETATM    8  C   UNL     1      -8.708   7.101  69.654  1.00  0.00    -0.141 C  
ENDROOT
BRANCH   5   9
HETATM    9  C   UNL     1     -10.554   6.184  68.029  1.00  0.00    -0.268 C  
HETATM   10  O   UNL     1     -11.124   6.882  67.200  1.00  0.00    -0.370 OA 
BRANCH   9  11
HETATM   11  O   UNL     1     -10.139   4.913  67.750  1.00  0.00    -0.153 OA 
HETATM   12  C   UNL     1     -10.111   4.624  66.346  1.00  0.00    -0.261 C  
ENDBRANCH   9  11
ENDBRANCH   5   9
BRANCH   6  13
HETATM   13  C   UNL     1     -10.698   9.561  68.522  1.00  0.00    -0.182 C  
BRANCH  13  14
HETATM   14  C   UNL     1     -11.432  10.883  68.257  1.00  0.00    -0.376 C  
HETATM   15  F   UNL     1     -11.318  13.101  67.559  1.00  0.00    -0.268 F  
HETATM   16  C   UNL     1     -10.537  12.005  67.788  1.00  0.00    -0.207 C  
ENDBRANCH  13  14
ENDBRANCH   6  13
BRANCH   8  17
HETATM   17  C   UNL     1      -7.884   7.269  68.361  1.00  0.00    -0.122 A  
HETATM   18  I   UNL     1      -6.128   7.120  63.815  1.00  0.00    -0.045 I  
HETATM   19  C   UNL     1      -7.990   8.382  67.512  1.00  0.00    -0.106 A  
HETATM   20  C   UNL     1      -7.421   8.372  66.236  1.00  0.00    -0.089 A  
HETATM   21  C   UNL     1      -7.038   6.226  67.957  1.00  0.00    -0.082 A  
HETATM   22  C   UNL     1      -6.739   7.243  65.791  1.00  0.00    -0.052 A  
HETATM   23  C   UNL     1      -6.515   6.183  66.661  1.00  0.00    -0.046 A  
ENDBRANCH   8  17
TORSDOF 5
ENDMDL
MODEL       97
REMARK 921   NORMALIZED FREE ENERGY PREDICTED BY IDOCK:   -3.34 KCAL/MOL
REMARK 922        TOTAL FREE ENERGY PREDICTED BY IDOCK:   -4.77 KCAL/MOL
REMARK 923 INTER-LIGAND FREE ENERGY PREDICTED BY IDOCK:   -6.22 KCAL/MOL
REMARK 924 INTRA-LIGAND FREE ENERGY PREDICTED BY IDOCK:    1.45 KCAL/MOL
REMARK 927      BINDING AFFINITY PREDICTED BY RF-SCORE:    0.00 PKD
ROOT
HETATM    1  C   UNL     1      -9.448  15.668  68.996  1.00  0.00    -0.243 C  
HETATM    2  C   UNL     1      -9.738  16.909  68.148  1.00  0.00    -0.254 C  
HETATM    3  C   UNL     1     -10.467  16.341  66.928  1.00  0.00    -0.302 C  
HETATM    4  C   UNL     1     -10.290  14.807  67.035  1.00  0.00    -0.255 C  
HETATM    5  C   UNL     1     -11.549  14.126  67.645  1.00  0.00    -0.394 C  
HETATM    6  N   UNL     1      -9.105  14.766  67.899  1.00  0.00    -0.180 NA 
HETATM    7  C   UNL     1     -10.710  15.310  69.815  1.00  0.00    -0.295 C  
HETATM    8  C   UNL     1     -11.667  14.241  69.212  1.00  0.00    -0.363 C  
ENDROOT
BRANCH   5   9
HETATM    9  C   UNL     1     -11.665  12.719  67.074  1.00  0.00    -0.374 C  
HETATM   10  O   UNL     1     -12.381  11.828  67.514  1.00  0.00    -0.290 OA 
BRANCH   9  11
HETATM   11  O   UNL     1     -10.888  12.548  65.963  1.00  0.00    -0.265 OA 
HETATM   12  C   UNL     1     -10.532  11.179  65.729  1.00  0.00    -0.246 C  
ENDBRANCH   9  11
ENDBRANCH   5   9
BRANCH   6  13
HETATM   13  C   UNL     1      -8.544  13.467  68.242  1.00  0.00    -0.169 C  
BRANCH  13  14
HETATM   14  C   UNL     1      -7.717  12.820  67.123  1.00  0.00    -0.072 C  
HETATM   15  F   UNL     1      -5.685  11.912  66.440  1.00  0.00    -0.140 F  
HETATM   16  C   UNL     1      -6.290  12.511  67.507  1.00  0.00    -0.154 C  
ENDBRANCH  13  14
ENDBRANCH   6  13
BRANCH   8  17
HETATM   17  C   UNL     1     -11.689  12.898  69.969  1.00  0.00    -0.284 A  
HETATM   18  I   UNL     1     -12.683   8.435  71.663  1.00  0.00    -0.354 I  
HETATM   19  C   UNL     1     -10.878  11.803  69.631  1.00  0.00     0.050 A  
HETATM   20  C   UNL     1     -11.112  10.538  70.174  1.00  0.00    -0.369 A  
HETATM   21  C   UNL     1     -12.619  12.718  71.003  1.00  0.00    -0.362 A  
HETATM   22  C   UNL     1     -12.167  10.350  71.064  1.00  0.00    -0.393 A  
HETATM   23  C   UNL     1     -12.899  11.444  71.508  1.00  0.00    -0.508 A  
ENDBRANCH   8  17
TORSDOF 5
ENDMDL
MODEL       98
REMARK 921   NORMALIZED FREE ENERGY PREDICTED BY IDOCK:   -3.29 KCAL/MOL
REMARK 922        TOTAL FREE ENERGY PREDICTED BY IDOCK:   -4.71 KCAL/MOL
REMARK 923 INTER-LIGAND FREE ENERGY PREDICTED BY IDOCK:   -4.55 KCAL/MOL
REMARK 924 INTRA-LIGAND FREE ENERGY PREDICTED BY IDOCK:   -0.15 KCAL/MOL
REMARK 927      BINDING AFFINITY PREDICTED BY RF-SCORE:    0.00 PKD
ROOT
HETATM    1  C   UNL     1     -10.319  12.054  67.745  1.00  0.00    -0.197 C  
HETATM    2  C   UNL     1     -10.895  13.103  66.791  1.00  0.00    -0.289 C  
HETATM    3  C   UNL     1     -10.363  12.667  65.424  1.00  0.00    -0.311 C  
HETATM    4  C   UNL     1      -9.305  11.581  65.734  1.00  0.00    -0.221 C  
HETATM    5  C   UNL     1      -9.884  10.148  65.555  1.00  0.00    -0.365 C  
HETATM    6  N   UNL     1      -9.001  11.938  67.125  1.00  0.00    -0.172 NA 
HETATM    7  C   UNL     1     -11.212  10.792  67.708  1.00  0.00    -0.385 C  
HETATM    8  C   UNL     1     -10.779   9.645  66.750  1.00  0.00    -0.149 C  
ENDROOT
BRANCH   5   9
HETATM    9  C   UNL     1      -8.754   9.216  65.136  1.00  0.00    -0.195 C  
HETATM   10  O   UNL     1      -7.751   8.971  65.794  1.00  0.00    -0.089 OA 
BRANCH   9  11
HETATM   11  O   UNL     1      -8.990   8.634  63.923  1.00  0.00     0.120 OA 
HETATM   12  C   UNL     1      -7.788   8.291  63.219  1.00  0.00    -0.149 C  
ENDBRANCH   9  11
ENDBRANCH   5   9
BRANCH   6  13
HETATM   13  C   UNL     1      -7.986  11.169  67.831  1.00  0.00    -0.114 C  
BRANCH  13  14
HETATM   14  C   UNL     1      -7.337  11.910  69.008  1.00  0.00    -0.038 C  
HETATM   15  F   UNL     1      -5.838  11.859  70.789  1.00  0.00    -0.155 F  
HETATM   16  C   UNL     1      -6.363  11.074  69.804  1.00  0.00    -0.124 C  
ENDBRANCH  13  14
ENDBRANCH   6  13
BRANCH   8  17
HETATM   17  C   UNL     1     -10.274   8.372  67.458  1.00  0.00    -0.308 A  
HETATM   18  I   UNL     1      -9.608   4.535  70.393  1.00  0.00    -0.292 I  
HETATM   19  C   UNL     1     -10.566   7.071  67.019  1.00  0.00    -0.412 A  
HETATM   20  C   UNL     1     -10.306   5.962  67.827  1.00  0.00    -0.262 A  
HETATM   21  C   UNL     1      -9.547   8.502  68.650  1.00  0.00    -0.153 A  
HETATM   22  C   UNL     1      -9.749   6.140  69.091  1.00  0.00    -0.139 A  
HETATM   23  C   UNL     1      -9.335   7.405  69.491  1.00  0.00    -0.156 A  
ENDBRANCH   8  17
TORSDOF 5
ENDMDL
MODEL       99
REMARK 921   NORMALIZED FREE ENERGY PREDICTED BY IDOCK:   -3.28 KCAL/MOL
REMARK 922        TOTAL FREE ENERGY PREDICTED BY IDOCK:   -4.69 KCAL/MOL
REMARK 923 INTER-LIGAND FREE ENERGY PREDICTED BY IDOCK:   -4.39 KCAL/MOL
REMARK 924 INTRA-LIGAND FREE ENERGY PREDICTED BY IDOCK:   -0.30 KCAL/MOL
REMARK 927      BINDING AFFINITY PREDICTED BY RF-SCORE:    0.00 PKD
ROOT
HETATM    1  C   UNL     1      -8.150   7.110  70.195  1.00  0.00    -0.130 C  
HETATM    2  C   UNL     1      -7.269   6.009  70.789  1.00  0.00    -0.077 C  
HETATM    3  C   UNL     1      -7.566   4.800  69.899  1.00  0.00    -0.055 C  
HETATM    4  C   UNL     1      -8.791   5.219  69.051  1.00  0.00    -0.099 C  
HETATM    5  C   UNL     1      -8.370   5.697  67.631  1.00  0.00    -0.100 C  
HETATM    6  N   UNL     1      -9.321   6.283  69.911  1.00  0.00    -0.150 NA 
HETATM    7  C   UNL     1      -7.431   7.729  68.974  1.00  0.00    -0.095 C  
HETATM    8  C   UNL     1      -7.801   7.165  67.572  1.00  0.00    -0.112 C  
ENDROOT
BRANCH   5   9
HETATM    9  C   UNL     1      -9.499   5.384  66.658  1.00  0.00    -0.144 C  
HETATM   10  O   UNL     1     -10.688   5.604  66.851  1.00  0.00    -0.283 OA 
BRANCH   9  11
HETATM   11  O   UNL     1      -9.038   4.841  65.492  1.00  0.00    -0.142 OA 
HETATM   12  C   UNL     1      -8.431   3.554  65.670  1.00  0.00    -0.108 C  
ENDBRANCH   9  11
ENDBRANCH   5   9
BRANCH   6  13
HETATM   13  C   UNL     1     -10.544   6.959  69.503  1.00  0.00    -0.236 C  
BRANCH  13  14
HETATM   14  C   UNL     1     -11.563   7.160  70.633  1.00  0.00    -0.354 C  
HETATM   15  F   UNL     1     -12.818   8.639  71.921  1.00  0.00    -0.315 F  
HETATM   16  C   UNL     1     -11.882   8.606  70.929  1.00  0.00    -0.225 C  
ENDBRANCH  13  14
ENDBRANCH   6  13
BRANCH   8  17
HETATM   17  C   UNL     1      -8.593   8.139  66.676  1.00  0.00    -0.140 A  
HETATM   18  I   UNL     1     -10.328  12.008  64.268  1.00  0.00    -0.424 I  
HETATM   19  C   UNL     1      -8.353   8.298  65.301  1.00  0.00    -0.175 A  
HETATM   20  C   UNL     1      -8.912   9.363  64.591  1.00  0.00    -0.233 A  
HETATM   21  C   UNL     1      -9.552   8.975  67.265  1.00  0.00    -0.206 A  
HETATM   22  C   UNL     1      -9.718  10.288  65.249  1.00  0.00    -0.291 A  
HETATM   23  C   UNL     1     -10.070  10.077  66.577  1.00  0.00    -0.296 A  
ENDBRANCH   8  17
TORSDOF 5
ENDMDL
MODEL      100
REMARK 921   NORMALIZED FREE ENERGY PREDICTED BY IDOCK:   -3.25 KCAL/MOL
REMARK 922        TOTAL FREE ENERGY PREDICTED BY IDOCK:   -4.66 KCAL/MOL
REMARK 923 INTER-LIGAND FREE ENERGY PREDICTED BY IDOCK:   -4.66 KCAL/MOL
REMARK 924 INTRA-LIGAND FREE ENERGY PREDICTED BY IDOCK:   -0.00 KCAL/MOL
REMARK 927      BINDING AFFINITY PREDICTED BY RF-SCORE:    0.00 PKD
ROOT
HETATM    1  C   UNL     1      -8.374   7.688  67.000  1.00  0.00    -0.124 C  
HETATM    2  C   UNL     1      -8.688   6.207  67.222  1.00  0.00    -0.108 C  
HETATM    3  C   UNL     1      -9.501   6.208  68.518  1.00  0.00    -0.121 C  
HETATM    4  C   UNL     1      -9.351   7.642  69.083  1.00  0.00    -0.147 C  
HETATM    5  C   UNL     1     -10.585   8.526  68.740  1.00  0.00    -0.162 C  
HETATM    6  N   UNL     1      -8.117   8.038  68.395  1.00  0.00    -0.120 NA 
HETATM    7  C   UNL     1      -9.591   8.368  66.331  1.00  0.00    -0.307 C  
HETATM    8  C   UNL     1     -10.605   9.086  67.268  1.00  0.00    -0.301 C  
ENDROOT
BRANCH   5   9
HETATM    9  C   UNL     1     -10.765   9.559  69.845  1.00  0.00    -0.240 C  
HETATM   10  O   UNL     1     -10.045  10.531  70.036  1.00  0.00    -0.121 OA 
BRANCH   9  11
HETATM   11  O   UNL     1     -11.865   9.305  70.613  1.00  0.00    -0.267 OA 
HETATM   12  C   UNL     1     -11.539   8.884  71.945  1.00  0.00    -0.371 C  
ENDBRANCH   9  11
ENDBRANCH   5   9
BRANCH   6  13
HETATM   13  C   UNL     1      -7.564   9.356  68.671  1.00  0.00    -0.080 C  
BRANCH  13  14
HETATM   14  C   UNL     1      -6.855   9.473  70.028  1.00  0.00    -0.075 C  
HETATM   15  F   UNL     1      -5.166   8.726  71.445  1.00  0.00    -0.031 F  
HETATM   16  C   UNL     1      -5.725   8.491  70.223  1.00  0.00    -0.024 C  
ENDBRANCH  13  14
ENDBRANCH   6  13
BRANCH   8  17
HETATM   17  C   UNL     1     -10.610  10.624  67.152  1.00  0.00    -0.312 A  
HETATM   18  I   UNL     1     -10.720  15.256  65.631  1.00  0.00    -0.423 I  
HETATM   19  C   UNL     1     -11.757  11.413  67.330  1.00  0.00    -0.172 A  
HETATM   20  C   UNL     1     -11.769  12.762  66.967  1.00  0.00    -0.440 A  
HETATM   21  C   UNL     1      -9.430  11.279  66.770  1.00  0.00    -0.196 A  
HETATM   22  C   UNL     1     -10.629  13.340  66.416  1.00  0.00    -0.284 A  
HETATM   23  C   UNL     1      -9.447  12.612  66.349  1.00  0.00    -0.231 A  
ENDBRANCH   8  17
TORSDOF 5
ENDMDL
MODEL      101
REMARK 921   NORMALIZED FREE ENERGY PREDICTED BY IDOCK:   -3.25 KCAL/MOL
REMARK 922        TOTAL FREE ENERGY PREDICTED BY IDOCK:   -4.66 KCAL/MOL
REMARK 923 INTER-LIGAND FREE ENERGY PREDICTED BY IDOCK:   -4.55 KCAL/MOL
REMARK 924 INTRA-LIGAND FREE ENERGY PREDICTED BY IDOCK:   -0.11 KCAL/MOL
REMARK 927      BINDING AFFINITY PREDICTED BY RF-SCORE:    0.00 PKD
ROOT
HETATM    1  C   UNL     1      -8.452   8.087  70.652  1.00  0.00    -0.125 C  
HETATM    2  C   UNL     1      -7.230   7.194  70.886  1.00  0.00    -0.070 C  
HETATM    3  C   UNL     1      -6.969   6.583  69.507  1.00  0.00    -0.067 C  
HETATM    4  C   UNL     1      -8.216   6.949  68.666  1.00  0.00    -0.121 C  
HETATM    5  C   UNL     1      -7.955   8.186  67.760  1.00  0.00    -0.127 C  
HETATM    6  N   UNL     1      -9.172   7.188  69.753  1.00  0.00    -0.144 NA 
HETATM    7  C   UNL     1      -7.985   9.434  70.053  1.00  0.00    -0.142 C  
HETATM    8  C   UNL     1      -8.027   9.573  68.504  1.00  0.00    -0.093 C  
ENDROOT
BRANCH   5   9
HETATM    9  C   UNL     1      -8.812   8.061  66.507  1.00  0.00    -0.151 C  
HETATM   10  O   UNL     1      -9.841   7.404  66.410  1.00  0.00    -0.165 OA 
BRANCH   9  11
HETATM   11  O   UNL     1      -8.322   8.805  65.472  1.00  0.00    -0.129 OA 
HETATM   12  C   UNL     1      -9.347   9.304  64.601  1.00  0.00     0.050 C  
ENDBRANCH   9  11
ENDBRANCH   5   9
BRANCH   6  13
HETATM   13  C   UNL     1     -10.543   7.536  69.405  1.00  0.00    -0.223 C  
BRANCH  13  14
HETATM   14  C   UNL     1     -11.608   6.674  70.095  1.00  0.00    -0.446 C  
HETATM   15  F   UNL     1     -13.212   6.483  71.772  1.00  0.00    -0.350 F  
HETATM   16  C   UNL     1     -12.270   7.338  71.279  1.00  0.00    -0.354 C  
ENDBRANCH  13  14
ENDBRANCH   6  13
BRANCH   8  17
HETATM   17  C   UNL     1      -9.099  10.547  67.974  1.00  0.00    -0.138 A  
HETATM   18  I   UNL     1     -12.249  13.104  65.270  1.00  0.00    -0.535 I  
HETATM   19  C   UNL     1     -10.479  10.298  68.049  1.00  0.00    -0.234 A  
HETATM   20  C   UNL     1     -11.391  11.078  67.335  1.00  0.00    -0.306 A  
HETATM   21  C   UNL     1      -8.688  11.711  67.309  1.00  0.00    -0.159 A  
HETATM   22  C   UNL     1     -10.934  12.120  66.532  1.00  0.00    -0.284 A  
HETATM   23  C   UNL     1      -9.587  12.462  66.546  1.00  0.00    -0.242 A  
ENDBRANCH   8  17
TORSDOF 5
ENDMDL
MODEL      102
REMARK 921   NORMALIZED FREE ENERGY PREDICTED BY IDOCK:   -3.23 KCAL/MOL
REMARK 922        TOTAL FREE ENERGY PREDICTED BY IDOCK:   -4.63 KCAL/MOL
REMARK 923 INTER-LIGAND FREE ENERGY PREDICTED BY IDOCK:   -4.67 KCAL/MOL
REMARK 924 INTRA-LIGAND FREE ENERGY PREDICTED BY IDOCK:    0.04 KCAL/MOL
REMARK 927      BINDING AFFINITY PREDICTED BY RF-SCORE:    0.00 PKD
ROOT
HETATM    1  C   UNL     1      -9.776   4.918  69.247  1.00  0.00    -0.188 C  
HETATM    2  C   UNL     1      -9.400   3.715  70.115  1.00  0.00    -0.243 C  
HETATM    3  C   UNL     1      -8.569   4.337  71.240  1.00  0.00    -0.124 C  
HETATM    4  C   UNL     1      -8.298   5.791  70.780  1.00  0.00    -0.124 C  
HETATM    5  C   UNL     1      -9.280   6.796  71.448  1.00  0.00    -0.153 C  
HETATM    6  N   UNL     1      -8.499   5.622  69.336  1.00  0.00    -0.106 NA 
HETATM    7  C   UNL     1     -11.000   5.628  69.870  1.00  0.00    -0.309 C  
HETATM    8  C   UNL     1     -10.717   6.839  70.805  1.00  0.00    -0.270 C  
ENDROOT
BRANCH   5   9
HETATM    9  C   UNL     1      -8.577   8.140  71.590  1.00  0.00    -0.140 C  
HETATM   10  O   UNL     1      -8.831   8.991  72.433  1.00  0.00    -0.337 OA 
BRANCH   9  11
HETATM   11  O   UNL     1      -7.576   8.297  70.673  1.00  0.00    -0.065 OA 
HETATM   12  C   UNL     1      -6.801   9.485  70.883  1.00  0.00    -0.078 C  
ENDBRANCH   9  11
ENDBRANCH   5   9
BRANCH   6  13
HETATM   13  C   UNL     1      -8.300   6.776  68.471  1.00  0.00    -0.120 C  
BRANCH  13  14
HETATM   14  C   UNL     1      -8.176   6.434  66.980  1.00  0.00    -0.113 C  
HETATM   15  F   UNL     1      -8.391   7.131  64.768  1.00  0.00    -0.134 F  
HETATM   16  C   UNL     1      -8.582   7.554  66.052  1.00  0.00    -0.151 C  
ENDBRANCH  13  14
ENDBRANCH   6  13
BRANCH   8  17
HETATM   17  C   UNL     1     -11.138   8.208  70.230  1.00  0.00    -0.221 A  
HETATM   18  I   UNL     1     -11.626  12.934  69.136  1.00  0.00    -0.327 I  
HETATM   19  C   UNL     1     -10.664   8.717  69.011  1.00  0.00    -0.122 A  
HETATM   20  C   UNL     1     -10.869  10.053  68.659  1.00  0.00    -0.265 A  
HETATM   21  C   UNL     1     -11.976   9.034  70.992  1.00  0.00    -0.323 A  
HETATM   22  C   UNL     1     -11.551  10.901  69.527  1.00  0.00    -0.313 A  
HETATM   23  C   UNL     1     -12.137  10.386  70.677  1.00  0.00    -0.443 A  
ENDBRANCH   8  17
TORSDOF 5
ENDMDL
MODEL      103
REMARK 921   NORMALIZED FREE ENERGY PREDICTED BY IDOCK:   -3.22 KCAL/MOL
REMARK 922        TOTAL FREE ENERGY PREDICTED BY IDOCK:   -4.61 KCAL/MOL
REMARK 923 INTER-LIGAND FREE ENERGY PREDICTED BY IDOCK:   -4.49 KCAL/MOL
REMARK 924 INTRA-LIGAND FREE ENERGY PREDICTED BY IDOCK:   -0.12 KCAL/MOL
REMARK 927      BINDING AFFINITY PREDICTED BY RF-SCORE:    0.00 PKD
ROOT
HETATM    1  C   UNL     1      -9.282  10.182  68.731  1.00  0.00    -0.164 C  
HETATM    2  C   UNL     1      -9.984  11.526  68.943  1.00  0.00    -0.117 C  
HETATM    3  C   UNL     1     -11.225  11.151  69.756  1.00  0.00    -0.318 C  
HETATM    4  C   UNL     1     -11.285   9.605  69.706  1.00  0.00    -0.174 C  
HETATM    5  C   UNL     1     -10.698   8.966  70.997  1.00  0.00    -0.315 C  
HETATM    6  N   UNL     1     -10.479   9.377  68.501  1.00  0.00    -0.206 NA 
HETATM    7  C   UNL     1      -8.453   9.842  69.992  1.00  0.00    -0.229 C  
HETATM    8  C   UNL     1      -9.124   8.923  71.054  1.00  0.00    -0.303 C  
ENDROOT
BRANCH   5   9
HETATM    9  C   UNL     1     -11.406   7.641  71.249  1.00  0.00    -0.264 C  
HETATM   10  O   UNL     1     -11.894   6.919  70.388  1.00  0.00    -0.342 OA 
BRANCH   9  11
HETATM   11  O   UNL     1     -11.418   7.307  72.573  1.00  0.00    -0.289 OA 
HETATM   12  C   UNL     1     -11.466   5.891  72.797  1.00  0.00    -0.230 C  
ENDBRANCH   9  11
ENDBRANCH   5   9
BRANCH   6  13
HETATM   13  C   UNL     1     -10.295   8.008  68.040  1.00  0.00    -0.206 C  
BRANCH  13  14
HETATM   14  C   UNL     1      -9.450   7.878  66.765  1.00  0.00    -0.257 C  
HETATM   15  F   UNL     1      -8.851   8.756  64.693  1.00  0.00    -0.203 F  
HETATM   16  C   UNL     1      -9.686   8.972  65.752  1.00  0.00    -0.184 C  
ENDBRANCH  13  14
ENDBRANCH   6  13
BRANCH   8  17
HETATM   17  C   UNL     1      -8.509   7.513  71.164  1.00  0.00    -0.117 A  
HETATM   18  I   UNL     1      -7.615   2.790  71.985  1.00  0.00    -0.055 I  
HETATM   19  C   UNL     1      -8.489   6.590  70.106  1.00  0.00    -0.135 A  
HETATM   20  C   UNL     1      -8.158   5.250  70.325  1.00  0.00    -0.091 A  
HETATM   21  C   UNL     1      -8.012   7.085  72.403  1.00  0.00    -0.097 A  
HETATM   22  C   UNL     1      -7.844   4.815  71.609  1.00  0.00    -0.098 A  
HETATM   23  C   UNL     1      -7.735   5.736  72.644  1.00  0.00    -0.101 A  
ENDBRANCH   8  17
TORSDOF 5
ENDMDL
MODEL      104
REMARK 921   NORMALIZED FREE ENERGY PREDICTED BY IDOCK:   -3.20 KCAL/MOL
REMARK 922        TOTAL FREE ENERGY PREDICTED BY IDOCK:   -4.59 KCAL/MOL
REMARK 923 INTER-LIGAND FREE ENERGY PREDICTED BY IDOCK:   -4.33 KCAL/MOL
REMARK 924 INTRA-LIGAND FREE ENERGY PREDICTED BY IDOCK:   -0.26 KCAL/MOL
REMARK 927      BINDING AFFINITY PREDICTED BY RF-SCORE:    0.00 PKD
ROOT
HETATM    1  C   UNL     1      -8.449   9.883  67.982  1.00  0.00    -0.117 C  
HETATM    2  C   UNL     1      -9.424  10.769  67.201  1.00  0.00    -0.180 C  
HETATM    3  C   UNL     1     -10.774  10.081  67.416  1.00  0.00    -0.336 C  
HETATM    4  C   UNL     1     -10.430   8.715  68.058  1.00  0.00    -0.197 C  
HETATM    5  C   UNL     1     -10.616   8.744  69.603  1.00  0.00    -0.220 C  
HETATM    6  N   UNL     1      -9.034   8.594  67.621  1.00  0.00    -0.135 NA 
HETATM    7  C   UNL     1      -8.502  10.271  69.478  1.00  0.00    -0.156 C  
HETATM    8  C   UNL     1      -9.441   9.435  70.394  1.00  0.00    -0.319 C  
ENDROOT
BRANCH   5   9
HETATM    9  C   UNL     1     -11.000   7.348  70.072  1.00  0.00    -0.248 C  
HETATM   10  O   UNL     1     -10.470   6.304  69.713  1.00  0.00    -0.196 OA 
BRANCH   9  11
HETATM   11  O   UNL     1     -12.009   7.373  70.992  1.00  0.00    -0.304 OA 
HETATM   12  C   UNL     1     -11.862   6.383  72.019  1.00  0.00    -0.333 C  
ENDBRANCH   9  11
ENDBRANCH   5   9
BRANCH   6  13
HETATM   13  C   UNL     1      -8.298   7.392  67.984  1.00  0.00    -0.124 C  
BRANCH  13  14
HETATM   14  C   UNL     1      -8.079   6.411  66.824  1.00  0.00    -0.109 C  
HETATM   15  F   UNL     1      -8.993   4.855  65.353  1.00  0.00    -0.133 F  
HETATM   16  C   UNL     1      -9.319   5.658  66.407  1.00  0.00    -0.154 C  
ENDBRANCH  13  14
ENDBRANCH   6  13
BRANCH   8  17
HETATM   17  C   UNL     1      -8.712   8.530  71.408  1.00  0.00    -0.237 A  
HETATM   18  I   UNL     1      -7.339   4.965  74.438  1.00  0.00    -0.086 I  
HETATM   19  C   UNL     1      -7.679   7.647  71.058  1.00  0.00    -0.088 A  
HETATM   20  C   UNL     1      -7.229   6.673  71.953  1.00  0.00    -0.085 A  
HETATM   21  C   UNL     1      -9.147   8.519  72.741  1.00  0.00    -0.218 A  
HETATM   22  C   UNL     1      -7.812   6.568  73.213  1.00  0.00    -0.096 A  
HETATM   23  C   UNL     1      -8.745   7.511  73.623  1.00  0.00    -0.255 A  
ENDBRANCH   8  17
TORSDOF 5
ENDMDL
MODEL      105
REMARK 921   NORMALIZED FREE ENERGY PREDICTED BY IDOCK:   -3.18 KCAL/MOL
REMARK 922        TOTAL FREE ENERGY PREDICTED BY IDOCK:   -4.57 KCAL/MOL
REMARK 923 INTER-LIGAND FREE ENERGY PREDICTED BY IDOCK:   -4.30 KCAL/MOL
REMARK 924 INTRA-LIGAND FREE ENERGY PREDICTED BY IDOCK:   -0.27 KCAL/MOL
REMARK 927      BINDING AFFINITY PREDICTED BY RF-SCORE:    0.00 PKD
ROOT
HETATM    1  C   UNL     1     -10.848  10.715  68.487  1.00  0.00    -0.233 C  
HETATM    2  C   UNL     1     -10.496  12.187  68.260  1.00  0.00    -0.225 C  
HETATM    3  C   UNL     1      -8.973  12.166  68.102  1.00  0.00    -0.195 C  
HETATM    4  C   UNL     1      -8.547  10.740  68.528  1.00  0.00    -0.148 C  
HETATM    5  C   UNL     1      -8.319   9.817  67.296  1.00  0.00    -0.121 C  
HETATM    6  N   UNL     1      -9.713  10.379  69.343  1.00  0.00    -0.219 NA 
HETATM    7  C   UNL     1     -10.917   9.996  67.119  1.00  0.00    -0.177 C  
HETATM    8  C   UNL     1      -9.637   9.250  66.645  1.00  0.00    -0.263 C  
ENDROOT
BRANCH   5   9
HETATM    9  C   UNL     1      -7.258   8.784  67.652  1.00  0.00    -0.080 C  
HETATM   10  O   UNL     1      -7.291   8.034  68.620  1.00  0.00    -0.085 OA 
BRANCH   9  11
HETATM   11  O   UNL     1      -6.244   8.750  66.738  1.00  0.00    -0.056 OA 
HETATM   12  C   UNL     1      -5.495   7.528  66.772  1.00  0.00    -0.024 C  
ENDBRANCH   9  11
ENDBRANCH   5   9
BRANCH   6  13
HETATM   13  C   UNL     1      -9.722   9.079  70.000  1.00  0.00    -0.185 C  
BRANCH  13  14
HETATM   14  C   UNL     1     -10.528   9.036  71.305  1.00  0.00    -0.381 C  
HETATM   15  F   UNL     1     -11.124   7.856  73.222  1.00  0.00    -0.438 F  
HETATM   16  C   UNL     1     -10.390   7.746  72.076  1.00  0.00    -0.214 C  
ENDBRANCH  13  14
ENDBRANCH   6  13
BRANCH   8  17
HETATM   17  C   UNL     1      -9.754   7.712  66.634  1.00  0.00    -0.283 A  
HETATM   18  I   UNL     1      -9.096   2.911  67.175  1.00  0.00    -0.109 I  
HETATM   19  C   UNL     1     -10.504   6.984  67.572  1.00  0.00    -0.320 A  
HETATM   20  C   UNL     1     -10.374   5.598  67.678  1.00  0.00    -0.266 A  
HETATM   21  C   UNL     1      -9.015   6.983  65.692  1.00  0.00     0.027 A  
HETATM   22  C   UNL     1      -9.489   4.919  66.845  1.00  0.00    -0.148 A  
HETATM   23  C   UNL     1      -8.835   5.603  65.828  1.00  0.00    -0.156 A  
ENDBRANCH   8  17
TORSDOF 5
ENDMDL
MODEL      106
REMARK 921   NORMALIZED FREE ENERGY PREDICTED BY IDOCK:   -3.16 KCAL/MOL
REMARK 922        TOTAL FREE ENERGY PREDICTED BY IDOCK:   -4.54 KCAL/MOL
REMARK 923 INTER-LIGAND FREE ENERGY PREDICTED BY IDOCK:   -5.05 KCAL/MOL
REMARK 924 INTRA-LIGAND FREE ENERGY PREDICTED BY IDOCK:    0.51 KCAL/MOL
REMARK 927      BINDING AFFINITY PREDICTED BY RF-SCORE:    0.00 PKD
ROOT
HETATM    1  C   UNL     1     -11.382  14.533  67.466  1.00  0.00    -0.340 C  
HETATM    2  C   UNL     1     -12.119  14.207  66.164  1.00  0.00    -0.454 C  
HETATM    3  C   UNL     1     -11.306  14.953  65.103  1.00  0.00    -0.379 C  
HETATM    4  C   UNL     1     -10.346  15.867  65.904  1.00  0.00    -0.365 C  
HETATM    5  C   UNL     1      -8.926  15.242  66.024  1.00  0.00    -0.151 C  
HETATM    6  N   UNL     1     -11.084  15.932  67.170  1.00  0.00    -0.217 NA 
HETATM    7  C   UNL     1     -10.169  13.584  67.611  1.00  0.00    -0.239 C  
HETATM    8  C   UNL     1      -8.793  14.113  67.115  1.00  0.00    -0.241 C  
ENDROOT
BRANCH   5   9
HETATM    9  C   UNL     1      -7.905  16.369  66.109  1.00  0.00    -0.022 C  
HETATM   10  O   UNL     1      -6.750  16.257  66.500  1.00  0.00    -0.226 OA 
BRANCH   9  11
HETATM   11  O   UNL     1      -8.410  17.557  65.661  1.00  0.00    -0.479 OA 
HETATM   12  C   UNL     1      -7.744  18.699  66.216  1.00  0.00    -0.264 C  
ENDBRANCH   9  11
ENDBRANCH   5   9
BRANCH   6  13
HETATM   13  C   UNL     1     -10.542  16.750  68.246  1.00  0.00    -0.352 C  
BRANCH  13  14
HETATM   14  C   UNL     1     -10.705  18.262  68.035  1.00  0.00    -0.290 C  
HETATM   15  F   UNL     1     -10.062  20.420  68.624  1.00  0.00    -0.449 F  
HETATM   16  C   UNL     1      -9.845  19.110  68.940  1.00  0.00    -0.424 C  
ENDBRANCH  13  14
ENDBRANCH   6  13
BRANCH   8  17
HETATM   17  C   UNL     1      -7.772  14.400  68.234  1.00  0.00    -0.129 A  
HETATM   18  I   UNL     1      -5.227  14.568  72.390  1.00  0.00    -0.059 I  
HETATM   19  C   UNL     1      -6.540  13.737  68.351  1.00  0.00    -0.096 A  
HETATM   20  C   UNL     1      -5.771  13.844  69.512  1.00  0.00    -0.093 A  
HETATM   21  C   UNL     1      -8.112  15.313  69.243  1.00  0.00    -0.236 A  
HETATM   22  C   UNL     1      -6.226  14.618  70.576  1.00  0.00    -0.149 A  
HETATM   23  C   UNL     1      -7.378  15.382  70.432  1.00  0.00     0.605 A  
ENDBRANCH   8  17
TORSDOF 5
ENDMDL
MODEL      107
REMARK 921   NORMALIZED FREE ENERGY PREDICTED BY IDOCK:   -3.13 KCAL/MOL
REMARK 922        TOTAL FREE ENERGY PREDICTED BY IDOCK:   -4.49 KCAL/MOL
REMARK 923 INTER-LIGAND FREE ENERGY PREDICTED BY IDOCK:   -4.62 KCAL/MOL
REMARK 924 INTRA-LIGAND FREE ENERGY PREDICTED BY IDOCK:    0.13 KCAL/MOL
REMARK 927      BINDING AFFINITY PREDICTED BY RF-SCORE:    0.00 PKD
ROOT
HETATM    1  C   UNL     1      -9.127   8.000  72.420  1.00  0.00    -0.192 C  
HETATM    2  C   UNL     1      -8.426   6.829  73.114  1.00  0.00    -0.130 C  
HETATM    3  C   UNL     1      -8.427   5.734  72.045  1.00  0.00    -0.126 C  
HETATM    4  C   UNL     1      -9.367   6.260  70.934  1.00  0.00    -0.161 C  
HETATM    5  C   UNL     1      -8.569   6.895  69.758  1.00  0.00    -0.141 C  
HETATM    6  N   UNL     1     -10.147   7.222  71.721  1.00  0.00    -0.179 NA 
HETATM    7  C   UNL     1      -8.104   8.749  71.536  1.00  0.00    -0.174 C  
HETATM    8  C   UNL     1      -8.043   8.355  70.032  1.00  0.00    -0.115 C  
ENDROOT
BRANCH   5   9
HETATM    9  C   UNL     1      -9.364   6.706  68.473  1.00  0.00    -0.125 C  
HETATM   10  O   UNL     1     -10.551   6.971  68.324  1.00  0.00    -0.193 OA 
BRANCH   9  11
HETATM   11  O   UNL     1      -8.591   6.226  67.455  1.00  0.00    -0.109 OA 
HETATM   12  C   UNL     1      -8.510   7.121  66.338  1.00  0.00    -0.130 C  
ENDBRANCH   9  11
ENDBRANCH   5   9
BRANCH   6  13
HETATM   13  C   UNL     1     -11.218   7.952  71.057  1.00  0.00    -0.269 C  
BRANCH  13  14
HETATM   14  C   UNL     1     -12.587   7.824  71.739  1.00  0.00    -0.356 C  
HETATM   15  F   UNL     1     -14.407   8.884  72.732  1.00  0.00    -0.490 F  
HETATM   16  C   UNL     1     -13.186   9.139  72.178  1.00  0.00    -0.458 C  
ENDBRANCH  13  14
ENDBRANCH   6  13
BRANCH   8  17
HETATM   17  C   UNL     1      -8.568   9.433  69.062  1.00  0.00    -0.135 A  
HETATM   18  I   UNL     1      -9.787  13.580  66.805  1.00  0.00    -0.286 I  
HETATM   19  C   UNL     1      -7.860   9.872  67.933  1.00  0.00    -0.090 A  
HETATM   20  C   UNL     1      -8.252  11.018  67.237  1.00  0.00    -0.125 A  
HETATM   21  C   UNL     1      -9.780  10.075  69.355  1.00  0.00    -0.240 A  
HETATM   22  C   UNL     1      -9.361  11.743  67.665  1.00  0.00    -0.180 A  
HETATM   23  C   UNL     1     -10.148  11.255  68.701  1.00  0.00    -0.216 A  
ENDBRANCH   8  17
TORSDOF 5
ENDMDL
MODEL      108
REMARK 921   NORMALIZED FREE ENERGY PREDICTED BY IDOCK:   -3.12 KCAL/MOL
REMARK 922        TOTAL FREE ENERGY PREDICTED BY IDOCK:   -4.49 KCAL/MOL
REMARK 923 INTER-LIGAND FREE ENERGY PREDICTED BY IDOCK:   -4.17 KCAL/MOL
REMARK 924 INTRA-LIGAND FREE ENERGY PREDICTED BY IDOCK:   -0.32 KCAL/MOL
REMARK 927      BINDING AFFINITY PREDICTED BY RF-SCORE:    0.00 PKD
ROOT
HETATM    1  C   UNL     1      -8.630   6.781  68.627  1.00  0.00    -0.122 C  
HETATM    2  C   UNL     1      -9.583   5.698  68.114  1.00  0.00    -0.135 C  
HETATM    3  C   UNL     1     -10.945   6.397  68.118  1.00  0.00    -0.393 C  
HETATM    4  C   UNL     1     -10.714   7.719  68.891  1.00  0.00    -0.085 C  
HETATM    5  C   UNL     1     -10.512   8.921  67.924  1.00  0.00    -0.281 C  
HETATM    6  N   UNL     1      -9.512   7.344  69.645  1.00  0.00    -0.156 NA 
HETATM    7  C   UNL     1      -8.246   7.713  67.453  1.00  0.00    -0.116 C  
HETATM    8  C   UNL     1      -9.075   9.019  67.287  1.00  0.00    -0.151 C  
ENDROOT
BRANCH   5   9
HETATM    9  C   UNL     1     -11.023  10.183  68.606  1.00  0.00    -0.230 C  
HETATM   10  O   UNL     1     -10.759  10.532  69.750  1.00  0.00    -0.258 OA 
BRANCH   9  11
HETATM   11  O   UNL     1     -11.807  10.935  67.778  1.00  0.00    -0.579 OA 
HETATM   12  C   UNL     1     -11.739  12.340  68.057  1.00  0.00    -0.356 C  
ENDBRANCH   9  11
ENDBRANCH   5   9
BRANCH   6  13
HETATM   13  C   UNL     1      -8.945   8.315  70.570  1.00  0.00    -0.147 C  
BRANCH  13  14
HETATM   14  C   UNL     1      -7.572   7.925  71.133  1.00  0.00    -0.080 C  
HETATM   15  F   UNL     1      -6.312   6.455  72.427  1.00  0.00    -0.049 F  
HETATM   16  C   UNL     1      -7.592   6.709  72.029  1.00  0.00    -0.096 C  
ENDBRANCH  13  14
ENDBRANCH   6  13
BRANCH   8  17
HETATM   17  C   UNL     1      -8.303  10.315  67.607  1.00  0.00    -0.114 A  
HETATM   18  I   UNL     1      -6.884  14.730  69.115  1.00  0.00    -0.164 I  
HETATM   19  C   UNL     1      -7.449  10.458  68.713  1.00  0.00    -0.093 A  
HETATM   20  C   UNL     1      -6.978  11.714  69.102  1.00  0.00    -0.105 A  
HETATM   21  C   UNL     1      -8.515  11.446  66.805  1.00  0.00    -0.165 A  
HETATM   22  C   UNL     1      -7.358  12.848  68.389  1.00  0.00    -0.119 A  
HETATM   23  C   UNL     1      -8.096  12.714  67.220  1.00  0.00    -0.178 A  
ENDBRANCH   8  17
TORSDOF 5
ENDMDL
MODEL      109
REMARK 921   NORMALIZED FREE ENERGY PREDICTED BY IDOCK:   -3.11 KCAL/MOL
REMARK 922        TOTAL FREE ENERGY PREDICTED BY IDOCK:   -4.47 KCAL/MOL
REMARK 923 INTER-LIGAND FREE ENERGY PREDICTED BY IDOCK:   -4.13 KCAL/MOL
REMARK 924 INTRA-LIGAND FREE ENERGY PREDICTED BY IDOCK:   -0.35 KCAL/MOL
REMARK 927      BINDING AFFINITY PREDICTED BY RF-SCORE:    0.00 PKD
ROOT
HETATM    1  C   UNL     1     -10.328  10.680  69.364  1.00  0.00    -0.208 C  
HETATM    2  C   UNL     1     -11.098  11.049  68.094  1.00  0.00    -0.329 C  
HETATM    3  C   UNL     1     -10.941   9.808  67.212  1.00  0.00    -0.142 C  
HETATM    4  C   UNL     1      -9.868   8.947  67.922  1.00  0.00    -0.169 C  
HETATM    5  C   UNL     1     -10.513   7.811  68.768  1.00  0.00    -0.201 C  
HETATM    6  N   UNL     1      -9.214   9.992  68.716  1.00  0.00    -0.152 NA 
HETATM    7  C   UNL     1     -11.236   9.819  70.272  1.00  0.00    -0.347 C  
HETATM    8  C   UNL     1     -11.090   8.274  70.159  1.00  0.00    -0.189 C  
ENDROOT
BRANCH   5   9
HETATM    9  C   UNL     1      -9.551   6.631  68.810  1.00  0.00    -0.131 C  
HETATM   10  O   UNL     1      -8.336   6.706  68.938  1.00  0.00    -0.118 OA 
BRANCH   9  11
HETATM   11  O   UNL     1     -10.202   5.433  68.718  1.00  0.00    -0.178 OA 
HETATM   12  C   UNL     1      -9.392   4.319  69.119  1.00  0.00    -0.161 C  
ENDBRANCH   9  11
ENDBRANCH   5   9
BRANCH   6  13
HETATM   13  C   UNL     1      -8.074   9.622  69.544  1.00  0.00    -0.129 C  
BRANCH  13  14
HETATM   14  C   UNL     1      -7.097  10.771  69.826  1.00  0.00    -0.126 C  
HETATM   15  F   UNL     1      -5.143  11.493  70.866  1.00  0.00    -0.085 F  
HETATM   16  C   UNL     1      -5.946  10.398  70.728  1.00  0.00    -0.080 C  
ENDBRANCH  13  14
ENDBRANCH   6  13
BRANCH   8  17
HETATM   17  C   UNL     1     -10.457   7.595  71.391  1.00  0.00    -0.230 A  
HETATM   18  I   UNL     1      -7.926   4.784  74.468  1.00  0.00    -0.094 I  
HETATM   19  C   UNL     1      -9.326   8.094  72.056  1.00  0.00    -0.266 A  
HETATM   20  C   UNL     1      -8.642   7.319  72.996  1.00  0.00    -0.152 A  
HETATM   21  C   UNL     1     -10.979   6.372  71.835  1.00  0.00    -0.295 A  
HETATM   22  C   UNL     1      -9.082   6.029  73.282  1.00  0.00    -0.129 A  
HETATM   23  C   UNL     1     -10.270   5.566  72.730  1.00  0.00    -0.216 A  
ENDBRANCH   8  17
TORSDOF 5
ENDMDL
MODEL      110
REMARK 921   NORMALIZED FREE ENERGY PREDICTED BY IDOCK:   -3.08 KCAL/MOL
REMARK 922        TOTAL FREE ENERGY PREDICTED BY IDOCK:   -4.44 KCAL/MOL
REMARK 923 INTER-LIGAND FREE ENERGY PREDICTED BY IDOCK:   -4.08 KCAL/MOL
REMARK 924 INTRA-LIGAND FREE ENERGY PREDICTED BY IDOCK:   -0.36 KCAL/MOL
REMARK 927      BINDING AFFINITY PREDICTED BY RF-SCORE:    0.00 PKD
ROOT
HETATM    1  C   UNL     1      -8.237   4.408  67.962  1.00  0.00    -0.094 C  
HETATM    2  C   UNL     1      -7.059   3.431  67.962  1.00  0.00    -0.051 C  
HETATM    3  C   UNL     1      -6.296   3.798  69.237  1.00  0.00    -0.029 C  
HETATM    4  C   UNL     1      -6.930   5.127  69.715  1.00  0.00    -0.054 C  
HETATM    5  C   UNL     1      -7.972   4.891  70.846  1.00  0.00    -0.084 C  
HETATM    6  N   UNL     1      -7.511   5.580  68.446  1.00  0.00    -0.076 NA 
HETATM    7  C   UNL     1      -9.350   3.857  68.885  1.00  0.00    -0.231 C  
HETATM    8  C   UNL     1      -9.376   4.375  70.351  1.00  0.00    -0.219 C  
ENDROOT
BRANCH   5   9
HETATM    9  C   UNL     1      -7.997   6.118  71.747  1.00  0.00    -0.103 C  
HETATM   10  O   UNL     1      -8.141   7.275  71.372  1.00  0.00    -0.100 OA 
BRANCH   9  11
HETATM   11  O   UNL     1      -7.869   5.791  73.067  1.00  0.00    -0.102 OA 
HETATM   12  C   UNL     1      -6.562   6.063  73.592  1.00  0.00    -0.075 C  
ENDBRANCH   9  11
ENDBRANCH   5   9
BRANCH   6  13
HETATM   13  C   UNL     1      -8.202   6.862  68.420  1.00  0.00    -0.120 C  
BRANCH  13  14
HETATM   14  C   UNL     1      -8.883   7.186  67.083  1.00  0.00    -0.121 C  
HETATM   15  F   UNL     1     -10.271   8.605  65.866  1.00  0.00    -0.306 F  
HETATM   16  C   UNL     1      -9.760   8.415  67.117  1.00  0.00    -0.190 C  
ENDBRANCH  13  14
ENDBRANCH   6  13
BRANCH   8  17
HETATM   17  C   UNL     1     -10.568   5.295  70.687  1.00  0.00    -0.263 A  
HETATM   18  I   UNL     1     -13.486   8.925  72.130  1.00  0.00    -0.537 I  
HETATM   19  C   UNL     1     -11.189   6.135  69.749  1.00  0.00    -0.494 A  
HETATM   20  C   UNL     1     -12.086   7.127  70.153  1.00  0.00     0.025 A  
HETATM   21  C   UNL     1     -11.016   5.366  72.014  1.00  0.00    -0.244 A  
HETATM   22  C   UNL     1     -12.372   7.294  71.505  1.00  0.00    -0.362 A  
HETATM   23  C   UNL     1     -11.867   6.393  72.434  1.00  0.00    -0.255 A  
ENDBRANCH   8  17
TORSDOF 5
ENDMDL
MODEL      111
REMARK 921   NORMALIZED FREE ENERGY PREDICTED BY IDOCK:   -3.08 KCAL/MOL
REMARK 922        TOTAL FREE ENERGY PREDICTED BY IDOCK:   -4.44 KCAL/MOL
REMARK 923 INTER-LIGAND FREE ENERGY PREDICTED BY IDOCK:   -4.35 KCAL/MOL
REMARK 924 INTRA-LIGAND FREE ENERGY PREDICTED BY IDOCK:   -0.09 KCAL/MOL
REMARK 927      BINDING AFFINITY PREDICTED BY RF-SCORE:    0.00 PKD
ROOT
HETATM    1  C   UNL     1     -10.831   9.982  70.548  1.00  0.00    -0.314 C  
HETATM    2  C   UNL     1     -11.668  10.826  69.584  1.00  0.00    -0.395 C  
HETATM    3  C   UNL     1     -11.220  10.337  68.205  1.00  0.00    -0.294 C  
HETATM    4  C   UNL     1      -9.972   9.463  68.477  1.00  0.00    -0.173 C  
HETATM    5  C   UNL     1     -10.325   7.947  68.492  1.00  0.00    -0.229 C  
HETATM    6  N   UNL     1      -9.585  10.004  69.785  1.00  0.00    -0.229 NA 
HETATM    7  C   UNL     1     -11.506   8.602  70.727  1.00  0.00    -0.293 C  
HETATM    8  C   UNL     1     -10.996   7.441  69.825  1.00  0.00    -0.215 C  
ENDROOT
BRANCH   5   9
HETATM    9  C   UNL     1      -9.110   7.160  68.021  1.00  0.00    -0.132 C  
HETATM   10  O   UNL     1      -7.993   7.206  68.521  1.00  0.00    -0.119 OA 
BRANCH   9  11
HETATM   11  O   UNL     1      -9.402   6.343  66.967  1.00  0.00    -0.124 OA 
HETATM   12  C   UNL     1      -8.504   6.505  65.861  1.00  0.00    -0.147 C  
ENDBRANCH   9  11
ENDBRANCH   5   9
BRANCH   6  13
HETATM   13  C   UNL     1      -8.390   9.476  70.427  1.00  0.00    -0.192 C  
BRANCH  13  14
HETATM   14  C   UNL     1      -7.078  10.102  69.933  1.00  0.00    -0.144 C  
HETATM   15  F   UNL     1      -6.021  11.846  68.811  1.00  0.00    -0.049 F  
HETATM   16  C   UNL     1      -7.258  11.383  69.155  1.00  0.00    -0.102 C  
ENDBRANCH  13  14
ENDBRANCH   6  13
BRANCH   8  17
HETATM   17  C   UNL     1     -10.217   6.340  70.573  1.00  0.00    -0.240 A  
HETATM   18  I   UNL     1      -7.031   2.941  72.013  1.00  0.00    -0.036 I  
HETATM   19  C   UNL     1      -9.307   6.600  71.610  1.00  0.00    -0.149 A  
HETATM   20  C   UNL     1      -8.444   5.606  72.078  1.00  0.00    -0.126 A  
HETATM   21  C   UNL     1     -10.356   5.008  70.155  1.00  0.00    -0.306 A  
HETATM   22  C   UNL     1      -8.480   4.335  71.512  1.00  0.00    -0.095 A  
HETATM   23  C   UNL     1      -9.458   4.022  70.576  1.00  0.00    -0.248 A  
ENDBRANCH   8  17
TORSDOF 5
ENDMDL
MODEL      112
REMARK 921   NORMALIZED FREE ENERGY PREDICTED BY IDOCK:   -3.08 KCAL/MOL
REMARK 922        TOTAL FREE ENERGY PREDICTED BY IDOCK:   -4.44 KCAL/MOL
REMARK 923 INTER-LIGAND FREE ENERGY PREDICTED BY IDOCK:   -4.61 KCAL/MOL
REMARK 924 INTRA-LIGAND FREE ENERGY PREDICTED BY IDOCK:    0.17 KCAL/MOL
REMARK 927      BINDING AFFINITY PREDICTED BY RF-SCORE:    0.00 PKD
ROOT
HETATM    1  C   UNL     1     -10.814   7.328  68.023  1.00  0.00    -0.095 C  
HETATM    2  C   UNL     1     -10.279   8.044  66.780  1.00  0.00    -0.367 C  
HETATM    3  C   UNL     1      -8.871   8.473  67.199  1.00  0.00    -0.139 C  
HETATM    4  C   UNL     1      -8.814   8.221  68.725  1.00  0.00    -0.137 C  
HETATM    5  C   UNL     1      -8.105   6.877  69.059  1.00  0.00    -0.117 C  
HETATM    6  N   UNL     1     -10.251   8.234  69.020  1.00  0.00    -0.214 NA 
HETATM    7  C   UNL     1     -10.286   5.874  68.035  1.00  0.00    -0.257 C  
HETATM    8  C   UNL     1      -8.999   5.594  68.862  1.00  0.00    -0.115 C  
ENDROOT
BRANCH   5   9
HETATM    9  C   UNL     1      -7.427   7.009  70.417  1.00  0.00    -0.085 C  
HETATM   10  O   UNL     1      -6.597   6.236  70.877  1.00  0.00    -0.050 OA 
BRANCH   9  11
HETATM   11  O   UNL     1      -7.824   8.133  71.084  1.00  0.00    -0.082 OA 
HETATM   12  C   UNL     1      -7.609   8.055  72.499  1.00  0.00    -0.114 C  
ENDBRANCH   9  11
ENDBRANCH   5   9
BRANCH   6  13
HETATM   13  C   UNL     1     -10.675   8.066  70.403  1.00  0.00    -0.233 C  
BRANCH  13  14
HETATM   14  C   UNL     1     -11.126   9.363  71.089  1.00  0.00    -0.432 C  
HETATM   15  F   UNL     1     -12.800  10.522  72.217  1.00  0.00    -0.491 F  
HETATM   16  C   UNL     1     -12.544   9.329  71.606  1.00  0.00    -0.365 C  
ENDBRANCH  13  14
ENDBRANCH   6  13
BRANCH   8  17
HETATM   17  C   UNL     1      -9.221   4.748  70.132  1.00  0.00    -0.195 A  
HETATM   18  I   UNL     1     -10.928   1.777  73.601  1.00  0.00    -0.301 I  
HETATM   19  C   UNL     1      -8.671   3.470  70.319  1.00  0.00    -0.120 A  
HETATM   20  C   UNL     1      -9.104   2.645  71.360  1.00  0.00    -0.171 A  
HETATM   21  C   UNL     1     -10.080   5.233  71.128  1.00  0.00    -0.284 A  
HETATM   22  C   UNL     1     -10.097   3.088  72.229  1.00  0.00    -0.148 A  
HETATM   23  C   UNL     1     -10.561   4.395  72.138  1.00  0.00    -0.101 A  
ENDBRANCH   8  17
TORSDOF 5
ENDMDL
MODEL      113
REMARK 921   NORMALIZED FREE ENERGY PREDICTED BY IDOCK:   -3.01 KCAL/MOL
REMARK 922        TOTAL FREE ENERGY PREDICTED BY IDOCK:   -4.35 KCAL/MOL
REMARK 923 INTER-LIGAND FREE ENERGY PREDICTED BY IDOCK:   -4.90 KCAL/MOL
REMARK 924 INTRA-LIGAND FREE ENERGY PREDICTED BY IDOCK:    0.55 KCAL/MOL
REMARK 927      BINDING AFFINITY PREDICTED BY RF-SCORE:    0.00 PKD
ROOT
HETATM    1  C   UNL     1      -8.973   5.376  69.659  1.00  0.00    -0.109 C  
HETATM    2  C   UNL     1      -9.635   4.408  70.643  1.00  0.00    -0.262 C  
HETATM    3  C   UNL     1     -10.373   5.337  71.610  1.00  0.00    -0.281 C  
HETATM    4  C   UNL     1      -9.852   6.756  71.277  1.00  0.00    -0.176 C  
HETATM    5  C   UNL     1     -10.841   7.530  70.359  1.00  0.00    -0.255 C  
HETATM    6  N   UNL     1      -8.585   6.396  70.630  1.00  0.00    -0.138 NA 
HETATM    7  C   UNL     1     -10.009   5.798  68.592  1.00  0.00    -0.201 C  
HETATM    8  C   UNL     1     -10.777   7.129  68.837  1.00  0.00    -0.199 C  
ENDROOT
BRANCH   5   9
HETATM    9  C   UNL     1     -10.717   9.018  70.658  1.00  0.00    -0.239 C  
HETATM   10  O   UNL     1      -9.667   9.636  70.781  1.00  0.00    -0.250 OA 
BRANCH   9  11
HETATM   11  O   UNL     1     -11.936   9.629  70.748  1.00  0.00    -0.282 OA 
HETATM   12  C   UNL     1     -12.893   8.870  71.500  1.00  0.00    -0.334 C  
ENDBRANCH   9  11
ENDBRANCH   5   9
BRANCH   6  13
HETATM   13  C   UNL     1      -7.712   7.468  70.173  1.00  0.00    -0.089 C  
BRANCH  13  14
HETATM   14  C   UNL     1      -6.545   7.781  71.119  1.00  0.00    -0.038 C  
HETATM   15  F   UNL     1      -5.842   8.418  73.245  1.00  0.00    -0.057 F  
HETATM   16  C   UNL     1      -6.968   8.208  72.504  1.00  0.00    -0.088 C  
ENDBRANCH  13  14
ENDBRANCH   6  13
BRANCH   8  17
HETATM   17  C   UNL     1     -10.405   8.273  67.872  1.00  0.00    -0.278 A  
HETATM   18  I   UNL     1      -9.964  11.324  64.093  1.00  0.00    -0.424 I  
HETATM   19  C   UNL     1     -11.021   9.535  67.890  1.00  0.00    -0.172 A  
HETATM   20  C   UNL     1     -10.835  10.443  66.845  1.00  0.00    -0.229 A  
HETATM   21  C   UNL     1      -9.460   8.031  66.866  1.00  0.00    -0.244 A  
HETATM   22  C   UNL     1     -10.030  10.098  65.763  1.00  0.00    -0.271 A  
HETATM   23  C   UNL     1      -9.312   8.908  65.787  1.00  0.00    -0.286 A  
ENDBRANCH   8  17
TORSDOF 5
ENDMDL
MODEL      114
REMARK 921   NORMALIZED FREE ENERGY PREDICTED BY IDOCK:   -2.97 KCAL/MOL
REMARK 922        TOTAL FREE ENERGY PREDICTED BY IDOCK:   -4.29 KCAL/MOL
REMARK 923 INTER-LIGAND FREE ENERGY PREDICTED BY IDOCK:   -3.98 KCAL/MOL
REMARK 924 INTRA-LIGAND FREE ENERGY PREDICTED BY IDOCK:   -0.31 KCAL/MOL
REMARK 927      BINDING AFFINITY PREDICTED BY RF-SCORE:    0.00 PKD
ROOT
HETATM    1  C   UNL     1      -6.713   8.574  65.929  1.00  0.00    -0.057 C  
HETATM    2  C   UNL     1      -6.493   9.555  64.774  1.00  0.00    -0.084 C  
HETATM    3  C   UNL     1      -7.898  10.097  64.500  1.00  0.00    -0.141 C  
HETATM    4  C   UNL     1      -8.845   9.187  65.319  1.00  0.00    -0.199 C  
HETATM    5  C   UNL     1      -9.252   9.848  66.667  1.00  0.00    -0.185 C  
HETATM    6  N   UNL     1      -7.978   8.012  65.462  1.00  0.00    -0.110 NA 
HETATM    7  C   UNL     1      -6.756   9.362  67.259  1.00  0.00    -0.075 C  
HETATM    8  C   UNL     1      -8.159   9.763  67.799  1.00  0.00    -0.113 C  
ENDROOT
BRANCH   5   9
HETATM    9  C   UNL     1     -10.642   9.356  67.050  1.00  0.00    -0.201 C  
HETATM   10  O   UNL     1     -11.025   8.194  67.001  1.00  0.00    -0.159 OA 
BRANCH   9  11
HETATM   11  O   UNL     1     -11.441  10.368  67.499  1.00  0.00    -0.386 OA 
HETATM   12  C   UNL     1     -11.281  11.585  66.758  1.00  0.00    -0.285 C  
ENDBRANCH   9  11
ENDBRANCH   5   9
BRANCH   6  13
HETATM   13  C   UNL     1      -8.500   6.847  66.163  1.00  0.00    -0.136 C  
BRANCH  13  14
HETATM   14  C   UNL     1      -8.012   5.503  65.605  1.00  0.00    -0.109 C  
HETATM   15  F   UNL     1      -8.307   3.777  64.071  1.00  0.00    -0.088 F  
HETATM   16  C   UNL     1      -8.869   4.946  64.494  1.00  0.00    -0.129 C  
ENDBRANCH  13  14
ENDBRANCH   6  13
BRANCH   8  17
HETATM   17  C   UNL     1      -8.594   9.015  69.076  1.00  0.00    -0.134 A  
HETATM   18  I   UNL     1     -11.011   6.609  72.561  1.00  0.00    -0.307 I  
HETATM   19  C   UNL     1      -8.381   7.643  69.283  1.00  0.00    -0.134 A  
HETATM   20  C   UNL     1      -9.013   6.965  70.329  1.00  0.00    -0.152 A  
HETATM   21  C   UNL     1      -9.313   9.712  70.058  1.00  0.00    -0.276 A  
HETATM   22  C   UNL     1      -9.871   7.654  71.182  1.00  0.00    -0.173 A  
HETATM   23  C   UNL     1      -9.995   9.033  71.072  1.00  0.00    -0.349 A  
ENDBRANCH   8  17
TORSDOF 5
ENDMDL
MODEL      115
REMARK 921   NORMALIZED FREE ENERGY PREDICTED BY IDOCK:   -2.97 KCAL/MOL
REMARK 922        TOTAL FREE ENERGY PREDICTED BY IDOCK:   -4.29 KCAL/MOL
REMARK 923 INTER-LIGAND FREE ENERGY PREDICTED BY IDOCK:   -3.96 KCAL/MOL
REMARK 924 INTRA-LIGAND FREE ENERGY PREDICTED BY IDOCK:   -0.33 KCAL/MOL
REMARK 927      BINDING AFFINITY PREDICTED BY RF-SCORE:    0.00 PKD
ROOT
HETATM    1  C   UNL     1      -8.705   6.371  69.492  1.00  0.00    -0.133 C  
HETATM    2  C   UNL     1      -9.519   5.079  69.373  1.00  0.00    -0.206 C  
HETATM    3  C   UNL     1     -10.821   5.414  70.103  1.00  0.00    -0.215 C  
HETATM    4  C   UNL     1     -10.544   6.758  70.820  1.00  0.00    -0.222 C  
HETATM    5  C   UNL     1     -11.115   7.964  70.018  1.00  0.00    -0.165 C  
HETATM    6  N   UNL     1      -9.079   6.704  70.865  1.00  0.00    -0.154 NA 
HETATM    7  C   UNL     1      -9.163   7.359  68.394  1.00  0.00    -0.138 C  
HETATM    8  C   UNL     1     -10.235   8.414  68.791  1.00  0.00    -0.223 C  
ENDROOT
BRANCH   5   9
HETATM    9  C   UNL     1     -11.495   9.064  71.000  1.00  0.00    -0.295 C  
HETATM   10  O   UNL     1     -10.763   9.532  71.864  1.00  0.00    -0.177 OA 
BRANCH   9  11
HETATM   11  O   UNL     1     -12.767   9.519  70.798  1.00  0.00    -0.203 OA 
HETATM   12  C   UNL     1     -13.580   9.463  71.978  1.00  0.00    -0.433 C  
ENDBRANCH   9  11
ENDBRANCH   5   9
BRANCH   6  13
HETATM   13  C   UNL     1      -8.365   7.795  71.514  1.00  0.00    -0.109 C  
BRANCH  13  14
HETATM   14  C   UNL     1      -6.867   7.535  71.723  1.00  0.00    -0.057 C  
HETATM   15  F   UNL     1      -5.206   6.264  72.745  1.00  0.00    -0.027 F  
HETATM   16  C   UNL     1      -6.561   6.409  72.681  1.00  0.00    -0.064 C  
ENDBRANCH  13  14
ENDBRANCH   6  13
BRANCH   8  17
HETATM   17  C   UNL     1      -9.717   9.865  68.853  1.00  0.00    -0.176 A  
HETATM   18  I   UNL     1      -7.660  14.198  67.976  1.00  0.00    -0.215 I  
HETATM   19  C   UNL     1     -10.503  10.985  68.539  1.00  0.00    -0.210 A  
HETATM   20  C   UNL     1      -9.926  12.244  68.362  1.00  0.00    -0.210 A  
HETATM   21  C   UNL     1      -8.367  10.091  69.162  1.00  0.00    -0.146 A  
HETATM   22  C   UNL     1      -8.549  12.401  68.496  1.00  0.00    -0.060 A  
HETATM   23  C   UNL     1      -7.772  11.334  68.931  1.00  0.00    -0.125 A  
ENDBRANCH   8  17
TORSDOF 5
ENDMDL
MODEL      116
REMARK 921   NORMALIZED FREE ENERGY PREDICTED BY IDOCK:   -2.96 KCAL/MOL
REMARK 922        TOTAL FREE ENERGY PREDICTED BY IDOCK:   -4.28 KCAL/MOL
REMARK 923 INTER-LIGAND FREE ENERGY PREDICTED BY IDOCK:   -3.85 KCAL/MOL
REMARK 924 INTRA-LIGAND FREE ENERGY PREDICTED BY IDOCK:   -0.43 KCAL/MOL
REMARK 927      BINDING AFFINITY PREDICTED BY RF-SCORE:    0.00 PKD
ROOT
HETATM    1  C   UNL     1      -9.077   4.456  64.380  1.00  0.00    -0.152 C  
HETATM    2  C   UNL     1      -8.599   3.055  63.992  1.00  0.00    -0.089 C  
HETATM    3  C   UNL     1      -7.648   2.678  65.130  1.00  0.00    -0.076 C  
HETATM    4  C   UNL     1      -7.437   3.989  65.926  1.00  0.00    -0.084 C  
HETATM    5  C   UNL     1      -8.340   4.043  67.192  1.00  0.00    -0.099 C  
HETATM    6  N   UNL     1      -7.801   4.958  64.885  1.00  0.00    -0.086 NA 
HETATM    7  C   UNL     1     -10.225   4.332  65.409  1.00  0.00    -0.235 C  
HETATM    8  C   UNL     1      -9.842   4.430  66.914  1.00  0.00    -0.235 C  
ENDROOT
BRANCH   5   9
HETATM    9  C   UNL     1      -7.631   4.865  68.260  1.00  0.00    -0.078 C  
HETATM   10  O   UNL     1      -7.096   5.953  68.083  1.00  0.00    -0.073 OA 
BRANCH   9  11
HETATM   11  O   UNL     1      -7.679   4.267  69.487  1.00  0.00    -0.054 OA 
HETATM   12  C   UNL     1      -6.868   3.087  69.570  1.00  0.00    -0.034 C  
ENDBRANCH   9  11
ENDBRANCH   5   9
BRANCH   6  13
HETATM   13  C   UNL     1      -7.708   6.377  65.198  1.00  0.00    -0.100 C  
BRANCH  13  14
HETATM   14  C   UNL     1      -7.955   7.305  64.001  1.00  0.00    -0.087 C  
HETATM   15  F   UNL     1      -8.425   9.451  63.229  1.00  0.00    -0.153 F  
HETATM   16  C   UNL     1      -8.263   8.734  64.379  1.00  0.00    -0.168 C  
ENDBRANCH  13  14
ENDBRANCH   6  13
BRANCH   8  17
HETATM   17  C   UNL     1     -10.331   5.710  67.620  1.00  0.00    -0.266 A  
HETATM   18  I   UNL     1     -10.791   9.751  70.310  1.00  0.00    -0.412 I  
HETATM   19  C   UNL     1     -10.325   6.979  67.019  1.00  0.00    -0.360 A  
HETATM   20  C   UNL     1     -10.533   8.135  67.775  1.00  0.00    -0.279 A  
HETATM   21  C   UNL     1     -10.734   5.633  68.961  1.00  0.00    -0.307 A  
HETATM   22  C   UNL     1     -10.749   8.037  69.147  1.00  0.00    -0.106 A  
HETATM   23  C   UNL     1     -10.886   6.787  69.737  1.00  0.00    -0.316 A  
ENDBRANCH   8  17
TORSDOF 5
ENDMDL
MODEL      117
REMARK 921   NORMALIZED FREE ENERGY PREDICTED BY IDOCK:   -2.95 KCAL/MOL
REMARK 922        TOTAL FREE ENERGY PREDICTED BY IDOCK:   -4.26 KCAL/MOL
REMARK 923 INTER-LIGAND FREE ENERGY PREDICTED BY IDOCK:   -3.87 KCAL/MOL
REMARK 924 INTRA-LIGAND FREE ENERGY PREDICTED BY IDOCK:   -0.39 KCAL/MOL
REMARK 927      BINDING AFFINITY PREDICTED BY RF-SCORE:    0.00 PKD
ROOT
HETATM    1  C   UNL     1      -8.189   4.391  68.699  1.00  0.00    -0.080 C  
HETATM    2  C   UNL     1      -7.647   2.994  69.014  1.00  0.00    -0.047 C  
HETATM    3  C   UNL     1      -7.440   3.030  70.530  1.00  0.00    -0.040 C  
HETATM    4  C   UNL     1      -7.608   4.518  70.922  1.00  0.00    -0.056 C  
HETATM    5  C   UNL     1      -9.032   4.806  71.481  1.00  0.00    -0.162 C  
HETATM    6  N   UNL     1      -7.335   5.137  69.620  1.00  0.00    -0.059 NA 
HETATM    7  C   UNL     1      -9.708   4.421  68.989  1.00  0.00    -0.223 C  
HETATM    8  C   UNL     1     -10.153   4.948  70.383  1.00  0.00    -0.316 C  
ENDROOT
BRANCH   5   9
HETATM    9  C   UNL     1      -8.938   5.949  72.483  1.00  0.00    -0.132 C  
HETATM   10  O   UNL     1      -8.397   7.029  72.284  1.00  0.00    -0.110 OA 
BRANCH   9  11
HETATM   11  O   UNL     1      -9.565   5.654  73.660  1.00  0.00    -0.138 OA 
HETATM   12  C   UNL     1      -9.960   6.819  74.396  1.00  0.00    -0.279 C  
ENDBRANCH   9  11
ENDBRANCH   5   9
BRANCH   6  13
HETATM   13  C   UNL     1      -7.349   6.591  69.528  1.00  0.00    -0.091 C  
BRANCH  13  14
HETATM   14  C   UNL     1      -6.944   7.141  68.154  1.00  0.00    -0.076 C  
HETATM   15  F   UNL     1      -5.343   7.262  66.468  1.00  0.00    -0.020 F  
HETATM   16  C   UNL     1      -5.558   6.738  67.710  1.00  0.00    -0.015 C  
ENDBRANCH  13  14
ENDBRANCH   6  13
BRANCH   8  17
HETATM   17  C   UNL     1     -10.875   6.310  70.355  1.00  0.00    -0.360 A  
HETATM   18  I   UNL     1     -12.453  10.849  71.185  1.00  0.00    -0.411 I  
HETATM   19  C   UNL     1     -10.509   7.366  69.506  1.00  0.00    -0.236 A  
HETATM   20  C   UNL     1     -11.019   8.653  69.693  1.00  0.00    -0.099 A  
HETATM   21  C   UNL     1     -11.904   6.551  71.277  1.00  0.00    -0.385 A  
HETATM   22  C   UNL     1     -11.904   8.902  70.739  1.00  0.00    -0.194 A  
HETATM   23  C   UNL     1     -12.377   7.847  71.510  1.00  0.00    -0.340 A  
ENDBRANCH   8  17
TORSDOF 5
ENDMDL
MODEL      118
REMARK 921   NORMALIZED FREE ENERGY PREDICTED BY IDOCK:   -2.92 KCAL/MOL
REMARK 922        TOTAL FREE ENERGY PREDICTED BY IDOCK:   -4.23 KCAL/MOL
REMARK 923 INTER-LIGAND FREE ENERGY PREDICTED BY IDOCK:   -5.16 KCAL/MOL
REMARK 924 INTRA-LIGAND FREE ENERGY PREDICTED BY IDOCK:    0.92 KCAL/MOL
REMARK 927      BINDING AFFINITY PREDICTED BY RF-SCORE:    0.00 PKD
ROOT
HETATM    1  C   UNL     1      -9.084  10.111  66.158  1.00  0.00    -0.155 C  
HETATM    2  C   UNL     1      -9.711   8.720  66.287  1.00  0.00    -0.342 C  
HETATM    3  C   UNL     1     -10.803   8.921  67.340  1.00  0.00    -0.096 C  
HETATM    4  C   UNL     1     -10.534  10.326  67.932  1.00  0.00    -0.212 C  
HETATM    5  C   UNL     1     -11.461  11.403  67.298  1.00  0.00    -0.301 C  
HETATM    6  N   UNL     1      -9.118  10.465  67.575  1.00  0.00    -0.135 NA 
HETATM    7  C   UNL     1      -9.953  10.971  65.211  1.00  0.00    -0.320 C  
HETATM    8  C   UNL     1     -11.015  11.898  65.871  1.00  0.00    -0.354 C  
ENDROOT
BRANCH   5   9
HETATM    9  C   UNL     1     -11.713  12.495  68.330  1.00  0.00    -0.340 C  
HETATM   10  O   UNL     1     -12.235  13.580  68.106  1.00  0.00    -0.302 OA 
BRANCH   9  11
HETATM   11  O   UNL     1     -11.313  12.123  69.582  1.00  0.00    -0.232 OA 
HETATM   12  C   UNL     1     -12.404  11.964  70.498  1.00  0.00    -0.284 C  
ENDBRANCH   9  11
ENDBRANCH   5   9
BRANCH   6  13
HETATM   13  C   UNL     1      -8.415  11.672  67.988  1.00  0.00    -0.151 C  
BRANCH  13  14
HETATM   14  C   UNL     1      -7.262  12.081  67.061  1.00  0.00    -0.096 C  
HETATM   15  F   UNL     1      -5.151  11.603  66.204  1.00  0.00    -0.117 F  
HETATM   16  C   UNL     1      -6.079  11.143  67.093  1.00  0.00    -0.082 C  
ENDBRANCH  13  14
ENDBRANCH   6  13
BRANCH   8  17
HETATM   17  C   UNL     1     -10.707  13.405  65.765  1.00  0.00    -0.280 A  
HETATM   18  I   UNL     1     -10.479  18.242  66.345  1.00  0.00    -0.120 I  
HETATM   19  C   UNL     1      -9.576  14.009  66.339  1.00  0.00    -0.299 A  
HETATM   20  C   UNL     1      -9.473  15.398  66.437  1.00  0.00    -0.325 A  
HETATM   21  C   UNL     1     -11.637  14.245  65.135  1.00  0.00    -0.355 A  
HETATM   22  C   UNL     1     -10.504  16.205  65.963  1.00  0.00    -0.338 A  
HETATM   23  C   UNL     1     -11.570  15.634  65.280  1.00  0.00     0.081 A  
ENDBRANCH   8  17
TORSDOF 5
ENDMDL
MODEL      119
REMARK 921   NORMALIZED FREE ENERGY PREDICTED BY IDOCK:   -2.92 KCAL/MOL
REMARK 922        TOTAL FREE ENERGY PREDICTED BY IDOCK:   -4.23 KCAL/MOL
REMARK 923 INTER-LIGAND FREE ENERGY PREDICTED BY IDOCK:   -3.93 KCAL/MOL
REMARK 924 INTRA-LIGAND FREE ENERGY PREDICTED BY IDOCK:   -0.30 KCAL/MOL
REMARK 927      BINDING AFFINITY PREDICTED BY RF-SCORE:    0.00 PKD
ROOT
HETATM    1  C   UNL     1     -11.188   6.265  72.250  1.00  0.00    -0.283 C  
HETATM    2  C   UNL     1     -11.484   5.029  73.103  1.00  0.00    -0.362 C  
HETATM    3  C   UNL     1     -10.273   4.128  72.850  1.00  0.00    -0.228 C  
HETATM    4  C   UNL     1      -9.523   4.787  71.667  1.00  0.00    -0.151 C  
HETATM    5  C   UNL     1      -8.320   5.644  72.156  1.00  0.00    -0.115 C  
HETATM    6  N   UNL     1     -10.626   5.568  71.095  1.00  0.00    -0.245 NA 
HETATM    7  C   UNL     1     -10.229   7.197  73.027  1.00  0.00    -0.290 C  
HETATM    8  C   UNL     1      -8.709   7.061  72.725  1.00  0.00    -0.136 C  
ENDROOT
BRANCH   5   9
HETATM    9  C   UNL     1      -7.247   5.636  71.076  1.00  0.00    -0.076 C  
HETATM   10  O   UNL     1      -7.438   5.821  69.880  1.00  0.00    -0.075 OA 
BRANCH   9  11
HETATM   11  O   UNL     1      -5.999   5.425  71.590  1.00  0.00    -0.026 OA 
HETATM   12  C   UNL     1      -5.811   4.093  72.086  1.00  0.00    -0.012 C  
ENDBRANCH   9  11
ENDBRANCH   5   9
BRANCH   6  13
HETATM   13  C   UNL     1     -10.371   6.349  69.892  1.00  0.00    -0.196 C  
BRANCH  13  14
HETATM   14  C   UNL     1     -10.775   5.649  68.587  1.00  0.00    -0.249 C  
HETATM   15  F   UNL     1     -10.963   5.748  66.269  1.00  0.00    -0.307 F  
HETATM   16  C   UNL     1     -10.604   6.499  67.351  1.00  0.00    -0.298 C  
ENDBRANCH  13  14
ENDBRANCH   6  13
BRANCH   8  17
HETATM   17  C   UNL     1      -8.092   8.260  71.977  1.00  0.00    -0.188 A  
HETATM   18  I   UNL     1      -5.595  11.205  68.999  1.00  0.00    -0.041 I  
HETATM   19  C   UNL     1      -8.735   8.936  70.928  1.00  0.00    -0.256 A  
HETATM   20  C   UNL     1      -8.041   9.839  70.120  1.00  0.00    -0.202 A  
HETATM   21  C   UNL     1      -6.786   8.659  72.298  1.00  0.00    -0.058 A  
HETATM   22  C   UNL     1      -6.689  10.078  70.350  1.00  0.00    -0.138 A  
HETATM   23  C   UNL     1      -6.068   9.518  71.460  1.00  0.00    -0.000 A  
ENDBRANCH   8  17
TORSDOF 5
ENDMDL
MODEL      120
REMARK 921   NORMALIZED FREE ENERGY PREDICTED BY IDOCK:   -2.92 KCAL/MOL
REMARK 922        TOTAL FREE ENERGY PREDICTED BY IDOCK:   -4.22 KCAL/MOL
REMARK 923 INTER-LIGAND FREE ENERGY PREDICTED BY IDOCK:   -4.22 KCAL/MOL
REMARK 924 INTRA-LIGAND FREE ENERGY PREDICTED BY IDOCK:   -0.01 KCAL/MOL
REMARK 927      BINDING AFFINITY PREDICTED BY RF-SCORE:    0.00 PKD
ROOT
HETATM    1  C   UNL     1      -9.350   8.658  66.265  1.00  0.00    -0.220 C  
HETATM    2  C   UNL     1      -9.746  10.022  65.694  1.00  0.00    -0.336 C  
HETATM    3  C   UNL     1     -10.447  10.707  66.869  1.00  0.00    -0.304 C  
HETATM    4  C   UNL     1     -10.646   9.589  67.922  1.00  0.00    -0.244 C  
HETATM    5  C   UNL     1      -9.550   9.637  69.025  1.00  0.00    -0.168 C  
HETATM    6  N   UNL     1     -10.564   8.418  67.041  1.00  0.00    -0.300 NA 
HETATM    7  C   UNL     1      -8.036   8.808  67.066  1.00  0.00    -0.095 C  
HETATM    8  C   UNL     1      -8.164   9.019  68.603  1.00  0.00    -0.118 C  
ENDROOT
BRANCH   5   9
HETATM    9  C   UNL     1     -10.144   9.107  70.323  1.00  0.00    -0.206 C  
HETATM   10  O   UNL     1      -9.664   9.258  71.440  1.00  0.00    -0.284 OA 
BRANCH   9  11
HETATM   11  O   UNL     1     -11.324   8.450  70.120  1.00  0.00    -0.195 OA 
HETATM   12  C   UNL     1     -11.724   7.650  71.240  1.00  0.00    -0.284 C  
ENDBRANCH   9  11
ENDBRANCH   5   9
BRANCH   6  13
HETATM   13  C   UNL     1     -10.742   7.097  67.627  1.00  0.00    -0.244 C  
BRANCH  13  14
HETATM   14  C   UNL     1     -10.880   5.964  66.602  1.00  0.00    -0.292 C  
HETATM   15  F   UNL     1     -10.045   3.970  65.736  1.00  0.00    -0.191 F  
HETATM   16  C   UNL     1      -9.782   4.929  66.670  1.00  0.00    -0.184 C  
ENDBRANCH  13  14
ENDBRANCH   6  13
BRANCH   8  17
HETATM   17  C   UNL     1      -7.690   7.826  69.457  1.00  0.00    -0.105 A  
HETATM   18  I   UNL     1      -6.890   4.544  72.974  1.00  0.00    -0.068 I  
HETATM   19  C   UNL     1      -8.265   6.547  69.392  1.00  0.00    -0.119 A  
HETATM   20  C   UNL     1      -7.978   5.578  70.356  1.00  0.00    -0.102 A  
HETATM   21  C   UNL     1      -6.684   8.033  70.412  1.00  0.00    -0.037 A  
HETATM   22  C   UNL     1      -7.111   5.877  71.403  1.00  0.00    -0.077 A  
HETATM   23  C   UNL     1      -6.434   7.091  71.414  1.00  0.00    -0.041 A  
ENDBRANCH   8  17
TORSDOF 5
ENDMDL
MODEL      121
REMARK 921   NORMALIZED FREE ENERGY PREDICTED BY IDOCK:   -2.88 KCAL/MOL
REMARK 922        TOTAL FREE ENERGY PREDICTED BY IDOCK:   -4.17 KCAL/MOL
REMARK 923 INTER-LIGAND FREE ENERGY PREDICTED BY IDOCK:   -3.96 KCAL/MOL
REMARK 924 INTRA-LIGAND FREE ENERGY PREDICTED BY IDOCK:   -0.21 KCAL/MOL
REMARK 927      BINDING AFFINITY PREDICTED BY RF-SCORE:    0.00 PKD
ROOT
HETATM    1  C   UNL     1     -10.648  12.668  68.493  1.00  0.00    -0.243 C  
HETATM    2  C   UNL     1     -11.720  13.110  67.493  1.00  0.00    -0.414 C  
HETATM    3  C   UNL     1     -11.069  12.836  66.135  1.00  0.00    -0.322 C  
HETATM    4  C   UNL     1      -9.587  12.527  66.456  1.00  0.00    -0.242 C  
HETATM    5  C   UNL     1      -9.312  10.996  66.484  1.00  0.00    -0.200 C  
HETATM    6  N   UNL     1      -9.489  13.180  67.767  1.00  0.00    -0.201 NA 
HETATM    7  C   UNL     1     -10.727  11.134  68.673  1.00  0.00    -0.234 C  
HETATM    8  C   UNL     1      -9.770  10.268  67.804  1.00  0.00    -0.178 C  
ENDROOT
BRANCH   5   9
HETATM    9  C   UNL     1      -7.870  10.754  66.060  1.00  0.00    -0.149 C  
HETATM   10  O   UNL     1      -6.880  11.250  66.584  1.00  0.00    -0.135 OA 
BRANCH   9  11
HETATM   11  O   UNL     1      -7.780   9.872  65.020  1.00  0.00    -0.121 OA 
HETATM   12  C   UNL     1      -8.717  10.142  63.969  1.00  0.00    -0.212 C  
ENDBRANCH   9  11
ENDBRANCH   5   9
BRANCH   6  13
HETATM   13  C   UNL     1      -8.203  13.170  68.451  1.00  0.00    -0.130 C  
BRANCH  13  14
HETATM   14  C   UNL     1      -7.351  14.424  68.214  1.00  0.00    -0.122 C  
HETATM   15  F   UNL     1      -6.489  16.415  69.057  1.00  0.00    -0.136 F  
HETATM   16  C   UNL     1      -7.302  15.371  69.389  1.00  0.00    -0.213 C  
ENDBRANCH  13  14
ENDBRANCH   6  13
BRANCH   8  17
HETATM   17  C   UNL     1      -8.645   9.567  68.591  1.00  0.00    -0.119 A  
HETATM   18  I   UNL     1      -5.975   7.020  71.779  1.00  0.00    -0.037 I  
HETATM   19  C   UNL     1      -8.132   8.305  68.253  1.00  0.00    -0.124 A  
HETATM   20  C   UNL     1      -7.303   7.604  69.133  1.00  0.00    -0.089 A  
HETATM   21  C   UNL     1      -8.151  10.174  69.754  1.00  0.00    -0.167 A  
HETATM   22  C   UNL     1      -6.978   8.159  70.368  1.00  0.00    -0.037 A  
HETATM   23  C   UNL     1      -7.370   9.458  70.667  1.00  0.00    -0.140 A  
ENDBRANCH   8  17
TORSDOF 5
ENDMDL
MODEL      122
REMARK 921   NORMALIZED FREE ENERGY PREDICTED BY IDOCK:   -2.86 KCAL/MOL
REMARK 922        TOTAL FREE ENERGY PREDICTED BY IDOCK:   -4.15 KCAL/MOL
REMARK 923 INTER-LIGAND FREE ENERGY PREDICTED BY IDOCK:   -4.64 KCAL/MOL
REMARK 924 INTRA-LIGAND FREE ENERGY PREDICTED BY IDOCK:    0.49 KCAL/MOL
REMARK 927      BINDING AFFINITY PREDICTED BY RF-SCORE:    0.00 PKD
ROOT
HETATM    1  C   UNL     1      -8.154   9.411  64.754  1.00  0.00    -0.131 C  
HETATM    2  C   UNL     1      -8.369   7.914  64.516  1.00  0.00    -0.021 C  
HETATM    3  C   UNL     1      -8.932   7.422  65.852  1.00  0.00    -0.114 C  
HETATM    4  C   UNL     1      -8.732   8.605  66.830  1.00  0.00    -0.124 C  
HETATM    5  C   UNL     1     -10.039   9.432  67.005  1.00  0.00    -0.304 C  
HETATM    6  N   UNL     1      -7.659   9.315  66.125  1.00  0.00    -0.095 NA 
HETATM    7  C   UNL     1      -9.496  10.152  64.555  1.00  0.00    -0.364 C  
HETATM    8  C   UNL     1     -10.347  10.432  65.827  1.00  0.00    -0.257 C  
ENDROOT
BRANCH   5   9
HETATM    9  C   UNL     1     -10.050  10.032  68.405  1.00  0.00    -0.165 C  
HETATM   10  O   UNL     1     -10.734  10.981  68.768  1.00  0.00    -0.180 OA 
BRANCH   9  11
HETATM   11  O   UNL     1      -9.217   9.366  69.257  1.00  0.00    -0.148 OA 
HETATM   12  C   UNL     1      -9.573   9.530  70.637  1.00  0.00    -0.227 C  
ENDBRANCH   9  11
ENDBRANCH   5   9
BRANCH   6  13
HETATM   13  C   UNL     1      -7.112  10.520  66.733  1.00  0.00    -0.109 C  
BRANCH  13  14
HETATM   14  C   UNL     1      -6.023  10.260  67.783  1.00  0.00    -0.045 C  
HETATM   15  F   UNL     1      -5.269  10.565  69.964  1.00  0.00    -0.037 F  
HETATM   16  C   UNL     1      -6.289  10.903  69.123  1.00  0.00    -0.058 C  
ENDBRANCH  13  14
ENDBRANCH   6  13
BRANCH   8  17
HETATM   17  C   UNL     1     -10.427  11.918  66.233  1.00  0.00    -0.274 A  
HETATM   18  I   UNL     1     -10.839  16.164  68.595  1.00  0.00    -0.357 I  
HETATM   19  C   UNL     1      -9.300  12.719  66.475  1.00  0.00    -0.221 A  
HETATM   20  C   UNL     1      -9.422  13.971  67.083  1.00  0.00    -0.241 A  
HETATM   21  C   UNL     1     -11.687  12.493  66.453  1.00  0.00    -0.458 A  
HETATM   22  C   UNL     1     -10.678  14.439  67.459  1.00  0.00    -0.271 A  
HETATM   23  C   UNL     1     -11.816  13.719  67.114  1.00  0.00    -0.441 A  
ENDBRANCH   8  17
TORSDOF 5
ENDMDL
MODEL      123
REMARK 921   NORMALIZED FREE ENERGY PREDICTED BY IDOCK:   -2.84 KCAL/MOL
REMARK 922        TOTAL FREE ENERGY PREDICTED BY IDOCK:   -4.12 KCAL/MOL
REMARK 923 INTER-LIGAND FREE ENERGY PREDICTED BY IDOCK:   -4.71 KCAL/MOL
REMARK 924 INTRA-LIGAND FREE ENERGY PREDICTED BY IDOCK:    0.59 KCAL/MOL
REMARK 927      BINDING AFFINITY PREDICTED BY RF-SCORE:    0.00 PKD
ROOT
HETATM    1  C   UNL     1      -8.445  10.263  67.467  1.00  0.00    -0.118 C  
HETATM    2  C   UNL     1      -8.881  10.967  66.179  1.00  0.00    -0.197 C  
HETATM    3  C   UNL     1      -9.694   9.895  65.449  1.00  0.00    -0.375 C  
HETATM    4  C   UNL     1      -9.425   8.587  66.233  1.00  0.00    -0.231 C  
HETATM    5  C   UNL     1     -10.581   8.264  67.224  1.00  0.00    -0.335 C  
HETATM    6  N   UNL     1      -8.162   8.956  66.881  1.00  0.00    -0.111 NA 
HETATM    7  C   UNL     1      -9.601  10.325  68.492  1.00  0.00    -0.165 C  
HETATM    8  C   UNL     1     -10.553   9.096  68.562  1.00  0.00    -0.209 C  
ENDROOT
BRANCH   5   9
HETATM    9  C   UNL     1     -10.676   6.753  67.384  1.00  0.00    -0.335 C  
HETATM   10  O   UNL     1     -11.385   6.165  68.191  1.00  0.00    -0.234 OA 
BRANCH   9  11
HETATM   11  O   UNL     1      -9.888   6.089  66.488  1.00  0.00    -0.160 OA 
HETATM   12  C   UNL     1     -10.384   4.785  66.157  1.00  0.00    -0.300 C  
ENDBRANCH   9  11
ENDBRANCH   5   9
BRANCH   6  13
HETATM   13  C   UNL     1      -7.501   7.967  67.722  1.00  0.00    -0.097 C  
BRANCH  13  14
HETATM   14  C   UNL     1      -6.212   8.464  68.389  1.00  0.00    -0.054 C  
HETATM   15  F   UNL     1      -5.195   9.433  70.246  1.00  0.00    -0.027 F  
HETATM   16  C   UNL     1      -6.416   9.068  69.758  1.00  0.00    -0.038 C  
ENDBRANCH  13  14
ENDBRANCH   6  13
BRANCH   8  17
HETATM   17  C   UNL     1     -10.430   8.259  69.851  1.00  0.00    -0.223 A  
HETATM   18  I   UNL     1     -10.630   4.812  73.294  1.00  0.00    -0.387 I  
HETATM   19  C   UNL     1      -9.292   7.506  70.183  1.00  0.00    -0.157 A  
HETATM   20  C   UNL     1      -9.323   6.571  71.220  1.00  0.00    -0.158 A  
HETATM   21  C   UNL     1     -11.534   8.171  70.711  1.00  0.00    -0.272 A  
HETATM   22  C   UNL     1     -10.498   6.375  71.941  1.00  0.00    -0.209 A  
HETATM   23  C   UNL     1     -11.594   7.198  71.713  1.00  0.00    -0.314 A  
ENDBRANCH   8  17
TORSDOF 5
ENDMDL
MODEL      124
REMARK 921   NORMALIZED FREE ENERGY PREDICTED BY IDOCK:   -2.84 KCAL/MOL
REMARK 922        TOTAL FREE ENERGY PREDICTED BY IDOCK:   -4.12 KCAL/MOL
REMARK 923 INTER-LIGAND FREE ENERGY PREDICTED BY IDOCK:   -3.90 KCAL/MOL
REMARK 924 INTRA-LIGAND FREE ENERGY PREDICTED BY IDOCK:   -0.22 KCAL/MOL
REMARK 927      BINDING AFFINITY PREDICTED BY RF-SCORE:    0.00 PKD
ROOT
HETATM    1  C   UNL     1     -11.008  11.118  67.090  1.00  0.00    -0.291 C  
HETATM    2  C   UNL     1     -11.685  12.492  67.071  1.00  0.00    -0.437 C  
HETATM    3  C   UNL     1     -10.588  13.432  67.575  1.00  0.00    -0.255 C  
HETATM    4  C   UNL     1      -9.473  12.498  68.106  1.00  0.00    -0.214 C  
HETATM    5  C   UNL     1      -8.330  12.320  67.065  1.00  0.00    -0.168 C  
HETATM    6  N   UNL     1     -10.270  11.288  68.338  1.00  0.00    -0.188 NA 
HETATM    7  C   UNL     1     -10.164  10.954  65.805  1.00  0.00    -0.318 C  
HETATM    8  C   UNL     1      -8.652  11.308  65.901  1.00  0.00    -0.096 C  
ENDROOT
BRANCH   5   9
HETATM    9  C   UNL     1      -7.026  12.078  67.812  1.00  0.00    -0.103 C  
HETATM   10  O   UNL     1      -6.844  11.224  68.671  1.00  0.00    -0.065 OA 
BRANCH   9  11
HETATM   11  O   UNL     1      -6.030  12.915  67.396  1.00  0.00    -0.229 OA 
HETATM   12  C   UNL     1      -5.960  14.130  68.154  1.00  0.00    -0.133 C  
ENDBRANCH   9  11
ENDBRANCH   5   9
BRANCH   6  13
HETATM   13  C   UNL     1      -9.605  10.119  68.896  1.00  0.00    -0.184 C  
BRANCH  13  14
HETATM   14  C   UNL     1     -10.383   8.807  68.723  1.00  0.00    -0.234 C  
HETATM   15  F   UNL     1     -10.865   6.675  69.526  1.00  0.00    -0.231 F  
HETATM   16  C   UNL     1     -10.086   7.767  69.777  1.00  0.00    -0.194 C  
ENDBRANCH  13  14
ENDBRANCH   6  13
BRANCH   8  17
HETATM   17  C   UNL     1      -7.700  10.098  65.803  1.00  0.00    -0.136 A  
HETATM   18  I   UNL     1      -5.226   6.120  64.451  1.00  0.00    -0.018 I  
HETATM   19  C   UNL     1      -6.367  10.191  65.374  1.00  0.00    -0.116 A  
HETATM   20  C   UNL     1      -5.629   9.048  65.059  1.00  0.00    -0.054 A  
HETATM   21  C   UNL     1      -8.202   8.818  66.077  1.00  0.00    -0.118 A  
HETATM   22  C   UNL     1      -6.219   7.791  65.167  1.00  0.00    -0.038 A  
HETATM   23  C   UNL     1      -7.493   7.670  65.709  1.00  0.00    -0.079 A  
ENDBRANCH   8  17
TORSDOF 5
ENDMDL
MODEL      125
REMARK 921   NORMALIZED FREE ENERGY PREDICTED BY IDOCK:   -2.83 KCAL/MOL
REMARK 922        TOTAL FREE ENERGY PREDICTED BY IDOCK:   -4.12 KCAL/MOL
REMARK 923 INTER-LIGAND FREE ENERGY PREDICTED BY IDOCK:   -3.76 KCAL/MOL
REMARK 924 INTRA-LIGAND FREE ENERGY PREDICTED BY IDOCK:   -0.35 KCAL/MOL
REMARK 927      BINDING AFFINITY PREDICTED BY RF-SCORE:    0.00 PKD
ROOT
HETATM    1  C   UNL     1      -6.930   6.622  69.201  1.00  0.00    -0.078 C  
HETATM    2  C   UNL     1      -5.470   7.059  69.058  1.00  0.00    -0.018 C  
HETATM    3  C   UNL     1      -5.572   8.390  68.309  1.00  0.00    -0.034 C  
HETATM    4  C   UNL     1      -7.044   8.472  67.838  1.00  0.00    -0.086 C  
HETATM    5  C   UNL     1      -7.901   9.361  68.785  1.00  0.00    -0.084 C  
HETATM    6  N   UNL     1      -7.385   7.045  67.879  1.00  0.00    -0.094 NA 
HETATM    7  C   UNL     1      -7.558   7.349  70.413  1.00  0.00    -0.091 C  
HETATM    8  C   UNL     1      -8.348   8.658  70.122  1.00  0.00    -0.126 C  
ENDROOT
BRANCH   5   9
HETATM    9  C   UNL     1      -9.015  10.005  67.970  1.00  0.00    -0.128 C  
HETATM   10  O   UNL     1      -9.720   9.432  67.149  1.00  0.00    -0.156 OA 
BRANCH   9  11
HETATM   11  O   UNL     1      -9.181  11.325  68.278  1.00  0.00    -0.163 OA 
HETATM   12  C   UNL     1      -7.945  12.049  68.341  1.00  0.00    -0.152 C  
ENDBRANCH   9  11
ENDBRANCH   5   9
BRANCH   6  13
HETATM   13  C   UNL     1      -8.720   6.640  67.461  1.00  0.00    -0.118 C  
BRANCH  13  14
HETATM   14  C   UNL     1      -8.796   5.223  66.876  1.00  0.00    -0.110 C  
HETATM   15  F   UNL     1      -7.733   3.501  65.725  1.00  0.00    -0.078 F  
HETATM   16  C   UNL     1      -7.542   4.780  66.161  1.00  0.00    -0.090 C  
ENDBRANCH  13  14
ENDBRANCH   6  13
BRANCH   8  17
HETATM   17  C   UNL     1      -9.872   8.549  70.329  1.00  0.00    -0.194 A  
HETATM   18  I   UNL     1     -14.374   7.616  71.952  1.00  0.00    -0.435 I  
HETATM   19  C   UNL     1     -10.651   9.562  70.911  1.00  0.00    -0.395 A  
HETATM   20  C   UNL     1     -11.968   9.319  71.308  1.00  0.00    -0.414 A  
HETATM   21  C   UNL     1     -10.517   7.350  69.994  1.00  0.00    -0.233 A  
HETATM   22  C   UNL     1     -12.525   8.056  71.129  1.00  0.00    -0.192 A  
HETATM   23  C   UNL     1     -11.815   7.080  70.440  1.00  0.00    -0.295 A  
ENDBRANCH   8  17
TORSDOF 5
ENDMDL
MODEL      126
REMARK 921   NORMALIZED FREE ENERGY PREDICTED BY IDOCK:   -2.82 KCAL/MOL
REMARK 922        TOTAL FREE ENERGY PREDICTED BY IDOCK:   -4.09 KCAL/MOL
REMARK 923 INTER-LIGAND FREE ENERGY PREDICTED BY IDOCK:   -4.40 KCAL/MOL
REMARK 924 INTRA-LIGAND FREE ENERGY PREDICTED BY IDOCK:    0.30 KCAL/MOL
REMARK 927      BINDING AFFINITY PREDICTED BY RF-SCORE:    0.00 PKD
ROOT
HETATM    1  C   UNL     1     -10.134   9.604  70.305  1.00  0.00    -0.275 C  
HETATM    2  C   UNL     1     -11.434  10.325  70.674  1.00  0.00    -0.435 C  
HETATM    3  C   UNL     1     -11.825  11.035  69.375  1.00  0.00    -0.407 C  
HETATM    4  C   UNL     1     -10.586  10.899  68.457  1.00  0.00    -0.190 C  
HETATM    5  C   UNL     1     -10.752   9.735  67.438  1.00  0.00    -0.314 C  
HETATM    6  N   UNL     1      -9.560  10.663  69.479  1.00  0.00    -0.105 NA 
HETATM    7  C   UNL     1     -10.478   8.278  69.587  1.00  0.00    -0.221 C  
HETATM    8  C   UNL     1     -10.494   8.298  68.032  1.00  0.00    -0.239 C  
ENDROOT
BRANCH   5   9
HETATM    9  C   UNL     1      -9.973  10.080  66.176  1.00  0.00    -0.256 C  
HETATM   10  O   UNL     1      -9.726   9.308  65.257  1.00  0.00    -0.216 OA 
BRANCH   9  11
HETATM   11  O   UNL     1      -9.589  11.390  66.149  1.00  0.00    -0.204 OA 
HETATM   12  C   UNL     1     -10.085  12.101  65.007  1.00  0.00    -0.263 C  
ENDBRANCH   9  11
ENDBRANCH   5   9
BRANCH   6  13
HETATM   13  C   UNL     1      -8.177  10.510  69.049  1.00  0.00    -0.145 C  
BRANCH  13  14
HETATM   14  C   UNL     1      -7.492  11.822  68.643  1.00  0.00    -0.120 C  
HETATM   15  F   UNL     1      -5.903  12.895  67.323  1.00  0.00    -0.143 F  
HETATM   16  C   UNL     1      -6.398  11.658  67.615  1.00  0.00    -0.072 C  
ENDBRANCH  13  14
ENDBRANCH   6  13
BRANCH   8  17
HETATM   17  C   UNL     1      -9.347   7.510  67.367  1.00  0.00    -0.164 A  
HETATM   18  I   UNL     1      -5.966   5.716  64.345  1.00  0.00    -0.026 I  
HETATM   19  C   UNL     1      -7.989   7.819  67.542  1.00  0.00    -0.123 A  
HETATM   20  C   UNL     1      -7.009   7.248  66.727  1.00  0.00    -0.074 A  
HETATM   21  C   UNL     1      -9.664   6.476  66.474  1.00  0.00    -0.177 A  
HETATM   22  C   UNL     1      -7.376   6.357  65.722  1.00  0.00    -0.080 A  
HETATM   23  C   UNL     1      -8.698   5.942  65.616  1.00  0.00    -0.149 A  
ENDBRANCH   8  17
TORSDOF 5
ENDMDL
MODEL      127
REMARK 921   NORMALIZED FREE ENERGY PREDICTED BY IDOCK:   -2.81 KCAL/MOL
REMARK 922        TOTAL FREE ENERGY PREDICTED BY IDOCK:   -4.08 KCAL/MOL
REMARK 923 INTER-LIGAND FREE ENERGY PREDICTED BY IDOCK:   -6.73 KCAL/MOL
REMARK 924 INTRA-LIGAND FREE ENERGY PREDICTED BY IDOCK:    2.65 KCAL/MOL
REMARK 927      BINDING AFFINITY PREDICTED BY RF-SCORE:    0.00 PKD
ROOT
HETATM    1  C   UNL     1     -10.745  18.707  67.289  1.00  0.00    -0.394 C  
HETATM    2  C   UNL     1     -10.125  20.096  67.113  1.00  0.00    -0.590 C  
HETATM    3  C   UNL     1      -8.643  19.862  67.418  1.00  0.00    -0.392 C  
HETATM    4  C   UNL     1      -8.578  18.434  68.014  1.00  0.00    -0.272 C  
HETATM    5  C   UNL     1      -8.145  17.387  66.948  1.00  0.00    -0.255 C  
HETATM    6  N   UNL     1      -9.969  18.301  68.459  1.00  0.00    -0.377 NA 
HETATM    7  C   UNL     1     -10.524  17.888  65.996  1.00  0.00    -0.293 C  
HETATM    8  C   UNL     1      -9.288  16.943  65.958  1.00  0.00    -0.214 C  
ENDROOT
BRANCH   5   9
HETATM    9  C   UNL     1      -7.400  16.259  67.649  1.00  0.00    -0.140 C  
HETATM   10  O   UNL     1      -6.657  15.451  67.108  1.00  0.00    -0.292 OA 
BRANCH   9  11
HETATM   11  O   UNL     1      -7.625  16.253  68.997  1.00  0.00    -0.198 OA 
HETATM   12  C   UNL     1      -6.439  16.013  69.765  1.00  0.00    -0.164 C  
ENDBRANCH   9  11
ENDBRANCH   5   9
BRANCH   6  13
HETATM   13  C   UNL     1     -10.364  17.075  69.139  1.00  0.00    -0.313 C  
BRANCH  13  14
HETATM   14  C   UNL     1     -11.576  16.369  68.518  1.00  0.00    -0.100 C  
HETATM   15  F   UNL     1     -12.733  14.381  68.155  1.00  0.00    -0.066 F  
HETATM   16  C   UNL     1     -11.593  14.873  68.722  1.00  0.00    -0.323 C  
ENDBRANCH  13  14
ENDBRANCH   6  13
BRANCH   8  17
HETATM   17  C   UNL     1      -9.627  15.439  65.981  1.00  0.00    -0.382 A  
HETATM   18  I   UNL     1      -9.942  10.645  65.148  1.00  0.00    -0.363 I  
HETATM   19  C   UNL     1      -9.012  14.517  66.843  1.00  0.00    -0.267 A  
HETATM   20  C   UNL     1      -9.163  13.141  66.653  1.00  0.00    -0.220 A  
HETATM   21  C   UNL     1     -10.539  14.936  65.042  1.00  0.00    -0.446 A  
HETATM   22  C   UNL     1      -9.932  12.668  65.593  1.00  0.00    -0.242 A  
HETATM   23  C   UNL     1     -10.650  13.562  64.808  1.00  0.00    -0.429 A  
ENDBRANCH   8  17
TORSDOF 5
ENDMDL
MODEL      128
REMARK 921   NORMALIZED FREE ENERGY PREDICTED BY IDOCK:   -2.80 KCAL/MOL
REMARK 922        TOTAL FREE ENERGY PREDICTED BY IDOCK:   -4.07 KCAL/MOL
REMARK 923 INTER-LIGAND FREE ENERGY PREDICTED BY IDOCK:   -3.75 KCAL/MOL
REMARK 924 INTRA-LIGAND FREE ENERGY PREDICTED BY IDOCK:   -0.33 KCAL/MOL
REMARK 927      BINDING AFFINITY PREDICTED BY RF-SCORE:    0.00 PKD
ROOT
HETATM    1  C   UNL     1      -9.316   7.756  70.982  1.00  0.00    -0.152 C  
HETATM    2  C   UNL     1      -8.442   8.222  72.149  1.00  0.00    -0.239 C  
HETATM    3  C   UNL     1      -8.011   6.911  72.812  1.00  0.00    -0.108 C  
HETATM    4  C   UNL     1      -8.890   5.821  72.153  1.00  0.00    -0.137 C  
HETATM    5  C   UNL     1      -8.125   5.073  71.023  1.00  0.00    -0.101 C  
HETATM    6  N   UNL     1      -9.993   6.664  71.677  1.00  0.00    -0.174 NA 
HETATM    7  C   UNL     1      -8.406   7.359  69.796  1.00  0.00    -0.134 C  
HETATM    8  C   UNL     1      -8.036   5.854  69.658  1.00  0.00    -0.106 C  
ENDROOT
BRANCH   5   9
HETATM    9  C   UNL     1      -8.657   3.648  70.938  1.00  0.00    -0.072 C  
HETATM   10  O   UNL     1      -9.834   3.333  70.814  1.00  0.00    -0.150 OA 
BRANCH   9  11
HETATM   11  O   UNL     1      -7.656   2.721  70.983  1.00  0.00    -0.036 OA 
HETATM   12  C   UNL     1      -6.825   2.843  72.146  1.00  0.00    -0.023 C  
ENDBRANCH   9  11
ENDBRANCH   5   9
BRANCH   6  13
HETATM   13  C   UNL     1     -11.112   6.022  71.001  1.00  0.00    -0.282 C  
BRANCH  13  14
HETATM   14  C   UNL     1     -12.327   6.935  70.783  1.00  0.00    -0.314 C  
HETATM   15  F   UNL     1     -13.931   8.344  71.711  1.00  0.00    -0.365 F  
HETATM   16  C   UNL     1     -12.887   7.533  72.051  1.00  0.00    -0.195 C  
ENDBRANCH  13  14
ENDBRANCH   6  13
BRANCH   8  17
HETATM   17  C   UNL     1      -8.680   5.142  68.451  1.00  0.00    -0.104 A  
HETATM   18  I   UNL     1     -10.257   3.798  64.038  1.00  0.00    -0.152 I  
HETATM   19  C   UNL     1      -8.073   4.079  67.763  1.00  0.00    -0.090 A  
HETATM   20  C   UNL     1      -8.569   3.640  66.533  1.00  0.00    -0.115 A  
HETATM   21  C   UNL     1      -9.900   5.621  67.953  1.00  0.00    -0.158 A  
HETATM   22  C   UNL     1      -9.681   4.262  65.973  1.00  0.00    -0.211 A  
HETATM   23  C   UNL     1     -10.370   5.228  66.696  1.00  0.00    -0.330 A  
ENDBRANCH   8  17
TORSDOF 5
ENDMDL
MODEL      129
REMARK 921   NORMALIZED FREE ENERGY PREDICTED BY IDOCK:   -2.77 KCAL/MOL
REMARK 922        TOTAL FREE ENERGY PREDICTED BY IDOCK:   -4.03 KCAL/MOL
REMARK 923 INTER-LIGAND FREE ENERGY PREDICTED BY IDOCK:   -4.29 KCAL/MOL
REMARK 924 INTRA-LIGAND FREE ENERGY PREDICTED BY IDOCK:    0.26 KCAL/MOL
REMARK 927      BINDING AFFINITY PREDICTED BY RF-SCORE:    0.00 PKD
ROOT
HETATM    1  C   UNL     1     -10.591   7.077  71.705  1.00  0.00    -0.204 C  
HETATM    2  C   UNL     1     -11.085   8.480  72.071  1.00  0.00    -0.412 C  
HETATM    3  C   UNL     1     -10.430   9.371  71.012  1.00  0.00    -0.392 C  
HETATM    4  C   UNL     1      -9.400   8.459  70.303  1.00  0.00    -0.164 C  
HETATM    5  C   UNL     1      -9.954   7.903  68.960  1.00  0.00    -0.188 C  
HETATM    6  N   UNL     1      -9.223   7.445  71.349  1.00  0.00    -0.142 NA 
HETATM    7  C   UNL     1     -11.473   6.513  70.566  1.00  0.00    -0.448 C  
HETATM    8  C   UNL     1     -10.951   6.692  69.111  1.00  0.00    -0.338 C  
ENDROOT
BRANCH   5   9
HETATM    9  C   UNL     1      -8.788   7.686  68.005  1.00  0.00    -0.127 C  
HETATM   10  O   UNL     1      -8.820   7.851  66.792  1.00  0.00    -0.127 OA 
BRANCH   9  11
HETATM   11  O   UNL     1      -7.651   7.306  68.659  1.00  0.00    -0.108 OA 
HETATM   12  C   UNL     1      -6.451   7.688  67.973  1.00  0.00    -0.054 C  
ENDBRANCH   9  11
ENDBRANCH   5   9
BRANCH   6  13
HETATM   13  C   UNL     1      -8.272   6.368  71.114  1.00  0.00    -0.122 C  
BRANCH  13  14
HETATM   14  C   UNL     1      -6.973   6.483  71.923  1.00  0.00    -0.072 C  
HETATM   15  F   UNL     1      -5.931   7.117  73.906  1.00  0.00    -0.056 F  
HETATM   16  C   UNL     1      -7.147   7.108  73.287  1.00  0.00    -0.072 C  
ENDBRANCH  13  14
ENDBRANCH   6  13
BRANCH   8  17
HETATM   17  C   UNL     1     -10.506   5.386  68.423  1.00  0.00    -0.191 A  
HETATM   18  I   UNL     1      -8.158   1.904  65.943  1.00  0.00    -0.094 I  
HETATM   19  C   UNL     1      -9.861   4.335  69.094  1.00  0.00    -0.163 A  
HETATM   20  C   UNL     1      -9.253   3.294  68.388  1.00  0.00    -0.235 A  
HETATM   21  C   UNL     1     -10.675   5.259  67.036  1.00  0.00    -0.172 A  
HETATM   22  C   UNL     1      -9.280   3.292  66.996  1.00  0.00    -0.180 A  
HETATM   23  C   UNL     1     -10.021   4.253  66.318  1.00  0.00    -0.229 A  
ENDBRANCH   8  17
TORSDOF 5
ENDMDL
MODEL      130
REMARK 921   NORMALIZED FREE ENERGY PREDICTED BY IDOCK:   -2.75 KCAL/MOL
REMARK 922        TOTAL FREE ENERGY PREDICTED BY IDOCK:   -4.01 KCAL/MOL
REMARK 923 INTER-LIGAND FREE ENERGY PREDICTED BY IDOCK:   -4.15 KCAL/MOL
REMARK 924 INTRA-LIGAND FREE ENERGY PREDICTED BY IDOCK:    0.14 KCAL/MOL
REMARK 927      BINDING AFFINITY PREDICTED BY RF-SCORE:    0.00 PKD
ROOT
HETATM    1  C   UNL     1     -10.523   7.914  68.182  1.00  0.00    -0.173 C  
HETATM    2  C   UNL     1     -10.506   8.363  66.719  1.00  0.00    -0.315 C  
HETATM    3  C   UNL     1      -9.149   7.867  66.213  1.00  0.00    -0.224 C  
HETATM    4  C   UNL     1      -8.385   7.428  67.485  1.00  0.00    -0.113 C  
HETATM    5  C   UNL     1      -8.456   5.887  67.694  1.00  0.00    -0.103 C  
HETATM    6  N   UNL     1      -9.124   8.206  68.486  1.00  0.00    -0.137 NA 
HETATM    7  C   UNL     1     -10.948   6.429  68.250  1.00  0.00    -0.396 C  
HETATM    8  C   UNL     1      -9.812   5.368  68.306  1.00  0.00    -0.196 C  
ENDROOT
BRANCH   5   9
HETATM    9  C   UNL     1      -7.190   5.435  68.410  1.00  0.00    -0.071 C  
HETATM   10  O   UNL     1      -6.610   4.371  68.229  1.00  0.00    -0.044 OA 
BRANCH   9  11
HETATM   11  O   UNL     1      -6.726   6.378  69.282  1.00  0.00    -0.045 OA 
HETATM   12  C   UNL     1      -5.523   5.982  69.955  1.00  0.00    -0.013 C  
ENDBRANCH   9  11
ENDBRANCH   5   9
BRANCH   6  13
HETATM   13  C   UNL     1      -8.702   8.123  69.877  1.00  0.00    -0.138 C  
BRANCH  13  14
HETATM   14  C   UNL     1      -8.184   9.445  70.460  1.00  0.00    -0.221 C  
HETATM   15  F   UNL     1      -6.493  11.044  70.536  1.00  0.00    -0.151 F  
HETATM   16  C   UNL     1      -6.813   9.844  69.970  1.00  0.00    -0.110 C  
ENDBRANCH  13  14
ENDBRANCH   6  13
BRANCH   8  17
HETATM   17  C   UNL     1      -9.683   4.633  69.656  1.00  0.00    -0.283 A  
HETATM   18  I   UNL     1     -10.450   2.226  73.826  1.00  0.00    -0.275 I  
HETATM   19  C   UNL     1      -9.359   3.272  69.771  1.00  0.00    -0.229 A  
HETATM   20  C   UNL     1      -9.505   2.597  70.985  1.00  0.00    -0.224 A  
HETATM   21  C   UNL     1      -9.981   5.328  70.837  1.00  0.00    -0.274 A  
HETATM   22  C   UNL     1      -9.981   3.276  72.103  1.00  0.00    -0.161 A  
HETATM   23  C   UNL     1     -10.185   4.649  72.042  1.00  0.00    -0.258 A  
ENDBRANCH   8  17
TORSDOF 5
ENDMDL
MODEL      131
REMARK 921   NORMALIZED FREE ENERGY PREDICTED BY IDOCK:   -2.70 KCAL/MOL
REMARK 922        TOTAL FREE ENERGY PREDICTED BY IDOCK:   -3.94 KCAL/MOL
REMARK 923 INTER-LIGAND FREE ENERGY PREDICTED BY IDOCK:   -4.11 KCAL/MOL
REMARK 924 INTRA-LIGAND FREE ENERGY PREDICTED BY IDOCK:    0.17 KCAL/MOL
REMARK 927      BINDING AFFINITY PREDICTED BY RF-SCORE:    0.00 PKD
ROOT
HETATM    1  C   UNL     1      -9.060   9.475  64.615  1.00  0.00    -0.210 C  
HETATM    2  C   UNL     1      -9.583  10.387  63.501  1.00  0.00    -0.361 C  
HETATM    3  C   UNL     1     -10.147  11.587  64.265  1.00  0.00    -0.338 C  
HETATM    4  C   UNL     1     -10.160  11.147  65.749  1.00  0.00    -0.249 C  
HETATM    5  C   UNL     1      -8.929  11.702  66.523  1.00  0.00    -0.191 C  
HETATM    6  N   UNL     1     -10.149   9.692  65.564  1.00  0.00    -0.220 NA 
HETATM    7  C   UNL     1      -7.658   9.962  65.049  1.00  0.00    -0.134 C  
HETATM    8  C   UNL     1      -7.588  10.912  66.279  1.00  0.00    -0.136 C  
ENDROOT
BRANCH   5   9
HETATM    9  C   UNL     1      -9.323  11.907  67.979  1.00  0.00    -0.193 C  
HETATM   10  O   UNL     1      -9.045  12.885  68.662  1.00  0.00    -0.096 OA 
BRANCH   9  11
HETATM   11  O   UNL     1     -10.071  10.871  68.461  1.00  0.00    -0.169 OA 
HETATM   12  C   UNL     1     -11.121  11.295  69.341  1.00  0.00    -0.257 C  
ENDBRANCH   9  11
ENDBRANCH   5   9
BRANCH   6  13
HETATM   13  C   UNL     1     -10.195   8.843  66.746  1.00  0.00    -0.278 C  
BRANCH  13  14
HETATM   14  C   UNL     1     -10.009   7.347  66.459  1.00  0.00    -0.194 C  
HETATM   15  F   UNL     1     -10.738   5.163  66.806  1.00  0.00    -0.287 F  
HETATM   16  C   UNL     1     -10.992   6.452  67.175  1.00  0.00    -0.399 C  
ENDBRANCH  13  14
ENDBRANCH   6  13
BRANCH   8  17
HETATM   17  C   UNL     1      -6.957  10.287  67.540  1.00  0.00    -0.085 A  
HETATM   18  I   UNL     1      -5.914   8.768  72.055  1.00  0.00    -0.029 I  
HETATM   19  C   UNL     1      -7.114   8.939  67.900  1.00  0.00    -0.079 A  
HETATM   20  C   UNL     1      -6.745   8.484  69.168  1.00  0.00    -0.047 A  
HETATM   21  C   UNL     1      -6.253  11.114  68.427  1.00  0.00    -0.045 A  
HETATM   22  C   UNL     1      -6.213   9.375  70.097  1.00  0.00    -0.055 A  
HETATM   23  C   UNL     1      -5.933  10.682  69.717  1.00  0.00    -0.062 A  
ENDBRANCH   8  17
TORSDOF 5
ENDMDL
MODEL      132
REMARK 921   NORMALIZED FREE ENERGY PREDICTED BY IDOCK:   -2.69 KCAL/MOL
REMARK 922        TOTAL FREE ENERGY PREDICTED BY IDOCK:   -3.93 KCAL/MOL
REMARK 923 INTER-LIGAND FREE ENERGY PREDICTED BY IDOCK:   -4.20 KCAL/MOL
REMARK 924 INTRA-LIGAND FREE ENERGY PREDICTED BY IDOCK:    0.27 KCAL/MOL
REMARK 927      BINDING AFFINITY PREDICTED BY RF-SCORE:    0.00 PKD
ROOT
HETATM    1  C   UNL     1      -7.235   8.385  71.942  1.00  0.00    -0.095 C  
HETATM    2  C   UNL     1      -6.746   8.585  73.379  1.00  0.00    -0.080 C  
HETATM    3  C   UNL     1      -7.829   7.902  74.218  1.00  0.00    -0.261 C  
HETATM    4  C   UNL     1      -8.982   7.615  73.226  1.00  0.00    -0.205 C  
HETATM    5  C   UNL     1      -8.958   6.142  72.727  1.00  0.00    -0.126 C  
HETATM    6  N   UNL     1      -8.657   8.606  72.194  1.00  0.00    -0.345 NA 
HETATM    7  C   UNL     1      -6.830   6.972  71.463  1.00  0.00    -0.064 C  
HETATM    8  C   UNL     1      -7.893   5.844  71.606  1.00  0.00    -0.106 C  
ENDROOT
BRANCH   5   9
HETATM    9  C   UNL     1     -10.385   5.710  72.418  1.00  0.00    -0.203 C  
HETATM   10  O   UNL     1     -10.725   4.601  72.024  1.00  0.00    -0.128 OA 
BRANCH   9  11
HETATM   11  O   UNL     1     -11.288   6.706  72.659  1.00  0.00    -0.261 OA 
HETATM   12  C   UNL     1     -12.479   6.591  71.868  1.00  0.00    -0.240 C  
ENDBRANCH   9  11
ENDBRANCH   5   9
BRANCH   6  13
HETATM   13  C   UNL     1      -9.538   8.719  71.040  1.00  0.00    -0.229 C  
BRANCH  13  14
HETATM   14  C   UNL     1     -10.765   9.613  71.266  1.00  0.00    -0.317 C  
HETATM   15  F   UNL     1     -12.306  11.114  70.377  1.00  0.00    -0.344 F  
HETATM   16  C   UNL     1     -11.194  10.395  70.048  1.00  0.00    -0.316 C  
ENDBRANCH  13  14
ENDBRANCH   6  13
BRANCH   8  17
HETATM   17  C   UNL     1      -8.471   5.333  70.271  1.00  0.00    -0.111 A  
HETATM   18  I   UNL     1      -9.242   4.029  65.636  1.00  0.00    -0.185 I  
HETATM   19  C   UNL     1      -8.482   3.980  69.896  1.00  0.00    -0.089 A  
HETATM   20  C   UNL     1      -8.778   3.597  68.586  1.00  0.00    -0.139 A  
HETATM   21  C   UNL     1      -8.945   6.265  69.336  1.00  0.00    -0.126 A  
HETATM   22  C   UNL     1      -9.066   4.566  67.629  1.00  0.00    -0.122 A  
HETATM   23  C   UNL     1      -9.186   5.898  68.008  1.00  0.00    -0.112 A  
ENDBRANCH   8  17
TORSDOF 5
ENDMDL
MODEL      133
REMARK 921   NORMALIZED FREE ENERGY PREDICTED BY IDOCK:   -2.69 KCAL/MOL
REMARK 922        TOTAL FREE ENERGY PREDICTED BY IDOCK:   -3.93 KCAL/MOL
REMARK 923 INTER-LIGAND FREE ENERGY PREDICTED BY IDOCK:   -3.94 KCAL/MOL
REMARK 924 INTRA-LIGAND FREE ENERGY PREDICTED BY IDOCK:    0.01 KCAL/MOL
REMARK 927      BINDING AFFINITY PREDICTED BY RF-SCORE:    0.00 PKD
ROOT
HETATM    1  C   UNL     1      -8.820  10.240  68.984  1.00  0.00    -0.168 C  
HETATM    2  C   UNL     1      -9.949  11.274  69.010  1.00  0.00    -0.124 C  
HETATM    3  C   UNL     1     -11.199  10.439  68.717  1.00  0.00    -0.295 C  
HETATM    4  C   UNL     1     -10.661   9.057  68.272  1.00  0.00    -0.163 C  
HETATM    5  C   UNL     1     -10.694   8.026  69.437  1.00  0.00    -0.167 C  
HETATM    6  N   UNL     1      -9.311   9.452  67.856  1.00  0.00    -0.129 NA 
HETATM    7  C   UNL     1      -8.761   9.523  70.353  1.00  0.00    -0.265 C  
HETATM    8  C   UNL     1      -9.520   8.170  70.477  1.00  0.00    -0.168 C  
ENDROOT
BRANCH   5   9
HETATM    9  C   UNL     1     -10.892   6.635  68.849  1.00  0.00    -0.277 C  
HETATM   10  O   UNL     1     -11.033   5.603  69.492  1.00  0.00    -0.334 OA 
BRANCH   9  11
HETATM   11  O   UNL     1     -10.930   6.654  67.483  1.00  0.00    -0.309 OA 
HETATM   12  C   UNL     1     -10.553   5.403  66.891  1.00  0.00    -0.250 C  
ENDBRANCH   9  11
ENDBRANCH   5   9
BRANCH   6  13
HETATM   13  C   UNL     1      -8.428   8.431  67.309  1.00  0.00    -0.124 C  
BRANCH  13  14
HETATM   14  C   UNL     1      -8.431   8.347  65.777  1.00  0.00    -0.169 C  
HETATM   15  F   UNL     1      -8.774   9.421  63.740  1.00  0.00    -0.185 F  
HETATM   16  C   UNL     1      -8.850   9.623  65.088  1.00  0.00    -0.180 C  
ENDBRANCH  13  14
ENDBRANCH   6  13
BRANCH   8  17
HETATM   17  C   UNL     1      -8.609   6.932  70.613  1.00  0.00    -0.141 A  
HETATM   18  I   UNL     1      -6.689   2.450  70.657  1.00  0.00    -0.033 I  
HETATM   19  C   UNL     1      -7.686   6.535  69.633  1.00  0.00    -0.103 A  
HETATM   20  C   UNL     1      -7.075   5.280  69.684  1.00  0.00    -0.059 A  
HETATM   21  C   UNL     1      -8.755   6.104  71.735  1.00  0.00    -0.137 A  
HETATM   22  C   UNL     1      -7.382   4.402  70.720  1.00  0.00    -0.048 A  
HETATM   23  C   UNL     1      -8.194   4.823  71.766  1.00  0.00    -0.109 A  
ENDBRANCH   8  17
TORSDOF 5
ENDMDL
MODEL      134
REMARK 921   NORMALIZED FREE ENERGY PREDICTED BY IDOCK:   -2.64 KCAL/MOL
REMARK 922        TOTAL FREE ENERGY PREDICTED BY IDOCK:   -3.87 KCAL/MOL
REMARK 923 INTER-LIGAND FREE ENERGY PREDICTED BY IDOCK:   -3.63 KCAL/MOL
REMARK 924 INTRA-LIGAND FREE ENERGY PREDICTED BY IDOCK:   -0.23 KCAL/MOL
REMARK 927      BINDING AFFINITY PREDICTED BY RF-SCORE:    0.00 PKD
ROOT
HETATM    1  C   UNL     1      -9.396   8.547  72.754  1.00  0.00    -0.168 C  
HETATM    2  C   UNL     1      -9.516   7.934  74.151  1.00  0.00     0.353 C  
HETATM    3  C   UNL     1      -9.913   6.483  73.867  1.00  0.00    -0.297 C  
HETATM    4  C   UNL     1     -10.262   6.452  72.359  1.00  0.00    -0.186 C  
HETATM    5  C   UNL     1      -9.080   5.908  71.507  1.00  0.00    -0.150 C  
HETATM    6  N   UNL     1     -10.547   7.877  72.154  1.00  0.00    -0.235 NA 
HETATM    7  C   UNL     1      -8.010   8.197  72.165  1.00  0.00    -0.168 C  
HETATM    8  C   UNL     1      -7.928   6.949  71.239  1.00  0.00    -0.108 C  
ENDROOT
BRANCH   5   9
HETATM    9  C   UNL     1      -9.646   5.215  70.275  1.00  0.00    -0.184 C  
HETATM   10  O   UNL     1     -10.703   5.494  69.724  1.00  0.00    -0.322 OA 
BRANCH   9  11
HETATM   11  O   UNL     1      -8.817   4.236  69.808  1.00  0.00    -0.078 OA 
HETATM   12  C   UNL     1      -9.522   3.114  69.260  1.00  0.00    -0.109 C  
ENDBRANCH   9  11
ENDBRANCH   5   9
BRANCH   6  13
HETATM   13  C   UNL     1     -10.971   8.314  70.831  1.00  0.00    -0.246 C  
BRANCH  13  14
HETATM   14  C   UNL     1     -11.164   9.831  70.698  1.00  0.00    -0.402 C  
HETATM   15  F   UNL     1     -12.634  11.633  70.583  1.00  0.00    -0.386 F  
HETATM   16  C   UNL     1     -12.608  10.271  70.667  1.00  0.00    -0.304 C  
ENDBRANCH  13  14
ENDBRANCH   6  13
BRANCH   8  17
HETATM   17  C   UNL     1      -7.664   7.267  69.754  1.00  0.00    -0.107 A  
HETATM   18  I   UNL     1      -7.396   7.253  64.885  1.00  0.00    -0.100 I  
HETATM   19  C   UNL     1      -8.474   8.119  68.986  1.00  0.00    -0.129 A  
HETATM   20  C   UNL     1      -8.348   8.174  67.596  1.00  0.00    -0.127 A  
HETATM   21  C   UNL     1      -6.608   6.617  69.098  1.00  0.00    -0.041 A  
HETATM   22  C   UNL     1      -7.407   7.374  66.953  1.00  0.00    -0.093 A  
HETATM   23  C   UNL     1      -6.512   6.621  67.703  1.00  0.00    -0.045 A  
ENDBRANCH   8  17
TORSDOF 5
ENDMDL
MODEL      135
REMARK 921   NORMALIZED FREE ENERGY PREDICTED BY IDOCK:   -2.64 KCAL/MOL
REMARK 922        TOTAL FREE ENERGY PREDICTED BY IDOCK:   -3.86 KCAL/MOL
REMARK 923 INTER-LIGAND FREE ENERGY PREDICTED BY IDOCK:   -3.85 KCAL/MOL
REMARK 924 INTRA-LIGAND FREE ENERGY PREDICTED BY IDOCK:   -0.02 KCAL/MOL
REMARK 927      BINDING AFFINITY PREDICTED BY RF-SCORE:    0.00 PKD
ROOT
HETATM    1  C   UNL     1      -8.386  10.812  66.310  1.00  0.00    -0.160 C  
HETATM    2  C   UNL     1      -8.809   9.405  65.881  1.00  0.00    -0.193 C  
HETATM    3  C   UNL     1     -10.328   9.421  66.065  1.00  0.00    -0.081 C  
HETATM    4  C   UNL     1     -10.623  10.726  66.844  1.00  0.00    -0.258 C  
HETATM    5  C   UNL     1     -11.095  11.866  65.896  1.00  0.00    -0.365 C  
HETATM    6  N   UNL     1      -9.301  10.947  67.441  1.00  0.00    -0.154 NA 
HETATM    7  C   UNL     1      -8.601  11.786  65.129  1.00  0.00     0.636 C  
HETATM    8  C   UNL     1      -9.938  12.580  65.099  1.00  0.00    -0.212 C  
ENDROOT
BRANCH   5   9
HETATM    9  C   UNL     1     -12.031  12.785  66.670  1.00  0.00    -0.341 C  
HETATM   10  O   UNL     1     -11.922  13.081  67.853  1.00  0.00    -0.347 OA 
BRANCH   9  11
HETATM   11  O   UNL     1     -13.024  13.291  65.881  1.00  0.00    -0.288 OA 
HETATM   12  C   UNL     1     -13.137  12.622  64.618  1.00  0.00     0.057 C  
ENDBRANCH   9  11
ENDBRANCH   5   9
BRANCH   6  13
HETATM   13  C   UNL     1      -9.123  12.093  68.322  1.00  0.00    -0.191 C  
BRANCH  13  14
HETATM   14  C   UNL     1      -7.804  12.088  69.107  1.00  0.00     0.247 C  
HETATM   15  F   UNL     1      -5.801  13.162  69.612  1.00  0.00    -0.082 F  
HETATM   16  C   UNL     1      -6.913  13.274  68.829  1.00  0.00    -0.103 C  
ENDBRANCH  13  14
ENDBRANCH   6  13
BRANCH   8  17
HETATM   17  C   UNL     1      -9.795  14.093  65.365  1.00  0.00    -0.233 A  
HETATM   18  I   UNL     1     -10.351  18.721  66.796  1.00  0.00    -0.487 I  
HETATM   19  C   UNL     1      -9.001  14.629  66.391  1.00  0.00    -0.191 A  
HETATM   20  C   UNL     1      -9.102  15.974  66.753  1.00  0.00    -0.271 A  
HETATM   21  C   UNL     1     -10.554  14.990  64.600  1.00  0.00    -0.185 A  
HETATM   22  C   UNL     1     -10.004  16.803  66.092  1.00  0.00    -0.327 A  
HETATM   23  C   UNL     1     -10.705  16.324  64.992  1.00  0.00    -0.319 A  
ENDBRANCH   8  17
TORSDOF 5
ENDMDL
MODEL      136
REMARK 921   NORMALIZED FREE ENERGY PREDICTED BY IDOCK:   -2.63 KCAL/MOL
REMARK 922        TOTAL FREE ENERGY PREDICTED BY IDOCK:   -3.85 KCAL/MOL
REMARK 923 INTER-LIGAND FREE ENERGY PREDICTED BY IDOCK:   -3.47 KCAL/MOL
REMARK 924 INTRA-LIGAND FREE ENERGY PREDICTED BY IDOCK:   -0.38 KCAL/MOL
REMARK 927      BINDING AFFINITY PREDICTED BY RF-SCORE:    0.00 PKD
ROOT
HETATM    1  C   UNL     1      -9.161   8.382  71.072  1.00  0.00    -0.168 C  
HETATM    2  C   UNL     1      -9.850   8.562  72.427  1.00  0.00    -0.358 C  
HETATM    3  C   UNL     1     -10.593   7.238  72.623  1.00  0.00    -0.305 C  
HETATM    4  C   UNL     1     -10.505   6.523  71.253  1.00  0.00    -0.215 C  
HETATM    5  C   UNL     1      -9.371   5.458  71.234  1.00  0.00    -0.182 C  
HETATM    6  N   UNL     1     -10.253   7.687  70.395  1.00  0.00    -0.201 NA 
HETATM    7  C   UNL     1      -7.853   7.582  71.272  1.00  0.00    -0.094 C  
HETATM    8  C   UNL     1      -7.920   6.045  71.043  1.00  0.00    -0.116 C  
ENDROOT
BRANCH   5   9
HETATM    9  C   UNL     1      -9.766   4.344  70.273  1.00  0.00    -0.211 C  
HETATM   10  O   UNL     1     -10.147   4.499  69.120  1.00  0.00    -0.154 OA 
BRANCH   9  11
HETATM   11  O   UNL     1      -9.621   3.107  70.832  1.00  0.00    -0.156 OA 
HETATM   12  C   UNL     1     -10.140   3.026  72.167  1.00  0.00    -0.132 C  
ENDBRANCH   9  11
ENDBRANCH   5   9
BRANCH   6  13
HETATM   13  C   UNL     1     -10.135   7.475  68.959  1.00  0.00    -0.192 C  
BRANCH  13  14
HETATM   14  C   UNL     1      -9.700   8.719  68.171  1.00  0.00    -0.177 C  
HETATM   15  F   UNL     1      -9.869   9.981  66.222  1.00  0.00    -0.232 F  
HETATM   16  C   UNL     1     -10.309   8.822  66.793  1.00  0.00    -0.258 C  
ENDBRANCH  13  14
ENDBRANCH   6  13
BRANCH   8  17
HETATM   17  C   UNL     1      -7.171   5.547  69.791  1.00  0.00    -0.065 A  
HETATM   18  I   UNL     1      -5.799   3.370  65.649  1.00  0.00    -0.020 I  
HETATM   19  C   UNL     1      -7.107   6.266  68.587  1.00  0.00    -0.082 A  
HETATM   20  C   UNL     1      -6.641   5.668  67.414  1.00  0.00    -0.057 A  
HETATM   21  C   UNL     1      -6.583   4.274  69.814  1.00  0.00    -0.033 A  
HETATM   22  C   UNL     1      -6.234   4.337  67.429  1.00  0.00    -0.036 A  
HETATM   23  C   UNL     1      -6.170   3.648  68.634  1.00  0.00    -0.032 A  
ENDBRANCH   8  17
TORSDOF 5
ENDMDL
MODEL      137
REMARK 921   NORMALIZED FREE ENERGY PREDICTED BY IDOCK:   -2.58 KCAL/MOL
REMARK 922        TOTAL FREE ENERGY PREDICTED BY IDOCK:   -3.79 KCAL/MOL
REMARK 923 INTER-LIGAND FREE ENERGY PREDICTED BY IDOCK:   -3.54 KCAL/MOL
REMARK 924 INTRA-LIGAND FREE ENERGY PREDICTED BY IDOCK:   -0.24 KCAL/MOL
REMARK 927      BINDING AFFINITY PREDICTED BY RF-SCORE:    0.00 PKD
ROOT
HETATM    1  C   UNL     1      -6.928   6.206  68.792  1.00  0.00    -0.076 C  
HETATM    2  C   UNL     1      -5.528   6.115  68.181  1.00  0.00    -0.004 C  
HETATM    3  C   UNL     1      -5.680   6.838  66.840  1.00  0.00    -0.014 C  
HETATM    4  C   UNL     1      -7.206   7.036  66.664  1.00  0.00    -0.083 C  
HETATM    5  C   UNL     1      -7.649   8.471  67.069  1.00  0.00    -0.092 C  
HETATM    6  N   UNL     1      -7.686   5.981  67.564  1.00  0.00    -0.096 NA 
HETATM    7  C   UNL     1      -7.097   7.589  69.464  1.00  0.00    -0.069 C  
HETATM    8  C   UNL     1      -7.777   8.707  68.622  1.00  0.00    -0.099 C  
ENDROOT
BRANCH   5   9
HETATM    9  C   UNL     1      -8.864   8.858  66.238  1.00  0.00    -0.158 C  
HETATM   10  O   UNL     1      -9.903   8.215  66.152  1.00  0.00    -0.169 OA 
BRANCH   9  11
HETATM   11  O   UNL     1      -8.691  10.051  65.596  1.00  0.00    -0.144 OA 
HETATM   12  C   UNL     1      -7.827   9.958  64.455  1.00  0.00    -0.142 C  
ENDBRANCH   9  11
ENDBRANCH   5   9
BRANCH   6  13
HETATM   13  C   UNL     1      -9.122   5.774  67.683  1.00  0.00    -0.106 C  
BRANCH  13  14
HETATM   14  C   UNL     1      -9.638   4.507  66.988  1.00  0.00    -0.210 C  
HETATM   15  F   UNL     1     -10.146   3.413  64.996  1.00  0.00    -0.152 F  
HETATM   16  C   UNL     1      -9.708   4.611  65.483  1.00  0.00    -0.181 C  
ENDBRANCH  13  14
ENDBRANCH   6  13
BRANCH   8  17
HETATM   17  C   UNL     1      -9.183   9.114  69.109  1.00  0.00    -0.144 A  
HETATM   18  I   UNL     1     -13.070  10.547  71.681  1.00  0.00    -0.336 I  
HETATM   19  C   UNL     1      -9.718  10.402  68.947  1.00  0.00    -0.203 A  
HETATM   20  C   UNL     1     -10.876  10.791  69.623  1.00  0.00    -0.294 A  
HETATM   21  C   UNL     1      -9.948   8.183  69.826  1.00  0.00    -0.191 A  
HETATM   22  C   UNL     1     -11.515   9.896  70.476  1.00  0.00    -0.318 A  
HETATM   23  C   UNL     1     -11.075   8.580  70.552  1.00  0.00    -0.265 A  
ENDBRANCH   8  17
TORSDOF 5
ENDMDL
MODEL      138
REMARK 921   NORMALIZED FREE ENERGY PREDICTED BY IDOCK:   -2.58 KCAL/MOL
REMARK 922        TOTAL FREE ENERGY PREDICTED BY IDOCK:   -3.79 KCAL/MOL
REMARK 923 INTER-LIGAND FREE ENERGY PREDICTED BY IDOCK:   -3.87 KCAL/MOL
REMARK 924 INTRA-LIGAND FREE ENERGY PREDICTED BY IDOCK:    0.08 KCAL/MOL
REMARK 927      BINDING AFFINITY PREDICTED BY RF-SCORE:    0.00 PKD
ROOT
HETATM    1  C   UNL     1      -8.502   6.750  66.788  1.00  0.00    -0.117 C  
HETATM    2  C   UNL     1      -9.437   5.610  66.373  1.00  0.00    -0.170 C  
HETATM    3  C   UNL     1     -10.553   5.673  67.419  1.00  0.00    -0.312 C  
HETATM    4  C   UNL     1     -10.033   6.648  68.502  1.00  0.00    -0.150 C  
HETATM    5  C   UNL     1     -10.625   8.075  68.322  1.00  0.00    -0.155 C  
HETATM    6  N   UNL     1      -8.594   6.554  68.232  1.00  0.00    -0.116 NA 
HETATM    7  C   UNL     1      -9.056   8.084  66.235  1.00  0.00    -0.232 C  
HETATM    8  C   UNL     1      -9.940   8.934  67.193  1.00  0.00    -0.289 C  
ENDROOT
BRANCH   5   9
HETATM    9  C   UNL     1     -10.723   8.737  69.690  1.00  0.00    -0.208 C  
HETATM   10  O   UNL     1     -11.227   9.829  69.919  1.00  0.00    -0.241 OA 
BRANCH   9  11
HETATM   11  O   UNL     1     -10.203   7.952  70.680  1.00  0.00    -0.195 OA 
HETATM   12  C   UNL     1      -9.842   8.692  71.855  1.00  0.00    -0.314 C  
ENDBRANCH   9  11
ENDBRANCH   5   9
BRANCH   6  13
HETATM   13  C   UNL     1      -7.680   7.311  69.077  1.00  0.00    -0.112 C  
BRANCH  13  14
HETATM   14  C   UNL     1      -6.735   6.445  69.921  1.00  0.00    -0.053 C  
HETATM   15  F   UNL     1      -6.480   4.899  71.643  1.00  0.00    -0.025 F  
HETATM   16  C   UNL     1      -7.425   5.643  70.998  1.00  0.00    -0.090 C  
ENDBRANCH  13  14
ENDBRANCH   6  13
BRANCH   8  17
HETATM   17  C   UNL     1      -9.290  10.248  67.671  1.00  0.00    -0.158 A  
HETATM   18  I   UNL     1      -6.602  14.283  68.195  1.00  0.00    -0.191 I  
HETATM   19  C   UNL     1      -9.845  11.517  67.444  1.00  0.00    -0.202 A  
HETATM   20  C   UNL     1      -9.103  12.679  67.666  1.00  0.00    -0.192 A  
HETATM   21  C   UNL     1      -8.037  10.195  68.299  1.00  0.00    -0.102 A  
HETATM   22  C   UNL     1      -7.789  12.587  68.119  1.00  0.00    -0.151 A  
HETATM   23  C   UNL     1      -7.266  11.348  68.471  1.00  0.00    -0.093 A  
ENDBRANCH   8  17
TORSDOF 5
ENDMDL
MODEL      139
REMARK 921   NORMALIZED FREE ENERGY PREDICTED BY IDOCK:   -2.58 KCAL/MOL
REMARK 922        TOTAL FREE ENERGY PREDICTED BY IDOCK:   -3.79 KCAL/MOL
REMARK 923 INTER-LIGAND FREE ENERGY PREDICTED BY IDOCK:   -4.24 KCAL/MOL
REMARK 924 INTRA-LIGAND FREE ENERGY PREDICTED BY IDOCK:    0.45 KCAL/MOL
REMARK 927      BINDING AFFINITY PREDICTED BY RF-SCORE:    0.00 PKD
ROOT
HETATM    1  C   UNL     1      -8.579   7.055  66.658  1.00  0.00    -0.124 C  
HETATM    2  C   UNL     1      -8.999   5.632  66.282  1.00  0.00    -0.141 C  
HETATM    3  C   UNL     1      -9.742   5.143  67.528  1.00  0.00    -0.177 C  
HETATM    4  C   UNL     1      -9.447   6.208  68.613  1.00  0.00    -0.124 C  
HETATM    5  C   UNL     1     -10.622   7.218  68.759  1.00  0.00    -0.202 C  
HETATM    6  N   UNL     1      -8.223   6.787  68.049  1.00  0.00    -0.114 NA 
HETATM    7  C   UNL     1      -9.770   8.013  66.423  1.00  0.00    -0.255 C  
HETATM    8  C   UNL     1     -10.673   8.335  67.649  1.00  0.00    -0.195 C  
ENDROOT
BRANCH   5   9
HETATM    9  C   UNL     1     -10.660   7.713  70.199  1.00  0.00    -0.236 C  
HETATM   10  O   UNL     1     -11.667   7.828  70.887  1.00  0.00    -0.289 OA 
BRANCH   9  11
HETATM   11  O   UNL     1      -9.414   7.997  70.679  1.00  0.00    -0.161 OA 
HETATM   12  C   UNL     1      -9.438   8.693  71.933  1.00  0.00    -0.299 C  
ENDBRANCH   9  11
ENDBRANCH   5   9
BRANCH   6  13
HETATM   13  C   UNL     1      -7.551   7.844  68.792  1.00  0.00    -0.100 C  
BRANCH  13  14
HETATM   14  C   UNL     1      -6.242   8.331  68.155  1.00  0.00    -0.051 C  
HETATM   15  F   UNL     1      -5.127   9.977  66.944  1.00  0.00    -0.038 F  
HETATM   16  C   UNL     1      -6.360   9.648  67.427  1.00  0.00    -0.068 C  
ENDBRANCH  13  14
ENDBRANCH   6  13
BRANCH   8  17
HETATM   17  C   UNL     1     -10.559   9.782  68.169  1.00  0.00    -0.276 A  
HETATM   18  I   UNL     1     -10.552  14.627  68.719  1.00  0.00    -0.266 I  
HETATM   19  C   UNL     1     -11.568  10.424  68.905  1.00  0.00    -0.208 A  
HETATM   20  C   UNL     1     -11.529  11.802  69.131  1.00  0.00    -0.358 A  
HETATM   21  C   UNL     1      -9.428  10.538  67.829  1.00  0.00    -0.162 A  
HETATM   22  C   UNL     1     -10.478  12.559  68.619  1.00  0.00    -0.200 A  
HETATM   23  C   UNL     1      -9.408  11.925  67.999  1.00  0.00    -0.193 A  
ENDBRANCH   8  17
TORSDOF 5
ENDMDL
MODEL      140
REMARK 921   NORMALIZED FREE ENERGY PREDICTED BY IDOCK:   -2.52 KCAL/MOL
REMARK 922        TOTAL FREE ENERGY PREDICTED BY IDOCK:   -3.72 KCAL/MOL
REMARK 923 INTER-LIGAND FREE ENERGY PREDICTED BY IDOCK:   -3.55 KCAL/MOL
REMARK 924 INTRA-LIGAND FREE ENERGY PREDICTED BY IDOCK:   -0.17 KCAL/MOL
REMARK 927      BINDING AFFINITY PREDICTED BY RF-SCORE:    0.00 PKD
ROOT
HETATM    1  C   UNL     1      -6.097   8.147  69.650  1.00  0.00    -0.029 C  
HETATM    2  C   UNL     1      -6.295   7.302  70.911  1.00  0.00    -0.036 C  
HETATM    3  C   UNL     1      -7.572   7.879  71.525  1.00  0.00    -0.083 C  
HETATM    4  C   UNL     1      -7.846   9.179  70.731  1.00  0.00    -0.149 C  
HETATM    5  C   UNL     1      -8.917   8.961  69.624  1.00  0.00    -0.147 C  
HETATM    6  N   UNL     1      -6.494   9.432  70.220  1.00  0.00    -0.056 NA 
HETATM    7  C   UNL     1      -6.991   7.587  68.520  1.00  0.00    -0.079 C  
HETATM    8  C   UNL     1      -8.383   8.254  68.321  1.00  0.00    -0.132 C  
ENDROOT
BRANCH   5   9
HETATM    9  C   UNL     1      -9.667  10.268  69.409  1.00  0.00    -0.222 C  
HETATM   10  O   UNL     1      -9.173  11.317  69.014  1.00  0.00    -0.111 OA 
BRANCH   9  11
HETATM   11  O   UNL     1     -11.001  10.148  69.678  1.00  0.00    -0.232 OA 
HETATM   12  C   UNL     1     -11.786  11.214  69.128  1.00  0.00    -0.350 C  
ENDBRANCH   9  11
ENDBRANCH   5   9
BRANCH   6  13
HETATM   13  C   UNL     1      -6.270  10.627  69.418  1.00  0.00    -0.051 C  
BRANCH  13  14
HETATM   14  C   UNL     1      -6.030  11.903  70.236  1.00  0.00    -0.150 C  
HETATM   15  F   UNL     1      -5.591  14.189  70.248  1.00  0.00    -0.095 F  
HETATM   16  C   UNL     1      -5.749  13.130  69.402  1.00  0.00    -0.089 C  
ENDBRANCH  13  14
ENDBRANCH   6  13
BRANCH   8  17
HETATM   17  C   UNL     1      -8.522   9.077  67.025  1.00  0.00    -0.120 A  
HETATM   18  I   UNL     1      -8.589  10.682  62.421  1.00  0.00    -0.363 I  
HETATM   19  C   UNL     1      -9.736   9.248  66.340  1.00  0.00    -0.325 A  
HETATM   20  C   UNL     1      -9.766   9.780  65.048  1.00  0.00    -0.303 A  
HETATM   21  C   UNL     1      -7.370   9.626  66.443  1.00  0.00    -0.094 A  
HETATM   22  C   UNL     1      -8.578  10.147  64.422  1.00  0.00    -0.191 A  
HETATM   23  C   UNL     1      -7.382  10.105  65.129  1.00  0.00    -0.141 A  
ENDBRANCH   8  17
TORSDOF 5
ENDMDL
MODEL      141
REMARK 921   NORMALIZED FREE ENERGY PREDICTED BY IDOCK:   -2.52 KCAL/MOL
REMARK 922        TOTAL FREE ENERGY PREDICTED BY IDOCK:   -3.71 KCAL/MOL
REMARK 923 INTER-LIGAND FREE ENERGY PREDICTED BY IDOCK:   -4.15 KCAL/MOL
REMARK 924 INTRA-LIGAND FREE ENERGY PREDICTED BY IDOCK:    0.44 KCAL/MOL
REMARK 927      BINDING AFFINITY PREDICTED BY RF-SCORE:    0.00 PKD
ROOT
HETATM    1  C   UNL     1      -9.294   4.598  71.946  1.00  0.00    -0.140 C  
HETATM    2  C   UNL     1     -10.412   4.460  72.981  1.00  0.00    -0.250 C  
HETATM    3  C   UNL     1     -11.328   5.647  72.672  1.00  0.00    -0.356 C  
HETATM    4  C   UNL     1     -10.525   6.524  71.680  1.00  0.00    -0.213 C  
HETATM    5  C   UNL     1     -10.964   6.274  70.208  1.00  0.00    -0.400 C  
HETATM    6  N   UNL     1      -9.171   6.053  71.992  1.00  0.00    -0.147 NA 
HETATM    7  C   UNL     1      -9.768   3.988  70.606  1.00  0.00    -0.266 C  
HETATM    8  C   UNL     1     -10.376   4.965  69.558  1.00  0.00    -0.154 C  
ENDROOT
BRANCH   5   9
HETATM    9  C   UNL     1     -10.758   7.558  69.416  1.00  0.00    -0.193 C  
HETATM   10  O   UNL     1     -10.745   7.647  68.194  1.00  0.00    -0.165 OA 
BRANCH   9  11
HETATM   11  O   UNL     1     -10.614   8.647  70.227  1.00  0.00    -0.212 OA 
HETATM   12  C   UNL     1     -10.595   9.888  69.508  1.00  0.00    -0.242 C  
ENDBRANCH   9  11
ENDBRANCH   5   9
BRANCH   6  13
HETATM   13  C   UNL     1      -8.048   6.660  71.291  1.00  0.00    -0.112 C  
BRANCH  13  14
HETATM   14  C   UNL     1      -7.855   8.155  71.581  1.00  0.00    -0.130 C  
HETATM   15  F   UNL     1      -7.132  10.236  70.829  1.00  0.00    -0.113 F  
HETATM   16  C   UNL     1      -7.211   8.926  70.454  1.00  0.00    -0.060 C  
ENDBRANCH  13  14
ENDBRANCH   6  13
BRANCH   8  17
HETATM   17  C   UNL     1      -9.504   5.189  68.306  1.00  0.00    -0.164 A  
HETATM   18  I   UNL     1      -7.408   6.870  64.237  1.00  0.00    -0.105 I  
HETATM   19  C   UNL     1      -8.228   5.773  68.342  1.00  0.00    -0.108 A  
HETATM   20  C   UNL     1      -7.591   6.186  67.170  1.00  0.00    -0.092 A  
HETATM   21  C   UNL     1     -10.033   4.871  67.047  1.00  0.00    -0.238 A  
HETATM   22  C   UNL     1      -8.225   6.022  65.942  1.00  0.00    -0.129 A  
HETATM   23  C   UNL     1      -9.430   5.333  65.873  1.00  0.00    -0.156 A  
ENDBRANCH   8  17
TORSDOF 5
ENDMDL
MODEL      142
REMARK 921   NORMALIZED FREE ENERGY PREDICTED BY IDOCK:   -2.47 KCAL/MOL
REMARK 922        TOTAL FREE ENERGY PREDICTED BY IDOCK:   -3.65 KCAL/MOL
REMARK 923 INTER-LIGAND FREE ENERGY PREDICTED BY IDOCK:   -3.74 KCAL/MOL
REMARK 924 INTRA-LIGAND FREE ENERGY PREDICTED BY IDOCK:    0.10 KCAL/MOL
REMARK 927      BINDING AFFINITY PREDICTED BY RF-SCORE:    0.00 PKD
ROOT
HETATM    1  C   UNL     1      -6.554   7.777  72.512  1.00  0.00    -0.065 C  
HETATM    2  C   UNL     1      -6.297   8.311  73.923  1.00  0.00    -0.131 C  
HETATM    3  C   UNL     1      -7.700   8.394  74.529  1.00  0.00    -0.276 C  
HETATM    4  C   UNL     1      -8.664   8.173  73.338  1.00  0.00    -0.251 C  
HETATM    5  C   UNL     1      -9.176   6.704  73.280  1.00  0.00    -0.145 C  
HETATM    6  N   UNL     1      -7.767   8.542  72.237  1.00  0.00    -0.274 NA 
HETATM    7  C   UNL     1      -6.706   6.239  72.575  1.00  0.00    -0.069 C  
HETATM    8  C   UNL     1      -8.153   5.674  72.669  1.00  0.00    -0.102 C  
ENDROOT
BRANCH   5   9
HETATM    9  C   UNL     1     -10.569   6.700  72.664  1.00  0.00    -0.222 C  
HETATM   10  O   UNL     1     -11.360   5.765  72.697  1.00  0.00    -0.282 OA 
BRANCH   9  11
HETATM   11  O   UNL     1     -10.876   7.893  72.075  1.00  0.00    -0.229 OA 
HETATM   12  C   UNL     1     -12.252   7.992  71.683  1.00  0.00    -0.307 C  
ENDBRANCH   9  11
ENDBRANCH   5   9
BRANCH   6  13
HETATM   13  C   UNL     1      -8.291   8.514  70.879  1.00  0.00    -0.146 C  
BRANCH  13  14
HETATM   14  C   UNL     1      -7.353   9.122  69.827  1.00  0.00    -0.064 C  
HETATM   15  F   UNL     1      -5.970  10.886  69.197  1.00  0.00    -0.041 F  
HETATM   16  C   UNL     1      -6.809  10.482  70.195  1.00  0.00    -0.141 C  
ENDBRANCH  13  14
ENDBRANCH   6  13
BRANCH   8  17
HETATM   17  C   UNL     1      -8.640   4.937  71.405  1.00  0.00    -0.132 A  
HETATM   18  I   UNL     1      -9.027   2.407  67.255  1.00  0.00    -0.119 I  
HETATM   19  C   UNL     1      -9.110   3.614  71.410  1.00  0.00    -0.180 A  
HETATM   20  C   UNL     1      -9.296   2.911  70.218  1.00  0.00    -0.219 A  
HETATM   21  C   UNL     1      -8.539   5.582  70.164  1.00  0.00    -0.122 A  
HETATM   22  C   UNL     1      -9.010   3.523  69.000  1.00  0.00    -0.124 A  
HETATM   23  C   UNL     1      -8.666   4.869  68.968  1.00  0.00    -0.105 A  
ENDBRANCH   8  17
TORSDOF 5
ENDMDL
MODEL      143
REMARK 921   NORMALIZED FREE ENERGY PREDICTED BY IDOCK:   -2.45 KCAL/MOL
REMARK 922        TOTAL FREE ENERGY PREDICTED BY IDOCK:   -3.62 KCAL/MOL
REMARK 923 INTER-LIGAND FREE ENERGY PREDICTED BY IDOCK:   -4.19 KCAL/MOL
REMARK 924 INTRA-LIGAND FREE ENERGY PREDICTED BY IDOCK:    0.57 KCAL/MOL
REMARK 927      BINDING AFFINITY PREDICTED BY RF-SCORE:    0.00 PKD
ROOT
HETATM    1  C   UNL     1      -8.026   9.699  68.503  1.00  0.00    -0.089 C  
HETATM    2  C   UNL     1      -8.620  10.575  67.397  1.00  0.00    -0.122 C  
HETATM    3  C   UNL     1      -9.811   9.754  66.897  1.00  0.00    -0.256 C  
HETATM    4  C   UNL     1      -9.640   8.362  67.553  1.00  0.00    -0.154 C  
HETATM    5  C   UNL     1     -10.536   8.209  68.815  1.00  0.00    -0.149 C  
HETATM    6  N   UNL     1      -8.202   8.410  67.838  1.00  0.00    -0.126 NA 
HETATM    7  C   UNL     1      -8.829   9.918  69.806  1.00  0.00    -0.229 C  
HETATM    8  C   UNL     1      -9.975   8.910  70.110  1.00  0.00    -0.207 C  
ENDROOT
BRANCH   5   9
HETATM    9  C   UNL     1     -10.915   6.742  68.967  1.00  0.00    -0.233 C  
HETATM   10  O   UNL     1     -11.778   6.303  69.717  1.00  0.00    -0.403 OA 
BRANCH   9  11
HETATM   11  O   UNL     1     -10.195   5.935  68.134  1.00  0.00    -0.152 OA 
HETATM   12  C   UNL     1     -10.865   5.661  66.896  1.00  0.00    -0.202 C  
ENDBRANCH   9  11
ENDBRANCH   5   9
BRANCH   6  13
HETATM   13  C   UNL     1      -7.577   7.244  68.446  1.00  0.00    -0.118 C  
BRANCH  13  14
HETATM   14  C   UNL     1      -6.882   6.306  67.450  1.00  0.00    -0.063 C  
HETATM   15  F   UNL     1      -6.338   4.127  66.838  1.00  0.00    -0.035 F  
HETATM   16  C   UNL     1      -6.960   4.844  67.818  1.00  0.00    -0.061 C  
ENDBRANCH  13  14
ENDBRANCH   6  13
BRANCH   8  17
HETATM   17  C   UNL     1      -9.704   7.968  71.301  1.00  0.00    -0.199 A  
HETATM   18  I   UNL     1      -9.695   4.343  74.561  1.00  0.00    -0.246 I  
HETATM   19  C   UNL     1      -8.667   7.023  71.323  1.00  0.00    -0.130 A  
HETATM   20  C   UNL     1      -8.619   6.028  72.302  1.00  0.00    -0.124 A  
HETATM   21  C   UNL     1     -10.581   7.990  72.395  1.00  0.00    -0.373 A  
HETATM   22  C   UNL     1      -9.613   5.964  73.275  1.00  0.00    -0.143 A  
HETATM   23  C   UNL     1     -10.575   6.965  73.346  1.00  0.00    -0.372 A  
ENDBRANCH   8  17
TORSDOF 5
ENDMDL
MODEL      144
REMARK 921   NORMALIZED FREE ENERGY PREDICTED BY IDOCK:   -2.42 KCAL/MOL
REMARK 922        TOTAL FREE ENERGY PREDICTED BY IDOCK:   -3.58 KCAL/MOL
REMARK 923 INTER-LIGAND FREE ENERGY PREDICTED BY IDOCK:   -3.56 KCAL/MOL
REMARK 924 INTRA-LIGAND FREE ENERGY PREDICTED BY IDOCK:   -0.02 KCAL/MOL
REMARK 927      BINDING AFFINITY PREDICTED BY RF-SCORE:    0.00 PKD
ROOT
HETATM    1  C   UNL     1     -11.413   5.934  71.414  1.00  0.00    -0.121 C  
HETATM    2  C   UNL     1     -11.568   5.383  72.834  1.00  0.00    -0.296 C  
HETATM    3  C   UNL     1     -10.134   5.378  73.369  1.00  0.00    -0.201 C  
HETATM    4  C   UNL     1      -9.245   5.655  72.132  1.00  0.00    -0.146 C  
HETATM    5  C   UNL     1      -8.819   7.150  72.055  1.00  0.00    -0.135 C  
HETATM    6  N   UNL     1     -10.174   5.238  71.076  1.00  0.00    -0.219 NA 
HETATM    7  C   UNL     1     -11.343   7.478  71.476  1.00  0.00    -0.283 C  
HETATM    8  C   UNL     1      -9.928   8.123  71.501  1.00  0.00    -0.237 C  
ENDROOT
BRANCH   5   9
HETATM    9  C   UNL     1      -7.462   7.233  71.370  1.00  0.00    -0.082 C  
HETATM   10  O   UNL     1      -7.168   6.708  70.304  1.00  0.00    -0.072 OA 
BRANCH   9  11
HETATM   11  O   UNL     1      -6.578   8.005  72.070  1.00  0.00    -0.052 OA 
HETATM   12  C   UNL     1      -6.360   7.541  73.409  1.00  0.00    -0.065 C  
ENDBRANCH   9  11
ENDBRANCH   5   9
BRANCH   6  13
HETATM   13  C   UNL     1      -9.721   5.297  69.693  1.00  0.00    -0.182 C  
BRANCH  13  14
HETATM   14  C   UNL     1      -9.650   3.934  68.993  1.00  0.00    -0.209 C  
HETATM   15  F   UNL     1      -8.378   2.386  67.807  1.00  0.00    -0.062 F  
HETATM   16  C   UNL     1      -8.313   3.632  68.358  1.00  0.00    -0.082 C  
ENDBRANCH  13  14
ENDBRANCH   6  13
BRANCH   8  17
HETATM   17  C   UNL     1      -9.547   8.888  70.217  1.00  0.00    -0.212 A  
HETATM   18  I   UNL     1      -7.452  10.532  66.133  1.00  0.00    -0.103 I  
HETATM   19  C   UNL     1     -10.119   8.631  68.961  1.00  0.00    -0.207 A  
HETATM   20  C   UNL     1      -9.566   9.164  67.795  1.00  0.00    -0.173 A  
HETATM   21  C   UNL     1      -8.518   9.839  70.275  1.00  0.00    -0.163 A  
HETATM   22  C   UNL     1      -8.428   9.962  67.869  1.00  0.00    -0.121 A  
HETATM   23  C   UNL     1      -7.923  10.331  69.110  1.00  0.00    -0.135 A  
ENDBRANCH   8  17
TORSDOF 5
ENDMDL
MODEL      145
REMARK 921   NORMALIZED FREE ENERGY PREDICTED BY IDOCK:   -2.40 KCAL/MOL
REMARK 922        TOTAL FREE ENERGY PREDICTED BY IDOCK:   -3.56 KCAL/MOL
REMARK 923 INTER-LIGAND FREE ENERGY PREDICTED BY IDOCK:   -3.58 KCAL/MOL
REMARK 924 INTRA-LIGAND FREE ENERGY PREDICTED BY IDOCK:    0.02 KCAL/MOL
REMARK 927      BINDING AFFINITY PREDICTED BY RF-SCORE:    0.00 PKD
ROOT
HETATM    1  C   UNL     1      -8.047   8.265  71.937  1.00  0.00    -0.141 C  
HETATM    2  C   UNL     1      -7.088   7.349  72.702  1.00  0.00    -0.069 C  
HETATM    3  C   UNL     1      -6.738   6.269  71.675  1.00  0.00    -0.063 C  
HETATM    4  C   UNL     1      -7.732   6.489  70.509  1.00  0.00    -0.105 C  
HETATM    5  C   UNL     1      -7.080   7.287  69.343  1.00  0.00    -0.074 C  
HETATM    6  N   UNL     1      -8.781   7.220  71.228  1.00  0.00    -0.127 NA 
HETATM    7  C   UNL     1      -7.224   9.243  71.067  1.00  0.00    -0.089 C  
HETATM    8  C   UNL     1      -6.986   8.842  69.582  1.00  0.00    -0.050 C  
ENDROOT
BRANCH   5   9
HETATM    9  C   UNL     1      -7.731   6.856  68.036  1.00  0.00    -0.113 C  
HETATM   10  O   UNL     1      -7.251   7.002  66.919  1.00  0.00    -0.073 OA 
BRANCH   9  11
HETATM   11  O   UNL     1      -8.933   6.240  68.237  1.00  0.00    -0.117 OA 
HETATM   12  C   UNL     1      -9.325   5.397  67.145  1.00  0.00    -0.117 C  
ENDBRANCH   9  11
ENDBRANCH   5   9
BRANCH   6  13
HETATM   13  C   UNL     1      -9.977   7.613  70.496  1.00  0.00    -0.184 C  
BRANCH  13  14
HETATM   14  C   UNL     1     -11.155   8.031  71.386  1.00  0.00    -0.278 C  
HETATM   15  F   UNL     1     -12.557   9.731  72.138  1.00  0.00    -0.438 F  
HETATM   16  C   UNL     1     -11.477   9.505  71.334  1.00  0.00    -0.392 C  
ENDBRANCH  13  14
ENDBRANCH   6  13
BRANCH   8  17
HETATM   17  C   UNL     1      -7.737   9.711  68.553  1.00  0.00    -0.081 A  
HETATM   18  I   UNL     1     -10.038  11.483  64.636  1.00  0.00    -0.350 I  
HETATM   19  C   UNL     1      -9.129   9.890  68.556  1.00  0.00    -0.125 A  
HETATM   20  C   UNL     1      -9.784  10.468  67.466  1.00  0.00    -0.190 A  
HETATM   21  C   UNL     1      -7.013  10.296  67.504  1.00  0.00    -0.085 A  
HETATM   22  C   UNL     1      -9.052  10.875  66.354  1.00  0.00    -0.172 A  
HETATM   23  C   UNL     1      -7.664  10.823  66.384  1.00  0.00    -0.145 A  
ENDBRANCH   8  17
TORSDOF 5
ENDMDL
MODEL      146
REMARK 921   NORMALIZED FREE ENERGY PREDICTED BY IDOCK:   -2.33 KCAL/MOL
REMARK 922        TOTAL FREE ENERGY PREDICTED BY IDOCK:   -3.46 KCAL/MOL
REMARK 923 INTER-LIGAND FREE ENERGY PREDICTED BY IDOCK:   -3.89 KCAL/MOL
REMARK 924 INTRA-LIGAND FREE ENERGY PREDICTED BY IDOCK:    0.43 KCAL/MOL
REMARK 927      BINDING AFFINITY PREDICTED BY RF-SCORE:    0.00 PKD
ROOT
HETATM    1  C   UNL     1      -6.757   6.305  70.528  1.00  0.00    -0.053 C  
HETATM    2  C   UNL     1      -5.283   6.702  70.411  1.00  0.00    -0.018 C  
HETATM    3  C   UNL     1      -5.289   7.763  69.309  1.00  0.00    -0.022 C  
HETATM    4  C   UNL     1      -6.707   7.689  68.690  1.00  0.00    -0.054 C  
HETATM    5  C   UNL     1      -7.638   8.800  69.256  1.00  0.00    -0.093 C  
HETATM    6  N   UNL     1      -7.073   6.329  69.102  1.00  0.00    -0.075 NA 
HETATM    7  C   UNL     1      -7.489   7.339  71.414  1.00  0.00    -0.082 C  
HETATM    8  C   UNL     1      -8.225   8.501  70.687  1.00  0.00    -0.129 C  
ENDROOT
BRANCH   5   9
HETATM    9  C   UNL     1      -8.657   9.171  68.186  1.00  0.00    -0.129 C  
HETATM   10  O   UNL     1      -9.419   8.392  67.627  1.00  0.00    -0.145 OA 
BRANCH   9  11
HETATM   11  O   UNL     1      -8.660  10.510  67.921  1.00  0.00    -0.121 OA 
HETATM   12  C   UNL     1      -9.850  11.171  68.372  1.00  0.00    -0.185 C  
ENDBRANCH   9  11
ENDBRANCH   5   9
BRANCH   6  13
HETATM   13  C   UNL     1      -8.366   5.804  68.687  1.00  0.00    -0.107 C  
BRANCH  13  14
HETATM   14  C   UNL     1      -8.341   4.334  68.248  1.00  0.00    -0.098 C  
HETATM   15  F   UNL     1      -9.343   2.233  68.319  1.00  0.00    -0.186 F  
HETATM   16  C   UNL     1      -9.465   3.500  68.813  1.00  0.00    -0.138 C  
ENDBRANCH  13  14
ENDBRANCH   6  13
BRANCH   8  17
HETATM   17  C   UNL     1      -9.764   8.436  70.764  1.00  0.00    -0.207 A  
HETATM   18  I   UNL     1     -14.411   7.491  71.900  1.00  0.00    -0.375 I  
HETATM   19  C   UNL     1     -10.549   9.388  71.434  1.00  0.00    -0.381 A  
HETATM   20  C   UNL     1     -11.901   9.153  71.694  1.00  0.00    -0.443 A  
HETATM   21  C   UNL     1     -10.424   7.331  70.208  1.00  0.00    -0.231 A  
HETATM   22  C   UNL     1     -12.488   7.958  71.287  1.00  0.00    -0.264 A  
HETATM   23  C   UNL     1     -11.762   7.060  70.513  1.00  0.00    -0.359 A  
ENDBRANCH   8  17
TORSDOF 5
ENDMDL
MODEL      147
REMARK 921   NORMALIZED FREE ENERGY PREDICTED BY IDOCK:   -2.32 KCAL/MOL
REMARK 922        TOTAL FREE ENERGY PREDICTED BY IDOCK:   -3.45 KCAL/MOL
REMARK 923 INTER-LIGAND FREE ENERGY PREDICTED BY IDOCK:   -3.83 KCAL/MOL
REMARK 924 INTRA-LIGAND FREE ENERGY PREDICTED BY IDOCK:    0.37 KCAL/MOL
REMARK 927      BINDING AFFINITY PREDICTED BY RF-SCORE:    0.00 PKD
ROOT
HETATM    1  C   UNL     1      -6.260   9.860  67.136  1.00  0.00    -0.063 C  
HETATM    2  C   UNL     1      -5.416  11.095  66.810  1.00  0.00    -0.098 C  
HETATM    3  C   UNL     1      -6.405  12.252  66.973  1.00  0.00    -0.054 C  
HETATM    4  C   UNL     1      -7.792  11.577  67.100  1.00  0.00    -0.160 C  
HETATM    5  C   UNL     1      -8.243  11.468  68.586  1.00  0.00    -0.124 C  
HETATM    6  N   UNL     1      -7.487  10.289  66.468  1.00  0.00    -0.108 NA 
HETATM    7  C   UNL     1      -6.334   9.690  68.671  1.00  0.00    -0.047 C  
HETATM    8  C   UNL     1      -7.574  10.291  69.392  1.00  0.00    -0.137 C  
ENDROOT
BRANCH   5   9
HETATM    9  C   UNL     1      -9.764  11.526  68.637  1.00  0.00    -0.165 C  
HETATM   10  O   UNL     1     -10.457  11.211  69.597  1.00  0.00    -0.118 OA 
BRANCH   9  11
HETATM   11  O   UNL     1     -10.300  12.011  67.479  1.00  0.00    -0.198 OA 
HETATM   12  C   UNL     1     -11.716  12.223  67.558  1.00  0.00    -0.332 C  
ENDBRANCH   9  11
ENDBRANCH   5   9
BRANCH   6  13
HETATM   13  C   UNL     1      -8.559   9.313  66.332  1.00  0.00    -0.131 C  
BRANCH  13  14
HETATM   14  C   UNL     1      -9.593   9.656  65.251  1.00  0.00    -0.347 C  
HETATM   15  F   UNL     1     -10.032  10.117  63.012  1.00  0.00    -0.293 F  
HETATM   16  C   UNL     1      -9.007   9.854  63.874  1.00  0.00    -0.248 C  
ENDBRANCH  13  14
ENDBRANCH   6  13
BRANCH   8  17
HETATM   17  C   UNL     1      -8.555   9.247  69.964  1.00  0.00    -0.193 A  
HETATM   18  I   UNL     1     -10.689   5.273  71.815  1.00  0.00    -0.047 I  
HETATM   19  C   UNL     1      -8.937   9.199  71.314  1.00  0.00    -0.207 A  
HETATM   20  C   UNL     1      -9.617   8.094  71.831  1.00  0.00    -0.264 A  
HETATM   21  C   UNL     1      -9.038   8.238  69.119  1.00  0.00    -0.148 A  
HETATM   22  C   UNL     1      -9.923   7.018  71.001  1.00  0.00    -0.188 A  
HETATM   23  C   UNL     1      -9.668   7.102  69.638  1.00  0.00    -0.158 A  
ENDBRANCH   8  17
TORSDOF 5
ENDMDL
MODEL      148
REMARK 921   NORMALIZED FREE ENERGY PREDICTED BY IDOCK:   -2.32 KCAL/MOL
REMARK 922        TOTAL FREE ENERGY PREDICTED BY IDOCK:   -3.45 KCAL/MOL
REMARK 923 INTER-LIGAND FREE ENERGY PREDICTED BY IDOCK:   -3.57 KCAL/MOL
REMARK 924 INTRA-LIGAND FREE ENERGY PREDICTED BY IDOCK:    0.12 KCAL/MOL
REMARK 927      BINDING AFFINITY PREDICTED BY RF-SCORE:    0.00 PKD
ROOT
HETATM    1  C   UNL     1      -8.209   7.776  71.533  1.00  0.00    -0.105 C  
HETATM    2  C   UNL     1      -9.298   7.868  72.605  1.00  0.00    -0.275 C  
HETATM    3  C   UNL     1     -10.384   8.711  71.933  1.00  0.00    -0.405 C  
HETATM    4  C   UNL     1      -9.722   9.268  70.650  1.00  0.00    -0.272 C  
HETATM    5  C   UNL     1     -10.110   8.434  69.395  1.00  0.00    -0.198 C  
HETATM    6  N   UNL     1      -8.313   9.148  71.041  1.00  0.00    -0.263 NA 
HETATM    7  C   UNL     1      -8.576   6.655  70.534  1.00  0.00    -0.143 C  
HETATM    8  C   UNL     1      -9.323   7.078  69.236  1.00  0.00    -0.145 C  
ENDROOT
BRANCH   5   9
HETATM    9  C   UNL     1     -10.101   9.351  68.180  1.00  0.00    -0.181 C  
HETATM   10  O   UNL     1     -10.819   9.237  67.194  1.00  0.00    -0.217 OA 
BRANCH   9  11
HETATM   11  O   UNL     1      -9.203  10.372  68.312  1.00  0.00    -0.142 OA 
HETATM   12  C   UNL     1      -9.200  11.269  67.193  1.00  0.00    -0.163 C  
ENDBRANCH   9  11
ENDBRANCH   5   9
BRANCH   6  13
HETATM   13  C   UNL     1      -7.294   9.611  70.109  1.00  0.00    -0.139 C  
BRANCH  13  14
HETATM   14  C   UNL     1      -6.339  10.664  70.688  1.00  0.00    -0.015 C  
HETATM   15  F   UNL     1      -5.374  12.774  70.496  1.00  0.00    -0.089 F  
HETATM   16  C   UNL     1      -6.219  11.916  69.854  1.00  0.00    -0.139 C  
ENDBRANCH  13  14
ENDBRANCH   6  13
BRANCH   8  17
HETATM   17  C   UNL     1      -8.490   6.950  67.944  1.00  0.00    -0.120 A  
HETATM   18  I   UNL     1      -6.473   7.501  63.540  1.00  0.00    -0.055 I  
HETATM   19  C   UNL     1      -7.186   7.452  67.808  1.00  0.00    -0.091 A  
HETATM   20  C   UNL     1      -6.575   7.540  66.555  1.00  0.00    -0.053 A  
HETATM   21  C   UNL     1      -9.082   6.374  66.811  1.00  0.00    -0.147 A  
HETATM   22  C   UNL     1      -7.264   7.128  65.418  1.00  0.00    -0.070 A  
HETATM   23  C   UNL     1      -8.503   6.511  65.546  1.00  0.00    -0.139 A  
ENDBRANCH   8  17
TORSDOF 5
ENDMDL
MODEL      149
REMARK 921   NORMALIZED FREE ENERGY PREDICTED BY IDOCK:   -2.29 KCAL/MOL
REMARK 922        TOTAL FREE ENERGY PREDICTED BY IDOCK:   -3.42 KCAL/MOL
REMARK 923 INTER-LIGAND FREE ENERGY PREDICTED BY IDOCK:   -4.12 KCAL/MOL
REMARK 924 INTRA-LIGAND FREE ENERGY PREDICTED BY IDOCK:    0.70 KCAL/MOL
REMARK 927      BINDING AFFINITY PREDICTED BY RF-SCORE:    0.00 PKD
ROOT
HETATM    1  C   UNL     1      -6.740   9.766  65.859  1.00  0.00    -0.091 C  
HETATM    2  C   UNL     1      -6.385   9.010  64.576  1.00  0.00    -0.071 C  
HETATM    3  C   UNL     1      -6.963   7.613  64.818  1.00  0.00    -0.055 C  
HETATM    4  C   UNL     1      -7.351   7.595  66.316  1.00  0.00    -0.079 C  
HETATM    5  C   UNL     1      -8.872   7.858  66.518  1.00  0.00    -0.175 C  
HETATM    6  N   UNL     1      -6.484   8.677  66.798  1.00  0.00    -0.059 NA 
HETATM    7  C   UNL     1      -8.201  10.265  65.762  1.00  0.00    -0.147 C  
HETATM    8  C   UNL     1      -9.299   9.370  66.405  1.00  0.00    -0.241 C  
ENDROOT
BRANCH   5   9
HETATM    9  C   UNL     1      -9.327   7.133  67.778  1.00  0.00    -0.127 C  
HETATM   10  O   UNL     1      -8.608   6.816  68.717  1.00  0.00    -0.123 OA 
BRANCH   9  11
HETATM   11  O   UNL     1     -10.671   6.888  67.774  1.00  0.00    -0.224 OA 
HETATM   12  C   UNL     1     -11.128   6.232  68.965  1.00  0.00    -0.378 C  
ENDBRANCH   9  11
ENDBRANCH   5   9
BRANCH   6  13
HETATM   13  C   UNL     1      -6.496   8.992  68.219  1.00  0.00    -0.055 C  
BRANCH  13  14
HETATM   14  C   UNL     1      -5.890  10.358  68.569  1.00  0.00    -0.040 C  
HETATM   15  F   UNL     1      -5.897  12.225  69.960  1.00  0.00    -0.096 F  
HETATM   16  C   UNL     1      -6.551  11.048  69.738  1.00  0.00    -0.143 C  
ENDBRANCH  13  14
ENDBRANCH   6  13
BRANCH   8  17
HETATM   17  C   UNL     1      -9.953   9.963  67.670  1.00  0.00    -0.212 A  
HETATM   18  I   UNL     1     -12.815  10.986  71.483  1.00  0.00    -0.261 I  
HETATM   19  C   UNL     1      -9.557   9.634  68.976  1.00  0.00    -0.168 A  
HETATM   20  C   UNL     1     -10.337   9.993  70.078  1.00  0.00    -0.323 A  
HETATM   21  C   UNL     1     -11.056  10.817  67.526  1.00  0.00    -0.374 A  
HETATM   22  C   UNL     1     -11.528  10.687  69.887  1.00  0.00    -0.317 A  
HETATM   23  C   UNL     1     -11.873  11.132  68.616  1.00  0.00    -0.357 A  
ENDBRANCH   8  17
TORSDOF 5
ENDMDL
MODEL      150
REMARK 921   NORMALIZED FREE ENERGY PREDICTED BY IDOCK:   -2.06 KCAL/MOL
REMARK 922        TOTAL FREE ENERGY PREDICTED BY IDOCK:   -3.12 KCAL/MOL
REMARK 923 INTER-LIGAND FREE ENERGY PREDICTED BY IDOCK:   -4.17 KCAL/MOL
REMARK 924 INTRA-LIGAND FREE ENERGY PREDICTED BY IDOCK:    1.05 KCAL/MOL
REMARK 927      BINDING AFFINITY PREDICTED BY RF-SCORE:    0.00 PKD
ROOT
HETATM    1  C   UNL     1      -8.779  15.957  66.764  1.00  0.00    -0.269 C  
HETATM    2  C   UNL     1      -9.675  16.999  67.440  1.00  0.00    -0.252 C  
HETATM    3  C   UNL     1     -10.793  16.155  68.057  1.00  0.00    -0.333 C  
HETATM    4  C   UNL     1     -10.607  14.742  67.454  1.00  0.00    -0.268 C  
HETATM    5  C   UNL     1      -9.855  13.794  68.432  1.00  0.00    -0.227 C  
HETATM    6  N   UNL     1      -9.843  15.097  66.253  1.00  0.00    -0.276 NA 
HETATM    7  C   UNL     1      -7.838  15.336  67.823  1.00  0.00    -0.161 C  
HETATM    8  C   UNL     1      -8.293  14.001  68.479  1.00  0.00    -0.143 C  
ENDROOT
BRANCH   5   9
HETATM    9  C   UNL     1     -10.327  12.367  68.187  1.00  0.00    -0.226 C  
HETATM   10  O   UNL     1     -11.213  12.034  67.410  1.00  0.00    -0.268 OA 
BRANCH   9  11
HETATM   11  O   UNL     1      -9.619  11.457  68.919  1.00  0.00    -0.170 OA 
HETATM   12  C   UNL     1     -10.419  10.359  69.379  1.00  0.00    -0.238 C  
ENDBRANCH   9  11
ENDBRANCH   5   9
BRANCH   6  13
HETATM   13  C   UNL     1      -9.468  14.033  65.331  1.00  0.00     0.250 C  
BRANCH  13  14
HETATM   14  C   UNL     1     -10.657  13.316  64.676  1.00  0.00    -0.421 C  
HETATM   15  F   UNL     1     -11.577  11.325  63.896  1.00  0.00    -0.425 F  
HETATM   16  C   UNL     1     -10.439  11.840  64.446  1.00  0.00    -0.311 C  
ENDBRANCH  13  14
ENDBRANCH   6  13
BRANCH   8  17
HETATM   17  C   UNL     1      -7.456  12.769  68.079  1.00  0.00    -0.122 A  
HETATM   18  I   UNL     1      -5.687   8.287  67.336  1.00  0.00    -0.040 I  
HETATM   19  C   UNL     1      -7.503  12.179  66.806  1.00  0.00     0.066 A  
HETATM   20  C   UNL     1      -6.930  10.927  66.570  1.00  0.00    -0.139 A  
HETATM   21  C   UNL     1      -6.660  12.146  69.050  1.00  0.00    -0.100 A  
HETATM   22  C   UNL     1      -6.301  10.246  67.609  1.00  0.00    -0.058 A  
HETATM   23  C   UNL     1      -6.133  10.868  68.840  1.00  0.00    -0.040 A  
ENDBRANCH   8  17
TORSDOF 5
ENDMDL
MODEL      151
REMARK 921   NORMALIZED FREE ENERGY PREDICTED BY IDOCK:   -1.93 KCAL/MOL
REMARK 922        TOTAL FREE ENERGY PREDICTED BY IDOCK:   -2.96 KCAL/MOL
REMARK 923 INTER-LIGAND FREE ENERGY PREDICTED BY IDOCK:   -2.71 KCAL/MOL
REMARK 924 INTRA-LIGAND FREE ENERGY PREDICTED BY IDOCK:   -0.24 KCAL/MOL
REMARK 927      BINDING AFFINITY PREDICTED BY RF-SCORE:    0.00 PKD
ROOT
HETATM    1  C   UNL     1      -7.256   3.314  64.261  1.00  0.00    -0.058 C  
HETATM    2  C   UNL     1      -8.106   2.388  63.387  1.00  0.00    -0.073 C  
HETATM    3  C   UNL     1      -9.432   2.306  64.146  1.00  0.00    -0.134 C  
HETATM    4  C   UNL     1      -9.146   2.954  65.522  1.00  0.00    -0.147 C  
HETATM    5  C   UNL     1      -9.632   4.432  65.573  1.00  0.00    -0.188 C  
HETATM    6  N   UNL     1      -7.688   2.798  65.558  1.00  0.00    -0.076 NA 
HETATM    7  C   UNL     1      -7.621   4.783  63.946  1.00  0.00    -0.068 C  
HETATM    8  C   UNL     1      -8.675   5.464  64.866  1.00  0.00    -0.097 C  
ENDROOT
BRANCH   5   9
HETATM    9  C   UNL     1     -10.024   4.765  67.006  1.00  0.00    -0.204 C  
HETATM   10  O   UNL     1      -9.579   4.225  68.011  1.00  0.00    -0.161 OA 
BRANCH   9  11
HETATM   11  O   UNL     1     -10.930   5.785  67.069  1.00  0.00    -0.274 OA 
HETATM   12  C   UNL     1     -10.947   6.447  68.341  1.00  0.00    -0.309 C  
ENDBRANCH   9  11
ENDBRANCH   5   9
BRANCH   6  13
HETATM   13  C   UNL     1      -6.971   3.255  66.740  1.00  0.00    -0.054 C  
BRANCH  13  14
HETATM   14  C   UNL     1      -6.931   2.237  67.888  1.00  0.00    -0.047 C  
HETATM   15  F   UNL     1      -6.740   1.845  70.175  1.00  0.00    -0.030 F  
HETATM   16  C   UNL     1      -6.720   2.850  69.252  1.00  0.00    -0.034 C  
ENDBRANCH  13  14
ENDBRANCH   6  13
BRANCH   8  17
HETATM   17  C   UNL     1      -8.110   6.569  65.782  1.00  0.00    -0.128 A  
HETATM   18  I   UNL     1      -7.292   9.830  69.314  1.00  0.00    -0.117 I  
HETATM   19  C   UNL     1      -7.126   6.342  66.757  1.00  0.00    -0.073 A  
HETATM   20  C   UNL     1      -6.834   7.306  67.725  1.00  0.00    -0.070 A  
HETATM   21  C   UNL     1      -8.656   7.859  65.704  1.00  0.00    -0.159 A  
HETATM   22  C   UNL     1      -7.528   8.513  67.732  1.00  0.00    -0.097 A  
HETATM   23  C   UNL     1      -8.413   8.807  66.702  1.00  0.00    -0.111 A  
ENDBRANCH   8  17
TORSDOF 5
ENDMDL
MODEL      152
REMARK 921   NORMALIZED FREE ENERGY PREDICTED BY IDOCK:   -1.90 KCAL/MOL
REMARK 922        TOTAL FREE ENERGY PREDICTED BY IDOCK:   -2.90 KCAL/MOL
REMARK 923 INTER-LIGAND FREE ENERGY PREDICTED BY IDOCK:   -3.81 KCAL/MOL
REMARK 924 INTRA-LIGAND FREE ENERGY PREDICTED BY IDOCK:    0.90 KCAL/MOL
REMARK 927      BINDING AFFINITY PREDICTED BY RF-SCORE:    0.00 PKD
ROOT
HETATM    1  C   UNL     1      -6.169   9.098  66.774  1.00  0.00    -0.065 C  
HETATM    2  C   UNL     1      -5.137   9.930  66.008  1.00  0.00    -0.035 C  
HETATM    3  C   UNL     1      -5.997  10.788  65.077  1.00  0.00     0.033 C  
HETATM    4  C   UNL     1      -7.420  10.187  65.179  1.00  0.00    -0.141 C  
HETATM    5  C   UNL     1      -8.318  11.000  66.155  1.00  0.00    -0.163 C  
HETATM    6  N   UNL     1      -7.074   8.843  65.656  1.00  0.00    -0.083 NA 
HETATM    7  C   UNL     1      -6.734   9.943  67.940  1.00  0.00    -0.068 C  
HETATM    8  C   UNL     1      -8.064  10.707  67.682  1.00  0.00    -0.107 C  
ENDROOT
BRANCH   5   9
HETATM    9  C   UNL     1      -9.764  10.889  65.691  1.00  0.00    -0.232 C  
HETATM   10  O   UNL     1     -10.620  10.170  66.191  1.00  0.00    -0.146 OA 
BRANCH   9  11
HETATM   11  O   UNL     1     -10.034  11.723  64.643  1.00  0.00    -0.249 OA 
HETATM   12  C   UNL     1     -10.394  11.024  63.444  1.00  0.00    -0.312 C  
ENDBRANCH   9  11
ENDBRANCH   5   9
BRANCH   6  13
HETATM   13  C   UNL     1      -8.150   7.884  65.862  1.00  0.00    -0.119 C  
BRANCH  13  14
HETATM   14  C   UNL     1      -7.793   6.441  65.479  1.00  0.00    -0.103 C  
HETATM   15  F   UNL     1      -8.334   4.179  65.579  1.00  0.00    -0.106 F  
HETATM   16  C   UNL     1      -8.746   5.403  66.020  1.00  0.00    -0.137 C  
ENDBRANCH  13  14
ENDBRANCH   6  13
BRANCH   8  17
HETATM   17  C   UNL     1      -9.280  10.161  68.457  1.00  0.00    -0.144 A  
HETATM   18  I   UNL     1     -12.422   8.590  71.838  1.00  0.00    -0.477 I  
HETATM   19  C   UNL     1     -10.371  10.953  68.849  1.00  0.00    -0.222 A  
HETATM   20  C   UNL     1     -11.316  10.478  69.760  1.00  0.00    -0.367 A  
HETATM   21  C   UNL     1      -9.276   8.820  68.867  1.00  0.00    -0.141 A  
HETATM   22  C   UNL     1     -11.182   9.199  70.294  1.00  0.00    -0.218 A  
HETATM   23  C   UNL     1     -10.184   8.355  69.823  1.00  0.00    -0.207 A  
ENDBRANCH   8  17
TORSDOF 5
ENDMDL
MODEL      153
REMARK 921   NORMALIZED FREE ENERGY PREDICTED BY IDOCK:   -1.85 KCAL/MOL
REMARK 922        TOTAL FREE ENERGY PREDICTED BY IDOCK:   -2.84 KCAL/MOL
REMARK 923 INTER-LIGAND FREE ENERGY PREDICTED BY IDOCK:   -2.82 KCAL/MOL
REMARK 924 INTRA-LIGAND FREE ENERGY PREDICTED BY IDOCK:   -0.02 KCAL/MOL
REMARK 927      BINDING AFFINITY PREDICTED BY RF-SCORE:    0.00 PKD
ROOT
HETATM    1  C   UNL     1      -7.647   6.873  69.504  1.00  0.00    -0.099 C  
HETATM    2  C   UNL     1      -6.526   5.908  69.897  1.00  0.00    -0.038 C  
HETATM    3  C   UNL     1      -5.988   5.425  68.548  1.00  0.00    -0.021 C  
HETATM    4  C   UNL     1      -7.015   5.926  67.504  1.00  0.00    -0.069 C  
HETATM    5  C   UNL     1      -6.537   7.234  66.810  1.00  0.00    -0.056 C  
HETATM    6  N   UNL     1      -8.177   6.101  68.383  1.00  0.00    -0.114 NA 
HETATM    7  C   UNL     1      -7.032   8.250  69.163  1.00  0.00    -0.063 C  
HETATM    8  C   UNL     1      -6.735   8.543  67.664  1.00  0.00    -0.066 C  
ENDROOT
BRANCH   5   9
HETATM    9  C   UNL     1      -7.106   7.271  65.398  1.00  0.00    -0.061 C  
HETATM   10  O   UNL     1      -8.264   7.017  65.090  1.00  0.00    -0.134 OA 
BRANCH   9  11
HETATM   11  O   UNL     1      -6.175   7.659  64.477  1.00  0.00    -0.044 OA 
HETATM   12  C   UNL     1      -6.495   7.245  63.142  1.00  0.00    -0.053 C  
ENDBRANCH   9  11
ENDBRANCH   5   9
BRANCH   6  13
HETATM   13  C   UNL     1      -9.433   6.542  67.791  1.00  0.00    -0.119 C  
BRANCH  13  14
HETATM   14  C   UNL     1     -10.591   6.671  68.788  1.00  0.00    -0.271 C  
HETATM   15  F   UNL     1     -11.604   5.924  70.747  1.00  0.00    -0.350 F  
HETATM   16  C   UNL     1     -10.545   5.677  69.924  1.00  0.00    -0.328 C  
ENDBRANCH  13  14
ENDBRANCH   6  13
BRANCH   8  17
HETATM   17  C   UNL     1      -7.646   9.611  67.025  1.00  0.00    -0.095 A  
HETATM   18  I   UNL     1     -10.580  12.207  64.122  1.00  0.00    -0.548 I  
HETATM   19  C   UNL     1      -9.014   9.739  67.313  1.00  0.00    -0.146 A  
HETATM   20  C   UNL     1      -9.844  10.543  66.529  1.00  0.00    -0.255 A  
HETATM   21  C   UNL     1      -7.112  10.457  66.042  1.00  0.00    -0.133 A  
HETATM   22  C   UNL     1      -9.315  11.232  65.441  1.00  0.00    -0.210 A  
HETATM   23  C   UNL     1      -7.943  11.220  65.216  1.00  0.00     0.452 A  
ENDBRANCH   8  17
TORSDOF 5
ENDMDL
MODEL      154
REMARK 921   NORMALIZED FREE ENERGY PREDICTED BY IDOCK:   -1.66 KCAL/MOL
REMARK 922        TOTAL FREE ENERGY PREDICTED BY IDOCK:   -2.60 KCAL/MOL
REMARK 923 INTER-LIGAND FREE ENERGY PREDICTED BY IDOCK:   -2.62 KCAL/MOL
REMARK 924 INTRA-LIGAND FREE ENERGY PREDICTED BY IDOCK:    0.02 KCAL/MOL
REMARK 927      BINDING AFFINITY PREDICTED BY RF-SCORE:    0.00 PKD
ROOT
HETATM    1  C   UNL     1     -10.595  18.592  66.493  1.00  0.00    -0.358 C  
HETATM    2  C   UNL     1      -9.797  19.639  65.712  1.00  0.00    -0.229 C  
HETATM    3  C   UNL     1      -8.343  19.218  65.941  1.00  0.00    -0.046 C  
HETATM    4  C   UNL     1      -8.409  18.144  67.054  1.00  0.00    -0.240 C  
HETATM    5  C   UNL     1      -8.347  16.704  66.467  1.00  0.00    -0.322 C  
HETATM    6  N   UNL     1      -9.704  18.497  67.647  1.00  0.00    -0.289 NA 
HETATM    7  C   UNL     1     -10.741  17.319  65.628  1.00  0.00    -0.123 C  
HETATM    8  C   UNL     1      -9.703  16.183  65.857  1.00  0.00    -0.374 C  
ENDROOT
BRANCH   5   9
HETATM    9  C   UNL     1      -7.686  15.790  67.490  1.00  0.00    -0.161 C  
HETATM   10  O   UNL     1      -7.409  14.610  67.318  1.00  0.00    -0.193 OA 
BRANCH   9  11
HETATM   11  O   UNL     1      -7.392  16.446  68.652  1.00  0.00    -0.164 OA 
HETATM   12  C   UNL     1      -7.303  15.572  69.786  1.00  0.00    -0.096 C  
ENDBRANCH   9  11
ENDBRANCH   5   9
BRANCH   6  13
HETATM   13  C   UNL     1     -10.168  17.738  68.800  1.00  0.00    -0.373 C  
BRANCH  13  14
HETATM   14  C   UNL     1      -9.995  18.460  70.143  1.00  0.00     1.286 C  
HETATM   15  F   UNL     1     -10.033  20.463  71.329  1.00  0.00     0.565 F  
HETATM   16  C   UNL     1     -10.178  19.957  70.070  1.00  0.00     0.541 C  
ENDBRANCH  13  14
ENDBRANCH   6  13
BRANCH   8  17
HETATM   17  C   UNL     1     -10.274  14.913  66.519  1.00  0.00    -0.281 A  
HETATM   18  I   UNL     1     -10.946  10.686  68.855  1.00  0.00    -0.379 I  
HETATM   19  C   UNL     1     -10.803  14.885  67.819  1.00  0.00    -0.286 A  
HETATM   20  C   UNL     1     -11.069  13.675  68.464  1.00  0.00    -0.301 A  
HETATM   21  C   UNL     1     -10.197  13.695  65.828  1.00  0.00    -0.317 A  
HETATM   22  C   UNL     1     -10.807  12.472  67.814  1.00  0.00    -0.225 A  
HETATM   23  C   UNL     1     -10.405  12.478  66.484  1.00  0.00    -0.254 A  
ENDBRANCH   8  17
TORSDOF 5
ENDMDL
MODEL      155
REMARK 921   NORMALIZED FREE ENERGY PREDICTED BY IDOCK:   -1.60 KCAL/MOL
REMARK 922        TOTAL FREE ENERGY PREDICTED BY IDOCK:   -2.53 KCAL/MOL
REMARK 923 INTER-LIGAND FREE ENERGY PREDICTED BY IDOCK:   -2.84 KCAL/MOL
REMARK 924 INTRA-LIGAND FREE ENERGY PREDICTED BY IDOCK:    0.31 KCAL/MOL
REMARK 927      BINDING AFFINITY PREDICTED BY RF-SCORE:    0.00 PKD
ROOT
HETATM    1  C   UNL     1      -8.104   4.933  65.197  1.00  0.00    -0.112 C  
HETATM    2  C   UNL     1      -9.116   4.158  64.349  1.00  0.00    -0.147 C  
HETATM    3  C   UNL     1     -10.377   4.159  65.218  1.00  0.00    -0.184 C  
HETATM    4  C   UNL     1      -9.911   4.681  66.599  1.00  0.00    -0.221 C  
HETATM    5  C   UNL     1     -10.232   6.193  66.778  1.00  0.00    -0.264 C  
HETATM    6  N   UNL     1      -8.479   4.378  66.495  1.00  0.00    -0.112 NA 
HETATM    7  C   UNL     1      -8.337   6.449  65.002  1.00  0.00    -0.087 C  
HETATM    8  C   UNL     1      -9.233   7.169  66.050  1.00  0.00    -0.069 C  
ENDROOT
BRANCH   5   9
HETATM    9  C   UNL     1     -10.467   6.467  68.258  1.00  0.00    -0.219 C  
HETATM   10  O   UNL     1     -10.869   7.522  68.732  1.00  0.00    -0.140 OA 
BRANCH   9  11
HETATM   11  O   UNL     1     -10.206   5.373  69.032  1.00  0.00    -0.199 OA 
HETATM   12  C   UNL     1     -10.409   5.610  70.432  1.00  0.00    -0.260 C  
ENDBRANCH   9  11
ENDBRANCH   5   9
BRANCH   6  13
HETATM   13  C   UNL     1      -7.623   4.680  67.634  1.00  0.00    -0.078 C  
BRANCH  13  14
HETATM   14  C   UNL     1      -7.551   3.564  68.684  1.00  0.00    -0.053 C  
HETATM   15  F   UNL     1      -7.211   2.963  70.908  1.00  0.00    -0.032 F  
HETATM   16  C   UNL     1      -7.207   4.044  70.074  1.00  0.00    -0.042 C  
ENDBRANCH  13  14
ENDBRANCH   6  13
BRANCH   8  17
HETATM   17  C   UNL     1      -8.482   8.148  66.975  1.00  0.00    -0.120 A  
HETATM   18  I   UNL     1      -5.535  11.520  68.905  1.00  0.00    -0.043 I  
HETATM   19  C   UNL     1      -8.972   9.416  67.327  1.00  0.00    -0.143 A  
HETATM   20  C   UNL     1      -8.151  10.359  67.950  1.00  0.00    -0.102 A  
HETATM   21  C   UNL     1      -7.203   7.801  67.434  1.00  0.00    -0.091 A  
HETATM   22  C   UNL     1      -6.823  10.045  68.229  1.00  0.00    -0.063 A  
HETATM   23  C   UNL     1      -6.356   8.756  68.005  1.00  0.00    -0.056 A  
ENDBRANCH   8  17
TORSDOF 5
ENDMDL
MODEL      156
REMARK 921   NORMALIZED FREE ENERGY PREDICTED BY IDOCK:   -1.56 KCAL/MOL
REMARK 922        TOTAL FREE ENERGY PREDICTED BY IDOCK:   -2.47 KCAL/MOL
REMARK 923 INTER-LIGAND FREE ENERGY PREDICTED BY IDOCK:   -3.29 KCAL/MOL
REMARK 924 INTRA-LIGAND FREE ENERGY PREDICTED BY IDOCK:    0.82 KCAL/MOL
REMARK 927      BINDING AFFINITY PREDICTED BY RF-SCORE:    0.00 PKD
ROOT
HETATM    1  C   UNL     1      -9.119   9.682  66.319  1.00  0.00    -0.160 C  
HETATM    2  C   UNL     1      -8.445  10.026  64.988  1.00  0.00    -0.167 C  
HETATM    3  C   UNL     1      -7.539  11.207  65.347  1.00  0.00     0.369 C  
HETATM    4  C   UNL     1      -7.971  11.624  66.774  1.00  0.00    -0.140 C  
HETATM    5  C   UNL     1      -7.018  11.039  67.856  1.00  0.00    -0.073 C  
HETATM    6  N   UNL     1      -9.322  11.050  66.788  1.00  0.00    -0.179 NA 
HETATM    7  C   UNL     1      -8.163   8.800  67.156  1.00  0.00    -0.104 C  
HETATM    8  C   UNL     1      -7.266   9.522  68.202  1.00  0.00    -0.080 C  
ENDROOT
BRANCH   5   9
HETATM    9  C   UNL     1      -6.987  11.994  69.042  1.00  0.00    -0.094 C  
HETATM   10  O   UNL     1      -6.279  11.874  70.035  1.00  0.00    -0.152 OA 
BRANCH   9  11
HETATM   11  O   UNL     1      -7.832  13.053  68.873  1.00  0.00    -0.018 OA 
HETATM   12  C   UNL     1      -7.216  14.167  68.214  1.00  0.00    -0.116 C  
ENDBRANCH   9  11
ENDBRANCH   5   9
BRANCH   6  13
HETATM   13  C   UNL     1     -10.144  11.244  67.974  1.00  0.00    -0.177 C  
BRANCH  13  14
HETATM   14  C   UNL     1     -10.768  12.641  68.090  1.00  0.00    -0.242 C  
HETATM   15  F   UNL     1     -12.085  14.303  67.128  1.00  0.00    -0.406 F  
HETATM   16  C   UNL     1     -11.561  13.067  66.878  1.00  0.00    -0.366 C  
ENDBRANCH  13  14
ENDBRANCH   6  13
BRANCH   8  17
HETATM   17  C   UNL     1      -7.636   9.238  69.672  1.00  0.00    -0.084 A  
HETATM   18  I   UNL     1      -9.284   7.362  73.860  1.00  0.00    -0.173 I  
HETATM   19  C   UNL     1      -6.754   8.654  70.596  1.00  0.00    -0.043 A  
HETATM   20  C   UNL     1      -7.209   8.185  71.830  1.00  0.00    -0.089 A  
HETATM   21  C   UNL     1      -8.945   9.496  70.104  1.00  0.00    -0.269 A  
HETATM   22  C   UNL     1      -8.559   8.291  72.156  1.00  0.00    -0.188 A  
HETATM   23  C   UNL     1      -9.422   8.978  71.312  1.00  0.00    -0.339 A  
ENDBRANCH   8  17
TORSDOF 5
ENDMDL
MODEL      157
REMARK 921   NORMALIZED FREE ENERGY PREDICTED BY IDOCK:   -1.55 KCAL/MOL
REMARK 922        TOTAL FREE ENERGY PREDICTED BY IDOCK:   -2.46 KCAL/MOL
REMARK 923 INTER-LIGAND FREE ENERGY PREDICTED BY IDOCK:   -2.81 KCAL/MOL
REMARK 924 INTRA-LIGAND FREE ENERGY PREDICTED BY IDOCK:    0.36 KCAL/MOL
REMARK 927      BINDING AFFINITY PREDICTED BY RF-SCORE:    0.00 PKD
ROOT
HETATM    1  C   UNL     1     -10.447  10.663  69.163  1.00  0.00    -0.222 C  
HETATM    2  C   UNL     1     -11.402  10.944  70.326  1.00  0.00    -0.342 C  
HETATM    3  C   UNL     1     -11.832   9.545  70.775  1.00  0.00    -0.350 C  
HETATM    4  C   UNL     1     -11.317   8.594  69.667  1.00  0.00     0.197 C  
HETATM    5  C   UNL     1      -9.979   7.911  70.073  1.00  0.00    -0.191 C  
HETATM    6  N   UNL     1     -11.194   9.557  68.568  1.00  0.00     0.021 NA 
HETATM    7  C   UNL     1      -9.048  10.326  69.729  1.00  0.00    -0.089 C  
HETATM    8  C   UNL     1      -8.702   8.820  69.913  1.00  0.00    -0.135 C  
ENDROOT
BRANCH   5   9
HETATM    9  C   UNL     1      -9.908   6.545  69.404  1.00  0.00    -0.146 C  
HETATM   10  O   UNL     1     -10.326   6.277  68.284  1.00  0.00    -0.155 OA 
BRANCH   9  11
HETATM   11  O   UNL     1      -9.282   5.619  70.189  1.00  0.00    -0.138 OA 
HETATM   12  C   UNL     1     -10.082   5.187  71.298  1.00  0.00    -0.210 C  
ENDBRANCH   9  11
ENDBRANCH   5   9
BRANCH   6  13
HETATM   13  C   UNL     1     -10.758   9.070  67.267  1.00  0.00    -0.151 C  
BRANCH  13  14
HETATM   14  C   UNL     1     -10.193  10.156  66.341  1.00  0.00    -0.288 C  
HETATM   15  F   UNL     1     -10.569  12.101  65.118  1.00  0.00    -0.280 F  
HETATM   16  C   UNL     1     -11.208  11.183  65.900  1.00  0.00     0.055 C  
ENDBRANCH  13  14
ENDBRANCH   6  13
BRANCH   8  17
HETATM   17  C   UNL     1      -7.632   8.283  68.940  1.00  0.00    -0.093 A  
HETATM   18  I   UNL     1      -5.131   5.885  65.509  1.00  0.00    -0.010 I  
HETATM   19  C   UNL     1      -7.310   8.900  67.721  1.00  0.00    -0.085 A  
HETATM   20  C   UNL     1      -6.529   8.245  66.766  1.00  0.00    -0.056 A  
HETATM   21  C   UNL     1      -6.993   7.070  69.238  1.00  0.00    -0.074 A  
HETATM   22  C   UNL     1      -6.059   6.959  67.018  1.00  0.00    -0.036 A  
HETATM   23  C   UNL     1      -6.259   6.383  68.267  1.00  0.00    -0.036 A  
ENDBRANCH   8  17
TORSDOF 5
ENDMDL
MODEL      158
REMARK 921   NORMALIZED FREE ENERGY PREDICTED BY IDOCK:   -1.52 KCAL/MOL
REMARK 922        TOTAL FREE ENERGY PREDICTED BY IDOCK:   -2.42 KCAL/MOL
REMARK 923 INTER-LIGAND FREE ENERGY PREDICTED BY IDOCK:   -3.83 KCAL/MOL
REMARK 924 INTRA-LIGAND FREE ENERGY PREDICTED BY IDOCK:    1.41 KCAL/MOL
REMARK 927      BINDING AFFINITY PREDICTED BY RF-SCORE:    0.00 PKD
ROOT
HETATM    1  C   UNL     1     -10.432   7.032  69.311  1.00  0.00    -0.210 C  
HETATM    2  C   UNL     1      -9.847   5.918  70.184  1.00  0.00    -0.226 C  
HETATM    3  C   UNL     1      -8.405   6.374  70.418  1.00  0.00    -0.126 C  
HETATM    4  C   UNL     1      -8.195   7.556  69.440  1.00  0.00    -0.130 C  
HETATM    5  C   UNL     1      -8.355   8.928  70.156  1.00  0.00    -0.142 C  
HETATM    6  N   UNL     1      -9.256   7.253  68.473  1.00  0.00    -0.139 NA 
HETATM    7  C   UNL     1     -10.864   8.209  70.217  1.00  0.00    -0.244 C  
HETATM    8  C   UNL     1      -9.846   9.372  70.402  1.00  0.00    -0.313 C  
ENDROOT
BRANCH   5   9
HETATM    9  C   UNL     1      -7.467   9.948  69.455  1.00  0.00    -0.108 C  
HETATM   10  O   UNL     1      -7.296  10.032  68.245  1.00  0.00    -0.077 OA 
BRANCH   9  11
HETATM   11  O   UNL     1      -6.882  10.813  70.335  1.00  0.00    -0.278 OA 
HETATM   12  C   UNL     1      -6.247  11.927  69.693  1.00  0.00    -0.129 C  
ENDBRANCH   9  11
ENDBRANCH   5   9
BRANCH   6  13
HETATM   13  C   UNL     1      -9.404   8.122  67.314  1.00  0.00    -0.141 C  
BRANCH  13  14
HETATM   14  C   UNL     1      -8.613   7.670  66.079  1.00  0.00    -0.165 C  
HETATM   15  F   UNL     1      -7.719   8.211  63.999  1.00  0.00    -0.105 F  
HETATM   16  C   UNL     1      -8.467   8.731  65.015  1.00  0.00    -0.175 C  
ENDBRANCH  13  14
ENDBRANCH   6  13
BRANCH   8  17
HETATM   17  C   UNL     1     -10.256  10.698  69.730  1.00  0.00    -0.098 A  
HETATM   18  I   UNL     1     -10.885  15.362  68.457  1.00  0.00    -0.317 I  
HETATM   19  C   UNL     1      -9.608  11.230  68.604  1.00  0.00    -0.195 A  
HETATM   20  C   UNL     1      -9.844  12.543  68.190  1.00  0.00    -0.221 A  
HETATM   21  C   UNL     1     -11.277  11.465  70.310  1.00  0.00     0.035 A  
HETATM   22  C   UNL     1     -10.733  13.345  68.901  1.00  0.00    -0.190 A  
HETATM   23  C   UNL     1     -11.478  12.798  69.939  1.00  0.00    -0.141 A  
ENDBRANCH   8  17
TORSDOF 5
ENDMDL
MODEL      159
REMARK 921   NORMALIZED FREE ENERGY PREDICTED BY IDOCK:   -1.25 KCAL/MOL
REMARK 922        TOTAL FREE ENERGY PREDICTED BY IDOCK:   -2.06 KCAL/MOL
REMARK 923 INTER-LIGAND FREE ENERGY PREDICTED BY IDOCK:   -2.72 KCAL/MOL
REMARK 924 INTRA-LIGAND FREE ENERGY PREDICTED BY IDOCK:    0.66 KCAL/MOL
REMARK 927      BINDING AFFINITY PREDICTED BY RF-SCORE:    0.00 PKD
ROOT
HETATM    1  C   UNL     1     -11.895  11.072  68.486  1.00  0.00    -0.216 C  
HETATM    2  C   UNL     1     -12.423  12.225  69.343  1.00  0.00     0.225 C  
HETATM    3  C   UNL     1     -11.166  13.044  69.646  1.00  0.00    -0.080 C  
HETATM    4  C   UNL     1      -9.988  12.153  69.184  1.00  0.00     0.305 C  
HETATM    5  C   UNL     1      -9.472  12.569  67.776  1.00  0.00    -0.197 C  
HETATM    6  N   UNL     1     -10.652  10.845  69.219  1.00  0.00    -0.222 NA 
HETATM    7  C   UNL     1     -11.756  11.552  67.023  1.00  0.00    -0.092 C  
HETATM    8  C   UNL     1     -10.355  12.060  66.574  1.00  0.00    -0.240 C  
ENDROOT
BRANCH   5   9
HETATM    9  C   UNL     1      -7.986  12.249  67.688  1.00  0.00    -0.161 C  
HETATM   10  O   UNL     1      -7.263  12.476  66.726  1.00  0.00     0.058 OA 
BRANCH   9  11
HETATM   11  O   UNL     1      -7.510  11.691  68.841  1.00  0.00    -0.116 OA 
HETATM   12  C   UNL     1      -6.578  12.534  69.532  1.00  0.00    -0.039 C  
ENDBRANCH   9  11
ENDBRANCH   5   9
BRANCH   6  13
HETATM   13  C   UNL     1      -9.873   9.663  68.880  1.00  0.00    -0.174 C  
BRANCH  13  14
HETATM   14  C   UNL     1     -10.398   8.360  69.498  1.00  0.00    -0.219 C  
HETATM   15  F   UNL     1     -11.772   7.334  71.074  1.00  0.00    -0.287 F  
HETATM   16  C   UNL     1     -11.360   8.563  70.645  1.00  0.00    -0.241 C  
ENDBRANCH  13  14
ENDBRANCH   6  13
BRANCH   8  17
HETATM   17  C   UNL     1      -9.629  11.141  65.571  1.00  0.00    -0.263 A  
HETATM   18  I   UNL     1      -8.379   7.688  62.362  1.00  0.00     0.190 I  
HETATM   19  C   UNL     1      -9.477  11.445  64.209  1.00  0.00    -0.153 A  
HETATM   20  C   UNL     1      -9.044  10.478  63.298  1.00  0.00    -0.267 A  
HETATM   21  C   UNL     1      -9.160   9.894  66.010  1.00  0.00    -0.195 A  
HETATM   22  C   UNL     1      -8.760   9.189  63.739  1.00  0.00    -0.125 A  
HETATM   23  C   UNL     1      -8.782   8.903  65.099  1.00  0.00    -0.213 A  
ENDBRANCH   8  17
TORSDOF 5
ENDMDL
MODEL      160
REMARK 921   NORMALIZED FREE ENERGY PREDICTED BY IDOCK:   -1.19 KCAL/MOL
REMARK 922        TOTAL FREE ENERGY PREDICTED BY IDOCK:   -1.99 KCAL/MOL
REMARK 923 INTER-LIGAND FREE ENERGY PREDICTED BY IDOCK:   -3.98 KCAL/MOL
REMARK 924 INTRA-LIGAND FREE ENERGY PREDICTED BY IDOCK:    1.99 KCAL/MOL
REMARK 927      BINDING AFFINITY PREDICTED BY RF-SCORE:    0.00 PKD
ROOT
HETATM    1  C   UNL     1     -10.410  18.810  68.777  1.00  0.00    -0.138 C  
HETATM    2  C   UNL     1      -9.546  20.068  68.897  1.00  0.00    -0.166 C  
HETATM    3  C   UNL     1      -8.227  19.653  68.240  1.00  0.00    -0.357 C  
HETATM    4  C   UNL     1      -8.339  18.120  68.051  1.00  0.00    -0.261 C  
HETATM    5  C   UNL     1      -8.753  17.750  66.598  1.00  0.00    -0.281 C  
HETATM    6  N   UNL     1      -9.363  17.833  69.062  1.00  0.00    -0.140 NA 
HETATM    7  C   UNL     1     -11.035  18.760  67.363  1.00  0.00    -0.281 C  
HETATM    8  C   UNL     1     -10.288  17.920  66.287  1.00  0.00    -0.364 C  
ENDROOT
BRANCH   5   9
HETATM    9  C   UNL     1      -8.153  16.393  66.253  1.00  0.00    -0.276 C  
HETATM   10  O   UNL     1      -8.776  15.424  65.836  1.00  0.00    -0.117 OA 
BRANCH   9  11
HETATM   11  O   UNL     1      -6.799  16.369  66.429  1.00  0.00    -0.179 OA 
HETATM   12  C   UNL     1      -6.339  15.190  67.104  1.00  0.00     0.397 C  
ENDBRANCH   9  11
ENDBRANCH   5   9
BRANCH   6  13
HETATM   13  C   UNL     1      -9.767  16.448  69.263  1.00  0.00    -0.221 C  
BRANCH  13  14
HETATM   14  C   UNL     1      -8.602  15.479  69.509  1.00  0.00    -0.218 C  
HETATM   15  F   UNL     1      -7.677  13.372  69.156  1.00  0.00    -0.052 F  
HETATM   16  C   UNL     1      -8.792  14.114  68.893  1.00  0.00     0.021 C  
ENDBRANCH  13  14
ENDBRANCH   6  13
BRANCH   8  17
HETATM   17  C   UNL     1     -11.017  16.631  65.857  1.00  0.00     0.060 A  
HETATM   18  I   UNL     1     -12.240  12.227  64.159  1.00  0.00    -0.468 I  
HETATM   19  C   UNL     1     -11.318  15.579  66.736  1.00  0.00    -0.054 A  
HETATM   20  C   UNL     1     -11.743  14.338  66.257  1.00  0.00    -0.404 A  
HETATM   21  C   UNL     1     -11.332  16.450  64.503  1.00  0.00    -0.120 A  
HETATM   22  C   UNL     1     -11.871  14.132  64.886  1.00  0.00    -0.402 A  
HETATM   23  C   UNL     1     -11.701  15.196  64.008  1.00  0.00     0.044 A  
ENDBRANCH   8  17
TORSDOF 5
ENDMDL
MODEL      161
REMARK 921   NORMALIZED FREE ENERGY PREDICTED BY IDOCK:   -1.07 KCAL/MOL
REMARK 922        TOTAL FREE ENERGY PREDICTED BY IDOCK:   -1.83 KCAL/MOL
REMARK 923 INTER-LIGAND FREE ENERGY PREDICTED BY IDOCK:   -2.60 KCAL/MOL
REMARK 924 INTRA-LIGAND FREE ENERGY PREDICTED BY IDOCK:    0.76 KCAL/MOL
REMARK 927      BINDING AFFINITY PREDICTED BY RF-SCORE:    0.00 PKD
ROOT
HETATM    1  C   UNL     1      -9.249   6.283  67.086  1.00  0.00    -0.122 C  
HETATM    2  C   UNL     1      -8.485   6.801  65.865  1.00  0.00    -0.146 C  
HETATM    3  C   UNL     1      -7.195   7.362  66.468  1.00  0.00    -0.079 C  
HETATM    4  C   UNL     1      -7.442   7.378  67.996  1.00  0.00    -0.105 C  
HETATM    5  C   UNL     1      -6.797   6.146  68.694  1.00  0.00    -0.070 C  
HETATM    6  N   UNL     1      -8.909   7.372  67.998  1.00  0.00    -0.127 NA 
HETATM    7  C   UNL     1      -8.715   4.879  67.457  1.00  0.00    -0.103 C  
HETATM    8  C   UNL     1      -7.616   4.807  68.556  1.00  0.00    -0.073 C  
ENDROOT
BRANCH   5   9
HETATM    9  C   UNL     1      -6.406   6.540  70.112  1.00  0.00    -0.039 C  
HETATM   10  O   UNL     1      -5.372   6.217  70.683  1.00  0.00    -0.013 OA 
BRANCH   9  11
HETATM   11  O   UNL     1      -7.340   7.346  70.698  1.00  0.00    -0.067 OA 
HETATM   12  C   UNL     1      -6.764   8.424  71.449  1.00  0.00    -0.063 C  
ENDBRANCH   9  11
ENDBRANCH   5   9
BRANCH   6  13
HETATM   13  C   UNL     1      -9.599   7.422  69.279  1.00  0.00    -0.154 C  
BRANCH  13  14
HETATM   14  C   UNL     1      -9.831   8.840  69.818  1.00  0.00    -0.189 C  
HETATM   15  F   UNL     1     -10.839  10.920  69.537  1.00  0.00    -0.233 F  
HETATM   16  C   UNL     1     -10.686   9.709  68.926  1.00  0.00    -0.206 C  
ENDBRANCH  13  14
ENDBRANCH   6  13
BRANCH   8  17
HETATM   17  C   UNL     1      -8.077   4.180  69.887  1.00  0.00    -0.059 A  
HETATM   18  I   UNL     1      -9.146   3.216  74.546  1.00  0.00    -0.111 I  
HETATM   19  C   UNL     1      -9.405   4.213  70.342  1.00  0.00    -0.225 A  
HETATM   20  C   UNL     1      -9.725   3.863  71.656  1.00  0.00    -0.240 A  
HETATM   21  C   UNL     1      -7.117   3.612  70.737  1.00  0.00    -0.033 A  
HETATM   22  C   UNL     1      -8.717   3.476  72.536  1.00  0.00    -0.085 A  
HETATM   23  C   UNL     1      -7.418   3.315  72.070  1.00  0.00    -0.052 A  
ENDBRANCH   8  17
TORSDOF 5
ENDMDL
MODEL      162
REMARK 921   NORMALIZED FREE ENERGY PREDICTED BY IDOCK:   -0.76 KCAL/MOL
REMARK 922        TOTAL FREE ENERGY PREDICTED BY IDOCK:   -1.44 KCAL/MOL
REMARK 923 INTER-LIGAND FREE ENERGY PREDICTED BY IDOCK:   -1.81 KCAL/MOL
REMARK 924 INTRA-LIGAND FREE ENERGY PREDICTED BY IDOCK:    0.37 KCAL/MOL
REMARK 927      BINDING AFFINITY PREDICTED BY RF-SCORE:    0.00 PKD
ROOT
HETATM    1  C   UNL     1      -7.298  11.767  69.723  1.00  0.00     0.558 C  
HETATM    2  C   UNL     1      -5.799  11.781  70.033  1.00  0.00    -0.148 C  
HETATM    3  C   UNL     1      -5.180  11.087  68.817  1.00  0.00    -0.040 C  
HETATM    4  C   UNL     1      -6.381  10.484  68.048  1.00  0.00    -0.058 C  
HETATM    5  C   UNL     1      -6.808  11.385  66.854  1.00  0.00    -0.142 C  
HETATM    6  N   UNL     1      -7.358  10.428  69.141  1.00  0.00    -0.091 NA 
HETATM    7  C   UNL     1      -7.629  12.946  68.779  1.00  0.00    -0.025 C  
HETATM    8  C   UNL     1      -7.670  12.642  67.254  1.00  0.00    -0.140 C  
ENDROOT
BRANCH   5   9
HETATM    9  C   UNL     1      -7.394  10.500  65.762  1.00  0.00    -0.137 C  
HETATM   10  O   UNL     1      -7.303  10.699  64.557  1.00  0.00     0.020 OA 
BRANCH   9  11
HETATM   11  O   UNL     1      -8.028   9.403  66.273  1.00  0.00    -0.109 OA 
HETATM   12  C   UNL     1      -8.910   8.773  65.334  1.00  0.00    -0.178 C  
ENDBRANCH   9  11
ENDBRANCH   5   9
BRANCH   6  13
HETATM   13  C   UNL     1      -8.674   9.869  68.865  1.00  0.00    -0.140 C  
BRANCH  13  14
HETATM   14  C   UNL     1      -8.944   8.521  69.548  1.00  0.00    -0.149 C  
HETATM   15  F   UNL     1      -8.361   6.996  71.208  1.00  0.00    -0.110 F  
HETATM   16  C   UNL     1      -7.988   8.194  70.671  1.00  0.00    -0.096 C  
ENDBRANCH  13  14
ENDBRANCH   6  13
BRANCH   8  17
HETATM   17  C   UNL     1      -9.077  12.699  66.624  1.00  0.00    -0.193 A  
HETATM   18  I   UNL     1     -12.997  12.303  63.751  1.00  0.00     0.488 I  
HETATM   19  C   UNL     1     -10.100  11.786  66.924  1.00  0.00    -0.231 A  
HETATM   20  C   UNL     1     -11.260  11.722  66.148  1.00  0.00    -0.363 A  
HETATM   21  C   UNL     1      -9.340  13.661  65.638  1.00  0.00     0.229 A  
HETATM   22  C   UNL     1     -11.411  12.573  65.057  1.00  0.00    -0.326 A  
HETATM   23  C   UNL     1     -10.470  13.567  64.820  1.00  0.00    -0.430 A  
ENDBRANCH   8  17
TORSDOF 5
ENDMDL
MODEL      163
REMARK 921   NORMALIZED FREE ENERGY PREDICTED BY IDOCK:    0.42 KCAL/MOL
REMARK 922        TOTAL FREE ENERGY PREDICTED BY IDOCK:    0.09 KCAL/MOL
REMARK 923 INTER-LIGAND FREE ENERGY PREDICTED BY IDOCK:    0.19 KCAL/MOL
REMARK 924 INTRA-LIGAND FREE ENERGY PREDICTED BY IDOCK:   -0.10 KCAL/MOL
REMARK 927      BINDING AFFINITY PREDICTED BY RF-SCORE:    0.00 PKD
ROOT
HETATM    1  C   UNL     1      -6.353  15.445  68.772  1.00  0.00    -0.101 C  
HETATM    2  C   UNL     1      -5.309  15.438  67.652  1.00  0.00    -0.051 C  
HETATM    3  C   UNL     1      -5.535  14.087  66.968  1.00  0.00     1.229 C  
HETATM    4  C   UNL     1      -6.487  13.315  67.914  1.00  0.00    -0.147 C  
HETATM    5  C   UNL     1      -7.963  13.391  67.428  1.00  0.00    -0.170 C  
HETATM    6  N   UNL     1      -6.224  14.043  69.160  1.00  0.00    -0.097 NA 
HETATM    7  C   UNL     1      -7.718  15.877  68.187  1.00  0.00    -0.135 C  
HETATM    8  C   UNL     1      -8.697  14.745  67.763  1.00  0.00    -0.173 C  
ENDROOT
BRANCH   5   9
HETATM    9  C   UNL     1      -8.684  12.122  67.863  1.00  0.00    -0.176 C  
HETATM   10  O   UNL     1      -8.753  11.699  69.010  1.00  0.00     0.018 OA 
BRANCH   9  11
HETATM   11  O   UNL     1      -9.296  11.493  66.816  1.00  0.00    -0.173 OA 
HETATM   12  C   UNL     1      -8.379  10.788  65.968  1.00  0.00    -0.163 C  
ENDBRANCH   9  11
ENDBRANCH   5   9
BRANCH   6  13
HETATM   13  C   UNL     1      -6.907  13.611  70.371  1.00  0.00     0.608 C  
BRANCH  13  14
HETATM   14  C   UNL     1      -6.378  14.256  71.659  1.00  0.00     0.548 C  
HETATM   15  F   UNL     1      -5.150  14.027  73.624  1.00  0.00    -0.237 F  
HETATM   16  C   UNL     1      -5.586  13.321  72.541  1.00  0.00     0.405 C  
ENDBRANCH  13  14
ENDBRANCH   6  13
BRANCH   8  17
HETATM   17  C   UNL     1      -9.948  14.610  68.654  1.00  0.00    -0.234 A  
HETATM   18  I   UNL     1     -13.502  13.083  71.624  1.00  0.00     0.158 I  
HETATM   19  C   UNL     1      -9.997  15.029  69.993  1.00  0.00     0.033 A  
HETATM   20  C   UNL     1     -11.054  14.657  70.827  1.00  0.00     0.012 A  
HETATM   21  C   UNL     1     -11.081  13.963  68.139  1.00  0.00    -0.278 A  
HETATM   22  C   UNL     1     -12.079  13.856  70.331  1.00  0.00    -0.351 A  
HETATM   23  C   UNL     1     -12.114  13.537  68.979  1.00  0.00    -0.330 A  
ENDBRANCH   8  17
TORSDOF 5
ENDMDL
MODEL      164
REMARK 921   NORMALIZED FREE ENERGY PREDICTED BY IDOCK:    1.24 KCAL/MOL
REMARK 922        TOTAL FREE ENERGY PREDICTED BY IDOCK:    1.15 KCAL/MOL
REMARK 923 INTER-LIGAND FREE ENERGY PREDICTED BY IDOCK:   -0.26 KCAL/MOL
REMARK 924 INTRA-LIGAND FREE ENERGY PREDICTED BY IDOCK:    1.41 KCAL/MOL
REMARK 927      BINDING AFFINITY PREDICTED BY RF-SCORE:    0.00 PKD
ROOT
HETATM    1  C   UNL     1      -9.197  11.843  65.403  1.00  0.00     0.047 C  
HETATM    2  C   UNL     1      -9.951  13.118  65.788  1.00  0.00    -0.260 C  
HETATM    3  C   UNL     1     -11.120  12.596  66.629  1.00  0.00    -0.314 C  
HETATM    4  C   UNL     1     -11.104  11.062  66.426  1.00  0.00    -0.068 C  
HETATM    5  C   UNL     1     -10.407  10.333  67.611  1.00  0.00    -0.264 C  
HETATM    6  N   UNL     1     -10.363  10.999  65.161  1.00  0.00    -0.281 NA 
HETATM    7  C   UNL     1      -8.276  11.428  66.575  1.00  0.00    -0.152 C  
HETATM    8  C   UNL     1      -8.832  10.374  67.574  1.00  0.00    -0.134 C  
ENDROOT
BRANCH   5   9
HETATM    9  C   UNL     1     -11.031   8.953  67.768  1.00  0.00     0.106 C  
HETATM   10  O   UNL     1     -11.457   8.478  68.813  1.00  0.00     0.557 OA 
BRANCH   9  11
HETATM   11  O   UNL     1     -11.101   8.282  66.580  1.00  0.00     0.289 OA 
HETATM   12  C   UNL     1     -11.313   6.873  66.740  1.00  0.00     0.483 C  
ENDBRANCH   9  11
ENDBRANCH   5   9
BRANCH   6  13
HETATM   13  C   UNL     1     -10.140   9.694  64.554  1.00  0.00     0.734 C  
BRANCH  13  14
HETATM   14  C   UNL     1      -8.979   9.653  63.551  1.00  0.00    -0.247 C  
HETATM   15  F   UNL     1      -7.102   8.537  62.745  1.00  0.00    -0.090 F  
HETATM   16  C   UNL     1      -8.059   8.467  63.715  1.00  0.00    -0.154 C  
ENDBRANCH  13  14
ENDBRANCH   6  13
BRANCH   8  17
HETATM   17  C   UNL     1      -8.142   8.997  67.507  1.00  0.00    -0.108 A  
HETATM   18  I   UNL     1      -5.208   5.141  68.055  1.00  0.00    -0.004 I  
HETATM   19  C   UNL     1      -8.546   7.888  68.268  1.00  0.00    -0.124 A  
HETATM   20  C   UNL     1      -7.742   6.750  68.365  1.00  0.00    -0.106 A  
HETATM   21  C   UNL     1      -6.999   8.850  66.708  1.00  0.00    -0.077 A  
HETATM   22  C   UNL     1      -6.519   6.706  67.702  1.00  0.00    -0.045 A  
HETATM   23  C   UNL     1      -6.161   7.739  66.844  1.00  0.00    -0.052 A  
ENDBRANCH   8  17
TORSDOF 5
ENDMDL
MODEL      165
REMARK 921   NORMALIZED FREE ENERGY PREDICTED BY IDOCK:    1.24 KCAL/MOL
REMARK 922        TOTAL FREE ENERGY PREDICTED BY IDOCK:    1.15 KCAL/MOL
REMARK 923 INTER-LIGAND FREE ENERGY PREDICTED BY IDOCK:   -3.24 KCAL/MOL
REMARK 924 INTRA-LIGAND FREE ENERGY PREDICTED BY IDOCK:    4.39 KCAL/MOL
REMARK 927      BINDING AFFINITY PREDICTED BY RF-SCORE:    0.00 PKD
ROOT
HETATM    1  C   UNL     1     -12.026  12.584  66.589  1.00  0.00    -0.281 C  
HETATM    2  C   UNL     1     -12.259  13.614  65.481  1.00  0.00    -0.476 C  
HETATM    3  C   UNL     1     -10.841  13.974  65.030  1.00  0.00    -0.401 C  
HETATM    4  C   UNL     1      -9.911  13.343  66.095  1.00  0.00    -0.281 C  
HETATM    5  C   UNL     1      -9.323  11.986  65.611  1.00  0.00    -0.086 C  
HETATM    6  N   UNL     1     -10.865  13.226  67.202  1.00  0.00    -0.256 NA 
HETATM    7  C   UNL     1     -11.789  11.197  65.948  1.00  0.00     1.034 C  
HETATM    8  C   UNL     1     -10.312  10.764  65.722  1.00  0.00    -0.295 C  
ENDROOT
BRANCH   5   9
HETATM    9  C   UNL     1      -7.956  11.793  66.252  1.00  0.00     0.155 C  
HETATM   10  O   UNL     1      -7.428  12.557  67.051  1.00  0.00    -0.114 OA 
BRANCH   9  11
HETATM   11  O   UNL     1      -7.364  10.626  65.861  1.00  0.00    -0.144 OA 
HETATM   12  C   UNL     1      -7.365  10.441  64.439  1.00  0.00    -0.002 C  
ENDBRANCH   9  11
ENDBRANCH   5   9
BRANCH   6  13
HETATM   13  C   UNL     1     -10.390  12.694  68.472  1.00  0.00    -0.221 C  
BRANCH  13  14
HETATM   14  C   UNL     1     -11.078  11.394  68.910  1.00  0.00    -0.290 C  
HETATM   15  F   UNL     1     -12.970  10.358  69.786  1.00  0.00    -0.245 F  
HETATM   16  C   UNL     1     -12.466  11.587  69.473  1.00  0.00     0.004 C  
ENDBRANCH  13  14
ENDBRANCH   6  13
BRANCH   8  17
HETATM   17  C   UNL     1      -9.832   9.613  66.630  1.00  0.00    -0.285 A  
HETATM   18  I   UNL     1      -9.406   6.061  69.943  1.00  0.00    -0.190 I  
HETATM   19  C   UNL     1      -9.842   8.264  66.243  1.00  0.00    -0.227 A  
HETATM   20  C   UNL     1      -9.643   7.245  67.177  1.00  0.00    -0.203 A  
HETATM   21  C   UNL     1      -9.437   9.906  67.943  1.00  0.00    -0.149 A  
HETATM   22  C   UNL     1      -9.434   7.564  68.516  1.00  0.00    -0.146 A  
HETATM   23  C   UNL     1      -9.295   8.893  68.896  1.00  0.00    -0.140 A  
ENDBRANCH   8  17
TORSDOF 5
ENDMDL
MODEL      166
REMARK 921   NORMALIZED FREE ENERGY PREDICTED BY IDOCK:    1.30 KCAL/MOL
REMARK 922        TOTAL FREE ENERGY PREDICTED BY IDOCK:    1.22 KCAL/MOL
REMARK 923 INTER-LIGAND FREE ENERGY PREDICTED BY IDOCK:   -2.74 KCAL/MOL
REMARK 924 INTRA-LIGAND FREE ENERGY PREDICTED BY IDOCK:    3.96 KCAL/MOL
REMARK 927      BINDING AFFINITY PREDICTED BY RF-SCORE:    0.00 PKD
ROOT
HETATM    1  C   UNL     1     -10.430  12.226  66.925  1.00  0.00    -0.217 C  
HETATM    2  C   UNL     1     -10.417  13.087  65.658  1.00  0.00    -0.291 C  
HETATM    3  C   UNL     1      -9.313  14.109  65.938  1.00  0.00    -0.036 C  
HETATM    4  C   UNL     1      -8.977  13.934  67.439  1.00  0.00    -0.210 C  
HETATM    5  C   UNL     1      -7.708  13.057  67.645  1.00  0.00    -0.161 C  
HETATM    6  N   UNL     1     -10.223  13.304  67.888  1.00  0.00    -0.227 NA 
HETATM    7  C   UNL     1      -9.309  11.165  66.825  1.00  0.00    -0.193 C  
HETATM    8  C   UNL     1      -7.948  11.507  67.498  1.00  0.00    -0.133 C  
ENDROOT
BRANCH   5   9
HETATM    9  C   UNL     1      -7.012  13.501  68.925  1.00  0.00    -0.108 C  
HETATM   10  O   UNL     1      -6.978  12.870  69.973  1.00  0.00     0.335 OA 
BRANCH   9  11
HETATM   11  O   UNL     1      -6.379  14.702  68.777  1.00  0.00    -0.083 OA 
HETATM   12  C   UNL     1      -6.439  15.520  69.953  1.00  0.00    -0.146 C  
ENDBRANCH   9  11
ENDBRANCH   5   9
BRANCH   6  13
HETATM   13  C   UNL     1     -10.368  12.985  69.302  1.00  0.00     0.323 C  
BRANCH  13  14
HETATM   14  C   UNL     1     -11.805  12.664  69.734  1.00  0.00    -0.379 C  
HETATM   15  F   UNL     1     -13.616  13.174  71.105  1.00  0.00    -0.207 F  
HETATM   16  C   UNL     1     -12.328  13.541  70.846  1.00  0.00    -0.356 C  
ENDBRANCH  13  14
ENDBRANCH   6  13
BRANCH   8  17
HETATM   17  C   UNL     1      -7.622  10.671  68.752  1.00  0.00    -0.109 A  
HETATM   18  I   UNL     1      -5.888   7.445  71.971  1.00  0.00    -0.036 I  
HETATM   19  C   UNL     1      -6.677  11.054  69.717  1.00  0.00    -0.136 A  
HETATM   20  C   UNL     1      -6.235  10.154  70.689  1.00  0.00    -0.103 A  
HETATM   21  C   UNL     1      -8.237   9.420  68.911  1.00  0.00    -0.111 A  
HETATM   22  C   UNL     1      -6.732   8.854  70.708  1.00  0.00    -0.059 A  
HETATM   23  C   UNL     1      -7.758   8.494  69.843  1.00  0.00    -0.091 A  
ENDBRANCH   8  17
TORSDOF 5
ENDMDL
MODEL      167
REMARK 921   NORMALIZED FREE ENERGY PREDICTED BY IDOCK:    1.57 KCAL/MOL
REMARK 922        TOTAL FREE ENERGY PREDICTED BY IDOCK:    1.58 KCAL/MOL
REMARK 923 INTER-LIGAND FREE ENERGY PREDICTED BY IDOCK:   -2.83 KCAL/MOL
REMARK 924 INTRA-LIGAND FREE ENERGY PREDICTED BY IDOCK:    4.40 KCAL/MOL
REMARK 927      BINDING AFFINITY PREDICTED BY RF-SCORE:    0.00 PKD
ROOT
HETATM    1  C   UNL     1     -10.456  10.633  68.304  1.00  0.00    -0.187 C  
HETATM    2  C   UNL     1     -11.075  10.910  69.677  1.00  0.00    -0.328 C  
HETATM    3  C   UNL     1     -10.646   9.699  70.508  1.00  0.00    -0.369 C  
HETATM    4  C   UNL     1     -10.061   8.697  69.483  1.00  0.00    -0.203 C  
HETATM    5  C   UNL     1      -8.507   8.757  69.445  1.00  0.00    -0.125 C  
HETATM    6  N   UNL     1     -10.714   9.196  68.267  1.00  0.00    -0.168 NA 
HETATM    7  C   UNL     1      -8.972  11.068  68.322  1.00  0.00    -0.155 C  
HETATM    8  C   UNL     1      -7.915   9.968  68.628  1.00  0.00    -0.097 C  
ENDROOT
BRANCH   5   9
HETATM    9  C   UNL     1      -7.977   7.381  69.067  1.00  0.00    -0.122 C  
HETATM   10  O   UNL     1      -8.275   6.754  68.057  1.00  0.00    -0.113 OA 
BRANCH   9  11
HETATM   11  O   UNL     1      -7.078   6.906  69.979  1.00  0.00    -0.070 OA 
HETATM   12  C   UNL     1      -7.417   7.242  71.331  1.00  0.00    -0.082 C  
ENDBRANCH   9  11
ENDBRANCH   5   9
BRANCH   6  13
HETATM   13  C   UNL     1     -10.468   8.496  67.014  1.00  0.00    -0.292 C  
BRANCH  13  14
HETATM   14  C   UNL     1     -10.493   9.397  65.772  1.00  0.00     0.391 C  
HETATM   15  F   UNL     1      -9.297  10.482  64.094  1.00  0.00    -0.200 F  
HETATM   16  C   UNL     1      -9.128   9.709  65.206  1.00  0.00    -0.218 C  
ENDBRANCH  13  14
ENDBRANCH   6  13
BRANCH   8  17
HETATM   17  C   UNL     1      -7.026   9.579  67.430  1.00  0.00    -0.084 A  
HETATM   18  I   UNL     1      -5.236   7.965  63.190  1.00  0.00    -0.051 I  
HETATM   19  C   UNL     1      -6.646  10.478  66.421  1.00  0.00    -0.106 A  
HETATM   20  C   UNL     1      -6.062  10.025  65.235  1.00  0.00    -0.104 A  
HETATM   21  C   UNL     1      -6.634   8.240  67.283  1.00  0.00    -0.058 A  
HETATM   22  C   UNL     1      -5.851   8.663  65.042  1.00  0.00    -0.048 A  
HETATM   23  C   UNL     1      -6.103   7.771  66.078  1.00  0.00    -0.038 A  
ENDBRANCH   8  17
TORSDOF 5
ENDMDL
MODEL      168
REMARK 921   NORMALIZED FREE ENERGY PREDICTED BY IDOCK:    5.69 KCAL/MOL
REMARK 922        TOTAL FREE ENERGY PREDICTED BY IDOCK:    6.90 KCAL/MOL
REMARK 923 INTER-LIGAND FREE ENERGY PREDICTED BY IDOCK:    1.15 KCAL/MOL
REMARK 924 INTRA-LIGAND FREE ENERGY PREDICTED BY IDOCK:    5.75 KCAL/MOL
REMARK 927      BINDING AFFINITY PREDICTED BY RF-SCORE:    0.00 PKD
ROOT
HETATM    1  C   UNL     1     -10.088   8.920  65.603  1.00  0.00     0.453 C  
HETATM    2  C   UNL     1     -10.133   9.369  64.140  1.00  0.00     1.726 C  
HETATM    3  C   UNL     1      -8.657   9.555  63.782  1.00  0.00    -0.222 C  
HETATM    4  C   UNL     1      -7.905   9.474  65.132  1.00  0.00    -0.113 C  
HETATM    5  C   UNL     1      -7.290   8.063  65.363  1.00  0.00    -0.069 C  
HETATM    6  N   UNL     1      -9.010   9.805  66.038  1.00  0.00    -0.149 NA 
HETATM    7  C   UNL     1      -9.799   7.402  65.656  1.00  0.00     0.886 C  
HETATM    8  C   UNL     1      -8.316   6.969  65.846  1.00  0.00    -0.141 C  
ENDROOT
BRANCH   5   9
HETATM    9  C   UNL     1      -6.034   8.213  66.210  1.00  0.00    -0.041 C  
HETATM   10  O   UNL     1      -5.303   7.298  66.569  1.00  0.00    -0.022 OA 
BRANCH   9  11
HETATM   11  O   UNL     1      -5.772   9.518  66.516  1.00  0.00    -0.052 OA 
HETATM   12  C   UNL     1      -5.649  10.355  65.359  1.00  0.00    -0.121 C  
ENDBRANCH   9  11
ENDBRANCH   5   9
BRANCH   6  13
HETATM   13  C   UNL     1      -8.735   9.883  67.466  1.00  0.00    -0.121 C  
BRANCH  13  14
HETATM   14  C   UNL     1      -7.550  10.787  67.833  1.00  0.00    -0.091 C  
HETATM   15  F   UNL     1      -5.882  11.333  69.362  1.00  0.00    -0.047 F  
HETATM   16  C   UNL     1      -6.937  10.487  69.180  1.00  0.00    -0.080 C  
ENDBRANCH  13  14
ENDBRANCH   6  13
BRANCH   8  17
HETATM   17  C   UNL     1      -8.002   6.334  67.216  1.00  0.00    -0.109 A  
HETATM   18  I   UNL     1      -7.690   5.201  71.948  1.00  0.00    -0.115 I  
HETATM   19  C   UNL     1      -8.697   5.232  67.739  1.00  0.00    -0.103 A  
HETATM   20  C   UNL     1      -8.551   4.857  69.077  1.00  0.00    -0.093 A  
HETATM   21  C   UNL     1      -7.025   6.927  68.029  1.00  0.00    -0.083 A  
HETATM   22  C   UNL     1      -7.707   5.584  69.912  1.00  0.00    -0.082 A  
HETATM   23  C   UNL     1      -6.915   6.596  69.383  1.00  0.00    -0.067 A  
ENDBRANCH   8  17
TORSDOF 5
ENDMDL
MODEL      169
REMARK 921   NORMALIZED FREE ENERGY PREDICTED BY IDOCK:    6.05 KCAL/MOL
REMARK 922        TOTAL FREE ENERGY PREDICTED BY IDOCK:    7.37 KCAL/MOL
REMARK 923 INTER-LIGAND FREE ENERGY PREDICTED BY IDOCK:    1.76 KCAL/MOL
REMARK 924 INTRA-LIGAND FREE ENERGY PREDICTED BY IDOCK:    5.61 KCAL/MOL
REMARK 927      BINDING AFFINITY PREDICTED BY RF-SCORE:    0.00 PKD
ROOT
HETATM    1  C   UNL     1     -10.395  15.710  64.962  1.00  0.00    -0.256 C  
HETATM    2  C   UNL     1     -10.982  15.652  63.549  1.00  0.00     2.884 C  
HETATM    3  C   UNL     1     -11.728  14.316  63.531  1.00  0.00     0.552 C  
HETATM    4  C   UNL     1     -11.280  13.590  64.823  1.00  0.00    -0.352 C  
HETATM    5  C   UNL     1     -12.332  13.742  65.960  1.00  0.00    -0.499 C  
HETATM    6  N   UNL     1     -10.021  14.302  65.069  1.00  0.00    -0.274 NA 
HETATM    7  C   UNL     1     -11.483  16.210  65.941  1.00  0.00     0.504 C  
HETATM    8  C   UNL     1     -12.301  15.130  66.705  1.00  0.00     0.629 C  
ENDROOT
BRANCH   5   9
HETATM    9  C   UNL     1     -12.264  12.509  66.852  1.00  0.00     0.123 C  
HETATM   10  O   UNL     1     -12.389  12.503  68.070  1.00  0.00    -0.207 OA 
BRANCH   9  11
HETATM   11  O   UNL     1     -12.075  11.363  66.133  1.00  0.00     0.014 OA 
HETATM   12  C   UNL     1     -12.652  11.418  64.821  1.00  0.00     1.490 C  
ENDBRANCH   9  11
ENDBRANCH   5   9
BRANCH   6  13
HETATM   13  C   UNL     1      -9.212  13.901  66.211  1.00  0.00    -0.088 C  
BRANCH  13  14
HETATM   14  C   UNL     1      -8.469  15.057  66.896  1.00  0.00    -0.269 C  
HETATM   15  F   UNL     1      -7.241  15.807  68.726  1.00  0.00    -0.115 F  
HETATM   16  C   UNL     1      -7.898  14.710  68.250  1.00  0.00    -0.128 C  
ENDBRANCH  13  14
ENDBRANCH   6  13
BRANCH   8  17
HETATM   17  C   UNL     1     -12.011  15.055  68.218  1.00  0.00    -0.214 A  
HETATM   18  I   UNL     1     -12.081  15.466  73.076  1.00  0.00    -0.547 I  
HETATM   19  C   UNL     1     -12.381  13.968  69.027  1.00  0.00    -0.139 A  
HETATM   20  C   UNL     1     -12.329  14.056  70.420  1.00  0.00    -0.429 A  
HETATM   21  C   UNL     1     -11.419  16.158  68.850  1.00  0.00    -0.331 A  
HETATM   22  C   UNL     1     -11.907  15.238  71.025  1.00  0.00    -0.345 A  
HETATM   23  C   UNL     1     -11.418  16.277  70.243  1.00  0.00    -0.244 A  
ENDBRANCH   8  17
TORSDOF 5
ENDMDL
MODEL      170
REMARK 921   NORMALIZED FREE ENERGY PREDICTED BY IDOCK:   41.12 KCAL/MOL
REMARK 922        TOTAL FREE ENERGY PREDICTED BY IDOCK:   52.69 KCAL/MOL
REMARK 923 INTER-LIGAND FREE ENERGY PREDICTED BY IDOCK:   47.82 KCAL/MOL
REMARK 924 INTRA-LIGAND FREE ENERGY PREDICTED BY IDOCK:    4.87 KCAL/MOL
REMARK 927      BINDING AFFINITY PREDICTED BY RF-SCORE:    0.00 PKD
ROOT
HETATM    1  C   UNL     1     -11.510  19.416  68.837  1.00  0.00     2.911 C  
HETATM    2  C   UNL     1     -11.498  20.393  67.659  1.00  0.00     1.660 C  
HETATM    3  C   UNL     1     -10.064  20.295  67.134  1.00  0.00    -0.556 C  
HETATM    4  C   UNL     1      -9.296  19.493  68.213  1.00  0.00    -0.352 C  
HETATM    5  C   UNL     1      -9.151  17.995  67.819  1.00  0.00    -0.262 C  
HETATM    6  N   UNL     1     -10.182  19.732  69.358  1.00  0.00    -0.233 NA 
HETATM    7  C   UNL     1     -11.717  17.980  68.300  1.00  0.00     1.955 C  
HETATM    8  C   UNL     1     -10.441  17.123  68.059  1.00  0.00    -0.369 C  
ENDROOT
BRANCH   5   9
HETATM    9  C   UNL     1      -7.863  17.455  68.427  1.00  0.00    -0.257 C  
HETATM   10  O   UNL     1      -7.491  16.289  68.389  1.00  0.00    -0.151 OA 
BRANCH   9  11
HETATM   11  O   UNL     1      -7.120  18.439  69.015  1.00  0.00    -0.278 OA 
HETATM   12  C   UNL     1      -7.423  18.621  70.404  1.00  0.00     1.923 C  
ENDBRANCH   9  11
ENDBRANCH   5   9
BRANCH   6  13
HETATM   13  C   UNL     1      -9.811  19.170  70.649  1.00  0.00     1.862 C  
BRANCH  13  14
HETATM   14  C   UNL     1     -11.000  18.724  71.510  1.00  0.00     3.856 C  
HETATM   15  F   UNL     1     -11.773  17.974  73.574  1.00  0.00     0.071 F  
HETATM   16  C   UNL     1     -10.627  18.310  72.914  1.00  0.00     3.803 C  
ENDBRANCH  13  14
ENDBRANCH   6  13
BRANCH   8  17
HETATM   17  C   UNL     1     -10.263  15.945  69.039  1.00  0.00    -0.227 A  
HETATM   18  I   UNL     1      -8.892  12.932  72.619  1.00  0.00    26.835 I  
HETATM   19  C   UNL     1     -11.087  15.732  70.155  1.00  0.00    -0.360 A  
HETATM   20  C   UNL     1     -10.735  14.813  71.146  1.00  0.00     0.487 A  
HETATM   21  C   UNL     1      -9.176  15.076  68.864  1.00  0.00    -0.206 A  
HETATM   22  C   UNL     1      -9.549  14.093  71.034  1.00  0.00     4.396 A  
HETATM   23  C   UNL     1      -8.786  14.195  69.877  1.00  0.00     1.311 A  
ENDBRANCH   8  17
TORSDOF 5
ENDMDL
MODEL      171
REMARK 921   NORMALIZED FREE ENERGY PREDICTED BY IDOCK:   49.65 KCAL/MOL
REMARK 922        TOTAL FREE ENERGY PREDICTED BY IDOCK:   63.71 KCAL/MOL
REMARK 923 INTER-LIGAND FREE ENERGY PREDICTED BY IDOCK:   63.26 KCAL/MOL
REMARK 924 INTRA-LIGAND FREE ENERGY PREDICTED BY IDOCK:    0.45 KCAL/MOL
REMARK 927      BINDING AFFINITY PREDICTED BY RF-SCORE:    0.00 PKD
ROOT
HETATM    1  C   UNL     1      -7.317   6.636  69.995  1.00  0.00    -0.089 C  
HETATM    2  C   UNL     1      -6.358   7.829  70.034  1.00  0.00    -0.033 C  
HETATM    3  C   UNL     1      -6.708   8.605  68.762  1.00  0.00    -0.058 C  
HETATM    4  C   UNL     1      -7.632   7.658  67.958  1.00  0.00    -0.110 C  
HETATM    5  C   UNL     1      -9.133   8.020  68.150  1.00  0.00    -0.134 C  
HETATM    6  N   UNL     1      -7.239   6.379  68.559  1.00  0.00    -0.083 NA 
HETATM    7  C   UNL     1      -8.694   7.076  70.544  1.00  0.00    -0.153 C  
HETATM    8  C   UNL     1      -9.763   7.517  69.503  1.00  0.00    -0.164 C  
ENDROOT
BRANCH   5   9
HETATM    9  C   UNL     1      -9.890   7.640  66.884  1.00  0.00    -0.234 C  
HETATM   10  O   UNL     1     -11.108   7.646  66.753  1.00  0.00    -0.038 OA 
BRANCH   9  11
HETATM   11  O   UNL     1      -9.049   7.310  65.860  1.00  0.00    -0.128 OA 
HETATM   12  C   UNL     1      -9.062   8.264  64.789  1.00  0.00     0.510 C  
ENDBRANCH   9  11
ENDBRANCH   5   9
BRANCH   6  13
HETATM   13  C   UNL     1      -7.856   5.159  68.056  1.00  0.00    -0.087 C  
BRANCH  13  14
HETATM   14  C   UNL     1      -7.506   3.897  68.856  1.00  0.00    -0.054 C  
HETATM   15  F   UNL     1      -6.254   1.941  69.014  1.00  0.00    -0.023 F  
HETATM   16  C   UNL     1      -6.497   2.997  68.185  1.00  0.00    -0.036 C  
ENDBRANCH  13  14
ENDBRANCH   6  13
BRANCH   8  17
HETATM   17  C   UNL     1     -10.952   6.547  69.352  1.00  0.00    -0.395 A  
HETATM   18  I   UNL     1     -14.311   3.054  69.898  1.00  0.00    29.002 I  
HETATM   19  C   UNL     1     -12.267   6.865  69.728  1.00  0.00     0.390 A  
HETATM   20  C   UNL     1     -13.252   5.878  69.812  1.00  0.00     7.170 A  
HETATM   21  C   UNL     1     -10.711   5.246  68.889  1.00  0.00    -0.028 A  
HETATM   22  C   UNL     1     -12.933   4.555  69.520  1.00  0.00    19.100 A  
HETATM   23  C   UNL     1     -11.674   4.241  69.024  1.00  0.00     8.936 A  
ENDBRANCH   8  17
TORSDOF 5
ENDMDL
MODEL      172
REMARK 921   NORMALIZED FREE ENERGY PREDICTED BY IDOCK:   60.11 KCAL/MOL
REMARK 922        TOTAL FREE ENERGY PREDICTED BY IDOCK:   77.23 KCAL/MOL
REMARK 923 INTER-LIGAND FREE ENERGY PREDICTED BY IDOCK:   60.12 KCAL/MOL
REMARK 924 INTRA-LIGAND FREE ENERGY PREDICTED BY IDOCK:   17.11 KCAL/MOL
REMARK 927      BINDING AFFINITY PREDICTED BY RF-SCORE:    0.00 PKD
ROOT
HETATM    1  C   UNL     1      -8.509  13.556  66.050  1.00  0.00     1.225 C  
HETATM    2  C   UNL     1      -8.604  14.482  64.834  1.00  0.00     4.819 C  
HETATM    3  C   UNL     1      -9.502  15.620  65.327  1.00  0.00     0.180 C  
HETATM    4  C   UNL     1     -10.075  15.121  66.677  1.00  0.00    -0.264 C  
HETATM    5  C   UNL     1      -9.291  15.710  67.885  1.00  0.00    -0.195 C  
HETATM    6  N   UNL     1      -9.897  13.677  66.489  1.00  0.00    -0.285 NA 
HETATM    7  C   UNL     1      -7.430  14.100  67.015  1.00  0.00     0.283 C  
HETATM    8  C   UNL     1      -7.916  15.003  68.185  1.00  0.00    -0.131 C  
ENDROOT
BRANCH   5   9
HETATM    9  C   UNL     1     -10.243  15.836  69.067  1.00  0.00    -0.224 C  
HETATM   10  O   UNL     1     -10.034  15.418  70.199  1.00  0.00    -0.258 OA 
BRANCH   9  11
HETATM   11  O   UNL     1     -11.384  16.512  68.740  1.00  0.00    -0.318 OA 
HETATM   12  C   UNL     1     -11.516  16.747  67.331  1.00  0.00     0.460 C  
ENDBRANCH   9  11
ENDBRANCH   5   9
BRANCH   6  13
HETATM   13  C   UNL     1     -10.353  12.781  67.542  1.00  0.00    -0.219 C  
BRANCH  13  14
HETATM   14  C   UNL     1     -10.179  13.334  68.963  1.00  0.00     0.071 C  
HETATM   15  F   UNL     1     -11.164  13.929  70.987  1.00  0.00     0.024 F  
HETATM   16  C   UNL     1     -11.467  13.463  69.740  1.00  0.00    -0.166 C  
ENDBRANCH  13  14
ENDBRANCH   6  13
BRANCH   8  17
HETATM   17  C   UNL     1      -7.798  14.363  69.583  1.00  0.00     0.280 A  
HETATM   18  I   UNL     1      -8.525  11.972  73.771  1.00  0.00    26.024 I  
HETATM   19  C   UNL     1      -7.181  13.124  69.821  1.00  0.00     0.623 A  
HETATM   20  C   UNL     1      -7.324  12.472  71.048  1.00  0.00     5.170 A  
HETATM   21  C   UNL     1      -8.405  15.002  70.674  1.00  0.00     1.692 A  
HETATM   22  C   UNL     1      -8.091  13.051  72.056  1.00  0.00    13.986 A  
HETATM   23  C   UNL     1      -8.603  14.331  71.885  1.00  0.00     7.339 A  
ENDBRANCH   8  17
TORSDOF 5
ENDMDL
