MODEL        1
REMARK 921   NORMALIZED FREE ENERGY PREDICTED BY IDOCK:   -5.66 KCAL/MOL
REMARK 922        TOTAL FREE ENERGY PREDICTED BY IDOCK:  -10.84 KCAL/MOL
REMARK 923 INTER-LIGAND FREE ENERGY PREDICTED BY IDOCK:   -9.64 KCAL/MOL
REMARK 924 INTRA-LIGAND FREE ENERGY PREDICTED BY IDOCK:   -1.20 KCAL/MOL
REMARK 927      BINDING AFFINITY PREDICTED BY RF-SCORE:    0.00 PKD
ROOT
HETATM    1  C   UNL     1      -8.950   8.521  71.584  1.00  0.00    -0.285 C  
HETATM    2  C   UNL     1      -8.888   9.278  70.286  1.00  0.00    -0.224 C  
HETATM    3  O   UNL     1      -8.076  10.197  70.151  1.00  0.00    -0.146 OA 
HETATM    4  N   UNL     1      -9.782   8.905  69.278  1.00  0.00    -0.162 N  
ENDROOT
BRANCH   4   5
HETATM    5  C   UNL     1      -9.659   9.594  68.028  1.00  0.00    -0.143 A  
HETATM    6  C   UNL     1      -9.686  10.694  65.445  1.00  0.00    -0.252 A  
HETATM    7  C   UNL     1     -10.517  10.689  67.740  1.00  0.00    -0.221 A  
HETATM    8  C   UNL     1      -8.722   9.148  67.061  1.00  0.00    -0.123 A  
HETATM    9  I   UNL     1      -7.264   7.652  67.650  1.00  0.00    -0.091 I  
HETATM   10  I   UNL     1     -11.707  11.477  69.369  1.00  0.00    -0.443 I  
HETATM   11  C   UNL     1      -8.736   9.683  65.754  1.00  0.00    -0.168 A  
HETATM   12  I   UNL     1     -10.012  11.217  63.358  1.00  0.00    -0.408 I  
HETATM   13  C   UNL     1     -10.541  11.251  66.447  1.00  0.00    -0.316 A  
BRANCH  11  14
HETATM   14  C   UNL     1      -7.852   9.081  64.710  1.00  0.00    -0.122 C  
HETATM   15  O   UNL     1      -6.765   9.585  64.450  1.00  0.00    -0.091 OA 
HETATM   16  N   UNL     1      -8.319   7.953  64.073  1.00  0.00    -0.371 N  
HETATM   17  H   UNL     1      -9.221   7.562  64.344  1.00  0.00     0.000 HD 
BRANCH  16  18
HETATM   18  C   UNL     1      -7.543   7.306  63.015  1.00  0.00    -0.112 C  
BRANCH  18  19
HETATM   19  C   UNL     1      -7.337   5.813  63.289  1.00  0.00    -0.061 C  
HETATM   20  H   UNL     1      -6.523   4.727  64.710  1.00  0.00     0.000 HD 
HETATM   21  O   UNL     1      -6.651   5.653  64.540  1.00  0.00    -0.042 OA 
BRANCH  19  22
HETATM   22  C   UNL     1      -8.672   5.054  63.302  1.00  0.00    -0.080 C  
HETATM   23  O   UNL     1      -9.314   5.151  64.573  1.00  0.00    -0.359 OA 
HETATM   24  H   UNL     1     -10.139   4.681  64.581  1.00  0.00     0.000 HD 
ENDBRANCH  19  22
ENDBRANCH  18  19
ENDBRANCH  16  18
ENDBRANCH  11  14
BRANCH  13  25
HETATM   25  C   UNL     1     -11.374  12.454  66.113  1.00  0.00    -0.352 C  
HETATM   26  O   UNL     1     -12.515  12.297  65.691  1.00  0.00    -0.591 OA 
HETATM   27  H   UNL     1      -9.893  13.814  66.686  1.00  0.00     0.000 HD 
HETATM   28  N   UNL     1     -10.825  13.712  66.285  1.00  0.00    -0.282 N  
BRANCH  28  29
HETATM   29  C   UNL     1     -11.585  14.892  65.890  1.00  0.00    -0.228 C  
BRANCH  29  30
HETATM   30  C   UNL     1     -10.750  15.893  65.080  1.00  0.00    -0.404 C  
HETATM   31  H   UNL     1     -11.018  17.009  63.481  1.00  0.00     0.000 HD 
HETATM   32  O   UNL     1     -11.535  16.390  63.982  1.00  0.00    -1.048 OA 
BRANCH  30  33
HETATM   33  C   UNL     1     -10.278  17.062  65.960  1.00  0.00    -0.325 C  
HETATM   34  O   UNL     1     -10.670  18.320  65.414  1.00  0.00    -0.610 OA 
HETATM   35  H   UNL     1     -10.379  19.042  65.958  1.00  0.00     0.000 HD 
ENDBRANCH  30  33
ENDBRANCH  29  30
ENDBRANCH  28  29
ENDBRANCH  13  25
ENDBRANCH   4   5
BRANCH   4  36
HETATM   36  C   UNL     1     -10.802   7.825  69.394  1.00  0.00    -0.113 C  
BRANCH  36  37
HETATM   37  C   UNL     1     -10.313   6.362  69.223  1.00  0.00    -0.207 C  
HETATM   38  O   UNL     1     -10.769   5.498  70.275  1.00  0.00    -0.294 OA 
HETATM   39  H   UNL     1     -10.470   4.602  70.170  1.00  0.00     0.000 HD 
BRANCH  37  40
HETATM   40  C   UNL     1     -10.759   5.717  67.906  1.00  0.00    -0.213 C  
HETATM   41  O   UNL     1     -11.560   6.645  67.167  1.00  0.00    -0.749 OA 
HETATM   42  H   UNL     1     -11.837   6.246  66.351  1.00  0.00     0.000 HD 
ENDBRANCH  37  40
ENDBRANCH  36  37
ENDBRANCH   4  36
TORSDOF 12
ENDMDL
MODEL        2
REMARK 921   NORMALIZED FREE ENERGY PREDICTED BY IDOCK:   -5.65 KCAL/MOL
REMARK 922        TOTAL FREE ENERGY PREDICTED BY IDOCK:  -10.81 KCAL/MOL
REMARK 923 INTER-LIGAND FREE ENERGY PREDICTED BY IDOCK:   -9.89 KCAL/MOL
REMARK 924 INTRA-LIGAND FREE ENERGY PREDICTED BY IDOCK:   -0.92 KCAL/MOL
REMARK 927      BINDING AFFINITY PREDICTED BY RF-SCORE:    0.00 PKD
ROOT
HETATM    1  C   UNL     1      -9.728  14.551  65.953  1.00  0.00    -0.324 C  
HETATM    2  C   UNL     1      -9.476  13.162  66.473  1.00  0.00    -0.243 C  
HETATM    3  O   UNL     1      -8.364  12.868  66.919  1.00  0.00    -0.145 OA 
HETATM    4  N   UNL     1     -10.531  12.248  66.410  1.00  0.00    -0.232 N  
ENDROOT
BRANCH   4   5
HETATM    5  C   UNL     1     -10.287  10.952  66.973  1.00  0.00    -0.231 A  
HETATM    6  C   UNL     1      -9.464   8.559  68.189  1.00  0.00    -0.141 A  
HETATM    7  C   UNL     1     -10.638  10.695  68.325  1.00  0.00    -0.194 A  
HETATM    8  C   UNL     1      -9.647   9.952  66.198  1.00  0.00    -0.218 A  
HETATM    9  I   UNL     1      -9.375  10.306  64.075  1.00  0.00    -0.303 I  
HETATM   10  I   UNL     1     -11.861  12.170  69.335  1.00  0.00    -0.238 I  
HETATM   11  C   UNL     1      -9.215   8.749  66.802  1.00  0.00    -0.211 A  
HETATM   12  I   UNL     1      -8.443   6.937  69.219  1.00  0.00    -0.128 I  
HETATM   13  C   UNL     1     -10.231   9.497  68.948  1.00  0.00    -0.213 A  
BRANCH  11  14
HETATM   14  C   UNL     1      -8.398   7.786  66.004  1.00  0.00    -0.133 C  
HETATM   15  O   UNL     1      -7.182   7.920  65.925  1.00  0.00    -0.069 OA 
HETATM   16  N   UNL     1      -9.076   6.763  65.378  1.00  0.00    -0.355 N  
HETATM   17  H   UNL     1     -10.086   6.685  65.495  1.00  0.00     0.000 HD 
BRANCH  16  18
HETATM   18  C   UNL     1      -8.371   5.786  64.548  1.00  0.00    -0.091 C  
BRANCH  18  19
HETATM   19  C   UNL     1      -9.021   4.401  64.619  1.00  0.00    -0.150 C  
HETATM   20  H   UNL     1      -8.419   2.562  64.965  1.00  0.00     0.000 HD 
HETATM   21  O   UNL     1      -8.016   3.421  64.920  1.00  0.00    -0.088 OA 
BRANCH  19  22
HETATM   22  C   UNL     1     -10.146   4.360  65.665  1.00  0.00    -0.241 C  
HETATM   23  O   UNL     1     -11.426   4.540  65.060  1.00  0.00    -1.101 OA 
HETATM   24  H   UNL     1     -12.121   4.515  65.707  1.00  0.00     0.000 HD 
ENDBRANCH  19  22
ENDBRANCH  18  19
ENDBRANCH  16  18
ENDBRANCH  11  14
BRANCH  13  25
HETATM   25  C   UNL     1     -10.639   9.146  70.349  1.00  0.00    -0.230 C  
HETATM   26  O   UNL     1      -9.956   9.537  71.290  1.00  0.00    -0.255 OA 
HETATM   27  H   UNL     1     -12.352   8.112  69.741  1.00  0.00     0.000 HD 
HETATM   28  N   UNL     1     -11.775   8.380  70.539  1.00  0.00    -0.147 N  
BRANCH  28  29
HETATM   29  C   UNL     1     -12.145   7.957  71.885  1.00  0.00    -0.312 C  
BRANCH  29  30
HETATM   30  C   UNL     1     -11.817   6.483  72.156  1.00  0.00    -0.305 C  
HETATM   31  H   UNL     1     -11.225   4.935  71.095  1.00  0.00     0.000 HD 
HETATM   32  O   UNL     1     -11.428   5.847  70.927  1.00  0.00    -0.234 OA 
BRANCH  30  33
HETATM   33  C   UNL     1     -10.693   6.347  73.197  1.00  0.00    -0.268 C  
HETATM   34  O   UNL     1     -10.211   7.623  73.615  1.00  0.00    -0.320 OA 
HETATM   35  H   UNL     1      -9.517   7.540  74.258  1.00  0.00     0.000 HD 
ENDBRANCH  30  33
ENDBRANCH  29  30
ENDBRANCH  28  29
ENDBRANCH  13  25
ENDBRANCH   4   5
BRANCH   4  36
HETATM   36  C   UNL     1     -11.883  12.536  65.856  1.00  0.00    -0.430 C  
BRANCH  36  37
HETATM   37  C   UNL     1     -12.144  12.152  64.375  1.00  0.00    -0.357 C  
HETATM   38  O   UNL     1     -13.533  11.913  64.101  1.00  0.00    -0.591 OA 
HETATM   39  H   UNL     1     -13.692  11.677  63.194  1.00  0.00     0.000 HD 
BRANCH  37  40
HETATM   40  C   UNL     1     -11.680  13.217  63.376  1.00  0.00    -0.350 C  
HETATM   41  O   UNL     1     -12.536  14.361  63.464  1.00  0.00    -1.043 OA 
HETATM   42  H   UNL     1     -12.248  15.020  62.844  1.00  0.00     0.000 HD 
ENDBRANCH  37  40
ENDBRANCH  36  37
ENDBRANCH   4  36
TORSDOF 12
ENDMDL
MODEL        3
REMARK 921   NORMALIZED FREE ENERGY PREDICTED BY IDOCK:   -5.58 KCAL/MOL
REMARK 922        TOTAL FREE ENERGY PREDICTED BY IDOCK:  -10.69 KCAL/MOL
REMARK 923 INTER-LIGAND FREE ENERGY PREDICTED BY IDOCK:  -10.05 KCAL/MOL
REMARK 924 INTRA-LIGAND FREE ENERGY PREDICTED BY IDOCK:   -0.64 KCAL/MOL
REMARK 927      BINDING AFFINITY PREDICTED BY RF-SCORE:    0.00 PKD
ROOT
HETATM    1  C   UNL     1      -6.201   6.766  65.550  1.00  0.00    -0.039 C  
HETATM    2  C   UNL     1      -6.891   7.686  66.519  1.00  0.00    -0.062 C  
HETATM    3  O   UNL     1      -6.221   8.415  67.255  1.00  0.00    -0.053 OA 
HETATM    4  N   UNL     1      -8.289   7.658  66.552  1.00  0.00    -0.124 N  
ENDROOT
BRANCH   4   5
HETATM    5  C   UNL     1      -8.925   8.591  67.435  1.00  0.00    -0.134 A  
HETATM    6  C   UNL     1     -10.509  10.263  69.040  1.00  0.00    -0.217 A  
HETATM    7  C   UNL     1      -9.223   8.206  68.769  1.00  0.00    -0.144 A  
HETATM    8  C   UNL     1      -9.305   9.871  66.959  1.00  0.00    -0.147 A  
HETATM    9  I   UNL     1      -8.594  10.502  65.008  1.00  0.00    -0.089 I  
HETATM   10  I   UNL     1      -8.358   6.356  69.490  1.00  0.00    -0.127 I  
HETATM   11  C   UNL     1     -10.114  10.716  67.752  1.00  0.00    -0.203 A  
HETATM   12  I   UNL     1     -12.085  11.339  70.087  1.00  0.00    -0.399 I  
HETATM   13  C   UNL     1     -10.018   9.036  69.586  1.00  0.00    -0.196 A  
BRANCH  11  14
HETATM   14  C   UNL     1     -10.637  11.986  67.164  1.00  0.00    -0.224 C  
HETATM   15  O   UNL     1     -10.073  13.052  67.386  1.00  0.00    -0.227 OA 
HETATM   16  N   UNL     1     -11.763  11.892  66.378  1.00  0.00    -0.258 N  
HETATM   17  H   UNL     1     -12.181  10.977  66.207  1.00  0.00     0.000 HD 
BRANCH  16  18
HETATM   18  C   UNL     1     -12.372  13.082  65.782  1.00  0.00    -0.416 C  
BRANCH  18  19
HETATM   19  C   UNL     1     -11.564  13.600  64.587  1.00  0.00    -0.371 C  
HETATM   20  H   UNL     1     -11.791  13.664  62.636  1.00  0.00     0.000 HD 
HETATM   21  O   UNL     1     -12.292  13.343  63.377  1.00  0.00    -0.728 OA 
BRANCH  19  22
HETATM   22  C   UNL     1     -11.253  15.098  64.725  1.00  0.00    -0.388 C  
HETATM   23  O   UNL     1     -11.907  15.860  63.711  1.00  0.00    -1.221 OA 
HETATM   24  H   UNL     1     -11.714  16.787  63.796  1.00  0.00     0.000 HD 
ENDBRANCH  19  22
ENDBRANCH  18  19
ENDBRANCH  16  18
ENDBRANCH  11  14
BRANCH  13  25
HETATM   25  C   UNL     1     -10.299   8.710  71.024  1.00  0.00    -0.217 C  
HETATM   26  O   UNL     1      -9.568   9.164  71.898  1.00  0.00    -0.310 OA 
HETATM   27  H   UNL     1     -11.997   7.573  70.580  1.00  0.00     0.000 HD 
HETATM   28  N   UNL     1     -11.376   7.894  71.323  1.00  0.00    -0.256 N  
BRANCH  28  29
HETATM   29  C   UNL     1     -11.620   7.497  72.704  1.00  0.00    -0.282 C  
BRANCH  29  30
HETATM   30  C   UNL     1     -10.693   6.366  73.170  1.00  0.00    -0.268 C  
HETATM   31  H   UNL     1      -9.775   5.869  74.838  1.00  0.00     0.000 HD 
HETATM   32  O   UNL     1     -10.348   6.569  74.550  1.00  0.00    -0.341 OA 
BRANCH  30  33
HETATM   33  C   UNL     1     -11.362   4.992  72.991  1.00  0.00    -0.298 C  
HETATM   34  O   UNL     1     -12.783   5.104  72.950  1.00  0.00    -0.277 OA 
HETATM   35  H   UNL     1     -13.197   4.256  72.840  1.00  0.00     0.000 HD 
ENDBRANCH  30  33
ENDBRANCH  29  30
ENDBRANCH  28  29
ENDBRANCH  13  25
ENDBRANCH   4   5
BRANCH   4  36
HETATM   36  C   UNL     1      -9.148   6.780  65.711  1.00  0.00     0.051 C  
BRANCH  36  37
HETATM   37  C   UNL     1     -10.130   5.828  66.445  1.00  0.00    -0.133 C  
HETATM   38  O   UNL     1     -11.450   6.379  66.567  1.00  0.00    -0.651 OA 
HETATM   39  H   UNL     1     -12.051   5.796  67.017  1.00  0.00     0.000 HD 
BRANCH  37  40
HETATM   40  C   UNL     1     -10.288   4.465  65.762  1.00  0.00    -0.217 C  
HETATM   41  O   UNL     1     -11.487   4.459  64.980  1.00  0.00    -1.090 OA 
HETATM   42  H   UNL     1     -11.585   3.615  64.557  1.00  0.00     0.000 HD 
ENDBRANCH  37  40
ENDBRANCH  36  37
ENDBRANCH   4  36
TORSDOF 12
ENDMDL
MODEL        4
REMARK 921   NORMALIZED FREE ENERGY PREDICTED BY IDOCK:   -5.44 KCAL/MOL
REMARK 922        TOTAL FREE ENERGY PREDICTED BY IDOCK:  -10.46 KCAL/MOL
REMARK 923 INTER-LIGAND FREE ENERGY PREDICTED BY IDOCK:   -9.31 KCAL/MOL
REMARK 924 INTRA-LIGAND FREE ENERGY PREDICTED BY IDOCK:   -1.15 KCAL/MOL
REMARK 927      BINDING AFFINITY PREDICTED BY RF-SCORE:    0.00 PKD
ROOT
HETATM    1  C   UNL     1      -5.346   9.267  68.050  1.00  0.00    -0.034 C  
HETATM    2  C   UNL     1      -6.502   9.428  68.998  1.00  0.00    -0.046 C  
HETATM    3  O   UNL     1      -6.350  10.058  70.048  1.00  0.00    -0.057 OA 
HETATM    4  N   UNL     1      -7.716   8.832  68.644  1.00  0.00    -0.097 N  
ENDROOT
BRANCH   4   5
HETATM    5  C   UNL     1      -8.820   9.056  69.529  1.00  0.00    -0.146 A  
HETATM    6  C   UNL     1     -11.194   9.286  71.010  1.00  0.00    -0.321 A  
HETATM    7  C   UNL     1      -9.100   8.117  70.557  1.00  0.00    -0.150 A  
HETATM    8  C   UNL     1      -9.661  10.182  69.343  1.00  0.00    -0.229 A  
HETATM    9  I   UNL     1      -9.039  11.715  67.938  1.00  0.00    -0.187 I  
HETATM   10  I   UNL     1      -7.610   6.594  70.948  1.00  0.00    -0.090 I  
HETATM   11  C   UNL     1     -10.866  10.302  70.071  1.00  0.00    -0.364 A  
HETATM   12  I   UNL     1     -13.215   9.222  71.815  1.00  0.00    -0.557 I  
HETATM   13  C   UNL     1     -10.289   8.220  71.308  1.00  0.00    -0.256 A  
BRANCH  11  14
HETATM   14  C   UNL     1     -11.813  11.408  69.738  1.00  0.00    -0.364 C  
HETATM   15  O   UNL     1     -12.523  11.339  68.740  1.00  0.00    -0.444 OA 
HETATM   16  N   UNL     1     -11.841  12.485  70.596  1.00  0.00    -0.478 N  
HETATM   17  H   UNL     1     -11.245  12.482  71.424  1.00  0.00     0.000 HD 
BRANCH  16  18
HETATM   18  C   UNL     1     -12.710  13.633  70.341  1.00  0.00    -0.141 C  
BRANCH  18  19
HETATM   19  C   UNL     1     -12.744  14.600  71.529  1.00  0.00    -0.338 C  
HETATM   20  H   UNL     1     -13.301  16.459  71.835  1.00  0.00     0.000 HD 
HETATM   21  O   UNL     1     -13.280  15.860  71.099  1.00  0.00    -0.518 OA 
BRANCH  19  22
HETATM   22  C   UNL     1     -13.568  14.031  72.694  1.00  0.00    -0.517 C  
HETATM   23  O   UNL     1     -13.920  12.666  72.466  1.00  0.00    -0.581 OA 
HETATM   24  H   UNL     1     -14.430  12.315  73.186  1.00  0.00     0.000 HD 
ENDBRANCH  19  22
ENDBRANCH  18  19
ENDBRANCH  16  18
ENDBRANCH  11  14
BRANCH  13  25
HETATM   25  C   UNL     1     -10.594   7.297  72.452  1.00  0.00    -0.237 C  
HETATM   26  O   UNL     1     -10.317   7.644  73.595  1.00  0.00    -0.324 OA 
HETATM   27  H   UNL     1     -11.444   5.832  71.226  1.00  0.00     0.000 HD 
HETATM   28  N   UNL     1     -11.177   6.072  72.181  1.00  0.00    -0.277 N  
BRANCH  28  29
HETATM   29  C   UNL     1     -11.408   5.126  73.266  1.00  0.00    -0.290 C  
BRANCH  29  30
HETATM   30  C   UNL     1     -10.453   3.925  73.221  1.00  0.00    -0.177 C  
HETATM   31  H   UNL     1     -10.512   2.035  73.766  1.00  0.00     0.000 HD 
HETATM   32  O   UNL     1     -11.103   2.778  73.794  1.00  0.00    -0.203 OA 
BRANCH  30  33
HETATM   33  C   UNL     1     -10.018   3.617  71.778  1.00  0.00    -0.140 C  
HETATM   34  O   UNL     1      -9.993   2.213  71.528  1.00  0.00    -0.155 OA 
HETATM   35  H   UNL     1      -9.724   2.023  70.637  1.00  0.00     0.000 HD 
ENDBRANCH  30  33
ENDBRANCH  29  30
ENDBRANCH  28  29
ENDBRANCH  13  25
ENDBRANCH   4   5
BRANCH   4  36
HETATM   36  C   UNL     1      -7.951   8.037  67.406  1.00  0.00    -0.122 C  
BRANCH  36  37
HETATM   37  C   UNL     1      -9.424   7.753  67.010  1.00  0.00    -0.164 C  
HETATM   38  O   UNL     1      -9.763   8.280  65.719  1.00  0.00    -0.453 OA 
HETATM   39  H   UNL     1     -10.666   8.106  65.477  1.00  0.00     0.000 HD 
BRANCH  37  40
HETATM   40  C   UNL     1      -9.772   6.261  66.976  1.00  0.00    -0.144 C  
HETATM   41  O   UNL     1     -11.069   6.086  66.396  1.00  0.00    -0.713 OA 
HETATM   42  H   UNL     1     -11.285   5.161  66.375  1.00  0.00     0.000 HD 
ENDBRANCH  37  40
ENDBRANCH  36  37
ENDBRANCH   4  36
TORSDOF 12
ENDMDL
MODEL        5
REMARK 921   NORMALIZED FREE ENERGY PREDICTED BY IDOCK:   -5.43 KCAL/MOL
REMARK 922        TOTAL FREE ENERGY PREDICTED BY IDOCK:  -10.44 KCAL/MOL
REMARK 923 INTER-LIGAND FREE ENERGY PREDICTED BY IDOCK:   -9.01 KCAL/MOL
REMARK 924 INTRA-LIGAND FREE ENERGY PREDICTED BY IDOCK:   -1.42 KCAL/MOL
REMARK 927      BINDING AFFINITY PREDICTED BY RF-SCORE:    0.00 PKD
ROOT
HETATM    1  C   UNL     1     -12.449  11.843  63.673  1.00  0.00    -0.583 C  
HETATM    2  C   UNL     1     -11.142  12.392  64.175  1.00  0.00    -0.372 C  
HETATM    3  O   UNL     1     -10.208  12.564  63.387  1.00  0.00    -0.385 OA 
HETATM    4  N   UNL     1     -11.042  12.673  65.540  1.00  0.00    -0.286 N  
ENDROOT
BRANCH   4   5
HETATM    5  C   UNL     1      -9.810  13.258  65.983  1.00  0.00    -0.263 A  
HETATM    6  C   UNL     1      -7.562  14.411  67.205  1.00  0.00    -0.108 A  
HETATM    7  C   UNL     1      -8.767  12.423  66.464  1.00  0.00    -0.057 A  
HETATM    8  C   UNL     1      -9.658  14.667  65.992  1.00  0.00    -0.290 A  
HETATM    9  I   UNL     1     -11.167  15.876  65.006  1.00  0.00     0.018 I  
HETATM   10  I   UNL     1      -8.972  10.290  66.148  1.00  0.00    -0.216 I  
HETATM   11  C   UNL     1      -8.538  15.261  66.617  1.00  0.00    -0.305 A  
HETATM   12  I   UNL     1      -6.076  15.291  68.530  1.00  0.00    -0.123 I  
HETATM   13  C   UNL     1      -7.632  12.989  67.080  1.00  0.00    -0.023 A  
BRANCH  11  14
HETATM   14  C   UNL     1      -8.485  16.747  66.758  1.00  0.00    -0.234 C  
HETATM   15  O   UNL     1      -7.976  17.436  65.881  1.00  0.00    -0.525 OA 
HETATM   16  N   UNL     1      -9.027  17.284  67.904  1.00  0.00    -0.231 N  
HETATM   17  H   UNL     1      -9.458  16.666  68.592  1.00  0.00     0.000 HD 
BRANCH  16  18
HETATM   18  C   UNL     1      -8.996  18.726  68.152  1.00  0.00    -0.308 C  
BRANCH  18  19
HETATM   19  C   UNL     1     -10.360  19.378  67.903  1.00  0.00    -0.430 C  
HETATM   20  H   UNL     1     -11.353  20.917  68.616  1.00  0.00     0.000 HD 
HETATM   21  O   UNL     1     -10.507  20.512  68.770  1.00  0.00    -0.124 OA 
BRANCH  19  22
HETATM   22  C   UNL     1     -10.525  19.794  66.434  1.00  0.00    -0.507 C  
HETATM   23  O   UNL     1      -9.289  20.241  65.878  1.00  0.00    -0.602 OA 
HETATM   24  H   UNL     1      -9.391  20.499  64.969  1.00  0.00     0.000 HD 
ENDBRANCH  19  22
ENDBRANCH  18  19
ENDBRANCH  16  18
ENDBRANCH  11  14
BRANCH  13  25
HETATM   25  C   UNL     1      -6.471  12.155  67.538  1.00  0.00    -0.134 C  
HETATM   26  O   UNL     1      -5.477  12.066  66.825  1.00  0.00    -0.271 OA 
HETATM   27  H   UNL     1      -7.379  11.633  69.348  1.00  0.00     0.000 HD 
HETATM   28  N   UNL     1      -6.561  11.500  68.753  1.00  0.00    -0.064 N  
BRANCH  28  29
HETATM   29  C   UNL     1      -5.480  10.619  69.180  1.00  0.00    -0.041 C  
BRANCH  29  30
HETATM   30  C   UNL     1      -5.306  10.588  70.705  1.00  0.00    -0.075 C  
HETATM   31  H   UNL     1      -5.776  11.755  72.218  1.00  0.00     0.000 HD 
HETATM   32  O   UNL     1      -5.884  11.775  71.275  1.00  0.00    -0.368 OA 
BRANCH  30  33
HETATM   33  C   UNL     1      -5.965   9.338  71.313  1.00  0.00    -0.070 C  
HETATM   34  O   UNL     1      -7.370   9.517  71.481  1.00  0.00    -0.314 OA 
HETATM   35  H   UNL     1      -7.777   8.745  71.857  1.00  0.00     0.000 HD 
ENDBRANCH  30  33
ENDBRANCH  29  30
ENDBRANCH  28  29
ENDBRANCH  13  25
ENDBRANCH   4   5
BRANCH   4  36
HETATM   36  C   UNL     1     -12.124  12.458  66.541  1.00  0.00    -0.105 C  
BRANCH  36  37
HETATM   37  C   UNL     1     -11.809  12.813  68.019  1.00  0.00    -0.336 C  
HETATM   38  O   UNL     1     -12.480  14.003  68.459  1.00  0.00    -0.496 OA 
HETATM   39  H   UNL     1     -12.287  14.220  69.364  1.00  0.00     0.000 HD 
BRANCH  37  40
HETATM   40  C   UNL     1     -12.189  11.706  69.009  1.00  0.00    -0.099 C  
HETATM   41  O   UNL     1     -12.214  10.446  68.330  1.00  0.00    -0.686 OA 
HETATM   42  H   UNL     1     -12.450   9.761  68.944  1.00  0.00     0.000 HD 
ENDBRANCH  37  40
ENDBRANCH  36  37
ENDBRANCH   4  36
TORSDOF 12
ENDMDL
MODEL        6
REMARK 921   NORMALIZED FREE ENERGY PREDICTED BY IDOCK:   -5.42 KCAL/MOL
REMARK 922        TOTAL FREE ENERGY PREDICTED BY IDOCK:  -10.42 KCAL/MOL
REMARK 923 INTER-LIGAND FREE ENERGY PREDICTED BY IDOCK:  -10.75 KCAL/MOL
REMARK 924 INTRA-LIGAND FREE ENERGY PREDICTED BY IDOCK:    0.34 KCAL/MOL
REMARK 927      BINDING AFFINITY PREDICTED BY RF-SCORE:    0.00 PKD
ROOT
HETATM    1  C   UNL     1      -9.509   8.339  72.775  1.00  0.00    -0.343 C  
HETATM    2  C   UNL     1      -9.420   8.769  71.337  1.00  0.00    -0.259 C  
HETATM    3  O   UNL     1      -8.472   9.465  70.963  1.00  0.00    -0.285 OA 
HETATM    4  N   UNL     1     -10.444   8.363  70.477  1.00  0.00    -0.203 N  
ENDROOT
BRANCH   4   5
HETATM    5  C   UNL     1     -10.303   8.727  69.098  1.00  0.00    -0.217 A  
HETATM    6  C   UNL     1      -9.681   9.594  66.501  1.00  0.00    -0.212 A  
HETATM    7  C   UNL     1      -9.654   7.840  68.199  1.00  0.00    -0.151 A  
HETATM    8  C   UNL     1     -10.759   9.993  68.649  1.00  0.00    -0.226 A  
HETATM    9  I   UNL     1     -11.972  11.190  69.992  1.00  0.00    -0.458 I  
HETATM   10  I   UNL     1      -9.251   5.831  68.898  1.00  0.00    -0.154 I  
HETATM   11  C   UNL     1     -10.440  10.446  67.349  1.00  0.00    -0.299 A  
HETATM   12  I   UNL     1      -8.820  10.429  64.685  1.00  0.00    -0.232 I  
HETATM   13  C   UNL     1      -9.336   8.263  66.891  1.00  0.00    -0.222 A  
BRANCH  11  14
HETATM   14  C   UNL     1     -10.790  11.846  66.959  1.00  0.00    -0.259 C  
HETATM   15  O   UNL     1     -10.096  12.786  67.332  1.00  0.00    -0.216 OA 
HETATM   16  N   UNL     1     -11.909  12.014  66.175  1.00  0.00    -0.262 N  
HETATM   17  H   UNL     1     -12.438  11.195  65.874  1.00  0.00     0.000 HD 
BRANCH  16  18
HETATM   18  C   UNL     1     -12.353  13.346  65.766  1.00  0.00    -0.460 C  
BRANCH  18  19
HETATM   19  C   UNL     1     -11.617  13.835  64.514  1.00  0.00    -0.392 C  
HETATM   20  H   UNL     1     -12.040  14.047  62.607  1.00  0.00     0.000 HD 
HETATM   21  O   UNL     1     -12.496  13.744  63.383  1.00  0.00    -0.817 OA 
BRANCH  19  22
HETATM   22  C   UNL     1     -11.105  15.272  64.687  1.00  0.00    -0.332 C  
HETATM   23  O   UNL     1     -11.715  16.159  63.750  1.00  0.00    -1.404 OA 
HETATM   24  H   UNL     1     -11.397  17.048  63.857  1.00  0.00     0.000 HD 
ENDBRANCH  19  22
ENDBRANCH  18  19
ENDBRANCH  16  18
ENDBRANCH  11  14
BRANCH  13  25
HETATM   25  C   UNL     1      -8.718   7.340  65.881  1.00  0.00    -0.131 C  
HETATM   26  O   UNL     1      -7.584   7.568  65.474  1.00  0.00    -0.084 OA 
HETATM   27  H   UNL     1     -10.374   6.065  65.825  1.00  0.00     0.000 HD 
HETATM   28  N   UNL     1      -9.453   6.259  65.431  1.00  0.00     0.370 N  
BRANCH  28  29
HETATM   29  C   UNL     1      -8.906   5.396  64.389  1.00  0.00     0.065 C  
BRANCH  29  30
HETATM   30  C   UNL     1      -9.390   3.945  64.505  1.00  0.00    -0.155 C  
HETATM   31  H   UNL     1      -9.964   2.744  65.955  1.00  0.00     0.000 HD 
HETATM   32  O   UNL     1      -9.664   3.642  65.883  1.00  0.00    -0.165 OA 
BRANCH  30  33
HETATM   33  C   UNL     1     -10.650   3.711  63.654  1.00  0.00    -0.272 C  
HETATM   34  O   UNL     1     -11.181   2.402  63.855  1.00  0.00    -0.590 OA 
HETATM   35  H   UNL     1     -11.959   2.257  63.330  1.00  0.00     0.000 HD 
ENDBRANCH  30  33
ENDBRANCH  29  30
ENDBRANCH  28  29
ENDBRANCH  13  25
ENDBRANCH   4   5
BRANCH   4  36
HETATM   36  C   UNL     1     -11.626   7.548  70.877  1.00  0.00    -0.286 C  
BRANCH  36  37
HETATM   37  C   UNL     1     -12.906   8.312  71.307  1.00  0.00    -0.173 C  
HETATM   38  O   UNL     1     -14.106   7.561  71.070  1.00  0.00    -0.660 OA 
HETATM   39  H   UNL     1     -14.890   8.029  71.333  1.00  0.00     0.000 HD 
BRANCH  37  40
HETATM   40  C   UNL     1     -12.920   8.700  72.789  1.00  0.00    -0.073 C  
HETATM   41  O   UNL     1     -14.273   8.855  73.230  1.00  0.00    -1.197 OA 
HETATM   42  H   UNL     1     -14.281   9.095  74.149  1.00  0.00     0.000 HD 
ENDBRANCH  37  40
ENDBRANCH  36  37
ENDBRANCH   4  36
TORSDOF 12
ENDMDL
MODEL        7
REMARK 921   NORMALIZED FREE ENERGY PREDICTED BY IDOCK:   -5.42 KCAL/MOL
REMARK 922        TOTAL FREE ENERGY PREDICTED BY IDOCK:  -10.42 KCAL/MOL
REMARK 923 INTER-LIGAND FREE ENERGY PREDICTED BY IDOCK:   -9.25 KCAL/MOL
REMARK 924 INTRA-LIGAND FREE ENERGY PREDICTED BY IDOCK:   -1.16 KCAL/MOL
REMARK 927      BINDING AFFINITY PREDICTED BY RF-SCORE:    0.00 PKD
ROOT
HETATM    1  C   UNL     1      -7.502   8.903  67.994  1.00  0.00    -0.092 C  
HETATM    2  C   UNL     1      -7.954  10.243  68.508  1.00  0.00    -0.107 C  
HETATM    3  O   UNL     1      -8.071  10.426  69.722  1.00  0.00    -0.146 OA 
HETATM    4  N   UNL     1      -8.239  11.233  67.563  1.00  0.00    -0.121 N  
ENDROOT
BRANCH   4   5
HETATM    5  C   UNL     1      -8.602  12.521  68.078  1.00  0.00    -0.185 A  
HETATM    6  C   UNL     1      -9.385  15.141  68.714  1.00  0.00    -0.200 A  
HETATM    7  C   UNL     1      -9.955  12.785  68.421  1.00  0.00    -0.210 A  
HETATM    8  C   UNL     1      -7.624  13.541  68.190  1.00  0.00    -0.138 A  
HETATM    9  I   UNL     1      -5.539  13.009  67.907  1.00  0.00    -0.078 I  
HETATM   10  I   UNL     1     -11.313  11.100  68.491  1.00  0.00    -0.395 I  
HETATM   11  C   UNL     1      -8.007  14.867  68.495  1.00  0.00    -0.140 A  
HETATM   12  I   UNL     1     -10.042  17.215  68.755  1.00  0.00    -0.301 I  
HETATM   13  C   UNL     1     -10.362  14.097  68.743  1.00  0.00    -0.230 A  
BRANCH  11  14
HETATM   14  C   UNL     1      -6.982  15.952  68.444  1.00  0.00    -0.116 C  
HETATM   15  O   UNL     1      -6.405  16.310  69.465  1.00  0.00    -0.175 OA 
HETATM   16  N   UNL     1      -6.729  16.513  67.212  1.00  0.00    -0.163 N  
HETATM   17  H   UNL     1      -7.222  16.162  66.390  1.00  0.00     0.000 HD 
BRANCH  16  18
HETATM   18  C   UNL     1      -5.766  17.604  67.061  1.00  0.00    -0.145 C  
BRANCH  18  19
HETATM   19  C   UNL     1      -6.411  18.856  66.459  1.00  0.00    -0.188 C  
HETATM   20  H   UNL     1      -7.772  19.239  65.094  1.00  0.00     0.000 HD 
HETATM   21  O   UNL     1      -7.372  18.463  65.468  1.00  0.00    -0.534 OA 
BRANCH  19  22
HETATM   22  C   UNL     1      -7.072  19.724  67.540  1.00  0.00    -0.233 C  
HETATM   23  O   UNL     1      -6.593  19.388  68.842  1.00  0.00    -0.274 OA 
HETATM   24  H   UNL     1      -7.003  19.925  69.511  1.00  0.00     0.000 HD 
ENDBRANCH  19  22
ENDBRANCH  18  19
ENDBRANCH  16  18
ENDBRANCH  11  14
BRANCH  13  25
HETATM   25  C   UNL     1     -11.761  14.415  69.183  1.00  0.00    -0.317 C  
HETATM   26  O   UNL     1     -12.645  14.526  68.341  1.00  0.00     0.079 OA 
HETATM   27  H   UNL     1     -11.267  14.433  71.215  1.00  0.00     0.000 HD 
HETATM   28  N   UNL     1     -12.011  14.582  70.533  1.00  0.00    -0.298 N  
BRANCH  28  29
HETATM   29  C   UNL     1     -13.345  14.972  70.977  1.00  0.00    -0.419 C  
BRANCH  29  30
HETATM   30  C   UNL     1     -13.648  14.522  72.413  1.00  0.00    -0.466 C  
HETATM   31  H   UNL     1     -13.758  12.810  73.378  1.00  0.00     0.000 HD 
HETATM   32  O   UNL     1     -13.570  13.089  72.490  1.00  0.00    -0.572 OA 
BRANCH  30  33
HETATM   33  C   UNL     1     -12.665  15.156  73.412  1.00  0.00    -0.537 C  
HETATM   34  O   UNL     1     -13.241  16.286  74.065  1.00  0.00    -0.942 OA 
HETATM   35  H   UNL     1     -12.634  16.678  74.682  1.00  0.00     0.000 HD 
ENDBRANCH  30  33
ENDBRANCH  29  30
ENDBRANCH  28  29
ENDBRANCH  13  25
ENDBRANCH   4   5
BRANCH   4  36
HETATM   36  C   UNL     1      -8.144  11.062  66.087  1.00  0.00    -0.141 C  
BRANCH  36  37
HETATM   37  C   UNL     1      -9.437  11.286  65.258  1.00  0.00    -0.221 C  
HETATM   38  O   UNL     1      -9.663  12.669  64.946  1.00  0.00    -0.482 OA 
HETATM   39  H   UNL     1     -10.455  12.806  64.439  1.00  0.00     0.000 HD 
BRANCH  37  40
HETATM   40  C   UNL     1      -9.448  10.531  63.924  1.00  0.00    -0.292 C  
HETATM   41  O   UNL     1      -9.023  11.408  62.875  1.00  0.00    -0.477 OA 
HETATM   42  H   UNL     1      -9.031  10.940  62.049  1.00  0.00     0.000 HD 
ENDBRANCH  37  40
ENDBRANCH  36  37
ENDBRANCH   4  36
TORSDOF 12
ENDMDL
MODEL        8
REMARK 921   NORMALIZED FREE ENERGY PREDICTED BY IDOCK:   -5.39 KCAL/MOL
REMARK 922        TOTAL FREE ENERGY PREDICTED BY IDOCK:  -10.36 KCAL/MOL
REMARK 923 INTER-LIGAND FREE ENERGY PREDICTED BY IDOCK:   -8.89 KCAL/MOL
REMARK 924 INTRA-LIGAND FREE ENERGY PREDICTED BY IDOCK:   -1.47 KCAL/MOL
REMARK 927      BINDING AFFINITY PREDICTED BY RF-SCORE:    0.00 PKD
ROOT
HETATM    1  C   UNL     1     -13.263  13.709  65.405  1.00  0.00     0.030 C  
HETATM    2  C   UNL     1     -12.043  13.792  66.281  1.00  0.00    -0.446 C  
HETATM    3  O   UNL     1     -12.163  14.098  67.470  1.00  0.00    -0.370 OA 
HETATM    4  N   UNL     1     -10.805  13.528  65.689  1.00  0.00    -0.284 N  
ENDROOT
BRANCH   4   5
HETATM    5  C   UNL     1      -9.665  13.547  66.558  1.00  0.00    -0.283 A  
HETATM    6  C   UNL     1      -7.224  13.487  67.942  1.00  0.00    -0.139 A  
HETATM    7  C   UNL     1      -8.913  14.742  66.706  1.00  0.00    -0.266 A  
HETATM    8  C   UNL     1      -9.259  12.361  67.221  1.00  0.00    -0.187 A  
HETATM    9  I   UNL     1     -10.586  10.644  67.171  1.00  0.00    -0.284 I  
HETATM   10  I   UNL     1      -9.762  16.561  65.893  1.00  0.00    -0.052 I  
HETATM   11  C   UNL     1      -8.026  12.314  67.909  1.00  0.00    -0.152 A  
HETATM   12  I   UNL     1      -5.159  13.321  68.610  1.00  0.00    -0.088 I  
HETATM   13  C   UNL     1      -7.685  14.727  67.399  1.00  0.00    -0.230 A  
BRANCH  11  14
HETATM   14  C   UNL     1      -7.545  11.010  68.456  1.00  0.00    -0.114 C  
HETATM   15  O   UNL     1      -6.935  10.223  67.740  1.00  0.00    -0.081 OA 
HETATM   16  N   UNL     1      -7.822  10.749  69.779  1.00  0.00    -0.368 N  
HETATM   17  H   UNL     1      -8.314  11.448  70.336  1.00  0.00     0.000 HD 
BRANCH  16  18
HETATM   18  C   UNL     1      -7.422   9.486  70.401  1.00  0.00    -0.151 C  
BRANCH  18  19
HETATM   19  C   UNL     1      -8.628   8.588  70.696  1.00  0.00    -0.148 C  
HETATM   20  H   UNL     1     -10.504   8.850  71.218  1.00  0.00     0.000 HD 
HETATM   21  O   UNL     1      -9.757   9.407  71.035  1.00  0.00    -0.275 OA 
BRANCH  19  22
HETATM   22  C   UNL     1      -8.957   7.679  69.503  1.00  0.00    -0.139 C  
HETATM   23  O   UNL     1      -7.858   7.589  68.597  1.00  0.00    -0.116 OA 
HETATM   24  H   UNL     1      -8.063   7.027  67.859  1.00  0.00     0.000 HD 
ENDBRANCH  19  22
ENDBRANCH  18  19
ENDBRANCH  16  18
ENDBRANCH  11  14
BRANCH  13  25
HETATM   25  C   UNL     1      -6.890  15.976  67.646  1.00  0.00    -0.159 C  
HETATM   26  O   UNL     1      -6.063  16.336  66.816  1.00  0.00    -0.316 OA 
HETATM   27  H   UNL     1      -7.841  16.389  69.462  1.00  0.00     0.000 HD 
HETATM   28  N   UNL     1      -7.110  16.684  68.814  1.00  0.00    -0.182 N  
BRANCH  28  29
HETATM   29  C   UNL     1      -6.293  17.854  69.114  1.00  0.00    -0.236 C  
BRANCH  29  30
HETATM   30  C   UNL     1      -7.107  19.155  69.145  1.00  0.00    -0.314 C  
HETATM   31  H   UNL     1      -6.931  20.928  69.980  1.00  0.00     0.000 HD 
HETATM   32  O   UNL     1      -6.427  20.124  69.960  1.00  0.00    -0.356 OA 
BRANCH  30  33
HETATM   33  C   UNL     1      -7.315  19.713  67.727  1.00  0.00    -0.271 C  
HETATM   34  O   UNL     1      -8.694  19.953  67.457  1.00  0.00    -0.318 OA 
HETATM   35  H   UNL     1      -8.823  20.298  66.581  1.00  0.00     0.000 HD 
ENDBRANCH  30  33
ENDBRANCH  29  30
ENDBRANCH  28  29
ENDBRANCH  13  25
ENDBRANCH   4   5
BRANCH   4  36
HETATM   36  C   UNL     1     -10.597  13.183  64.255  1.00  0.00    -0.412 C  
BRANCH  36  37
HETATM   37  C   UNL     1     -10.828  11.706  63.836  1.00  0.00    -0.405 C  
HETATM   38  O   UNL     1     -11.952  11.548  62.957  1.00  0.00    -0.917 OA 
HETATM   39  H   UNL     1     -12.093  10.644  62.701  1.00  0.00     0.000 HD 
BRANCH  37  40
HETATM   40  C   UNL     1      -9.626  11.076  63.124  1.00  0.00    -0.361 C  
HETATM   41  O   UNL     1      -9.627   9.662  63.345  1.00  0.00    -0.503 OA 
HETATM   42  H   UNL     1      -8.882   9.272  62.904  1.00  0.00     0.000 HD 
ENDBRANCH  37  40
ENDBRANCH  36  37
ENDBRANCH   4  36
TORSDOF 12
ENDMDL
MODEL        9
REMARK 921   NORMALIZED FREE ENERGY PREDICTED BY IDOCK:   -5.30 KCAL/MOL
REMARK 922        TOTAL FREE ENERGY PREDICTED BY IDOCK:  -10.22 KCAL/MOL
REMARK 923 INTER-LIGAND FREE ENERGY PREDICTED BY IDOCK:   -8.62 KCAL/MOL
REMARK 924 INTRA-LIGAND FREE ENERGY PREDICTED BY IDOCK:   -1.60 KCAL/MOL
REMARK 927      BINDING AFFINITY PREDICTED BY RF-SCORE:    0.00 PKD
ROOT
HETATM    1  C   UNL     1     -12.351  12.860  64.008  1.00  0.00    -0.457 C  
HETATM    2  C   UNL     1     -10.981  12.977  64.617  1.00  0.00    -0.342 C  
HETATM    3  O   UNL     1      -9.986  13.001  63.887  1.00  0.00    -0.311 OA 
HETATM    4  N   UNL     1     -10.897  13.039  66.011  1.00  0.00    -0.270 N  
ENDROOT
BRANCH   4   5
HETATM    5  C   UNL     1      -9.587  13.218  66.564  1.00  0.00    -0.264 A  
HETATM    6  C   UNL     1      -7.198  13.562  67.998  1.00  0.00    -0.125 A  
HETATM    7  C   UNL     1      -8.813  12.082  66.922  1.00  0.00    -0.197 A  
HETATM    8  C   UNL     1      -9.091  14.524  66.805  1.00  0.00    -0.261 A  
HETATM    9  I   UNL     1     -10.194  16.212  66.002  1.00  0.00    -0.378 I  
HETATM   10  I   UNL     1      -9.520  10.145  66.259  1.00  0.00    -0.279 I  
HETATM   11  C   UNL     1      -7.897  14.711  67.538  1.00  0.00    -0.212 A  
HETATM   12  I   UNL     1      -5.620  13.823  69.473  1.00  0.00    -0.107 I  
HETATM   13  C   UNL     1      -7.611  12.240  67.642  1.00  0.00    -0.144 A  
BRANCH  11  14
HETATM   14  C   UNL     1      -7.486  16.095  67.920  1.00  0.00    -0.128 C  
HETATM   15  O   UNL     1      -8.017  16.662  68.869  1.00  0.00    -0.230 OA 
HETATM   16  N   UNL     1      -6.498  16.684  67.162  1.00  0.00    -0.172 N  
HETATM   17  H   UNL     1      -6.074  16.159  66.397  1.00  0.00     0.000 HD 
BRANCH  16  18
HETATM   18  C   UNL     1      -6.047  18.048  67.435  1.00  0.00    -0.151 C  
BRANCH  18  19
HETATM   19  C   UNL     1      -6.711  19.067  66.503  1.00  0.00    -0.194 C  
HETATM   20  H   UNL     1      -7.568  19.031  64.735  1.00  0.00     0.000 HD 
HETATM   21  O   UNL     1      -7.156  18.399  65.313  1.00  0.00    -0.530 OA 
BRANCH  19  22
HETATM   22  C   UNL     1      -7.883  19.780  67.194  1.00  0.00    -0.273 C  
HETATM   23  O   UNL     1      -7.918  19.493  68.591  1.00  0.00    -0.350 OA 
HETATM   24  H   UNL     1      -8.643  19.934  69.018  1.00  0.00     0.000 HD 
ENDBRANCH  19  22
ENDBRANCH  18  19
ENDBRANCH  16  18
ENDBRANCH  11  14
BRANCH  13  25
HETATM   25  C   UNL     1      -6.721  11.079  67.978  1.00  0.00    -0.063 C  
HETATM   26  O   UNL     1      -5.818  10.770  67.208  1.00  0.00    -0.044 OA 
HETATM   27  H   UNL     1      -7.678  10.692  69.797  1.00  0.00     0.000 HD 
HETATM   28  N   UNL     1      -6.952  10.382  69.150  1.00  0.00    -0.063 N  
BRANCH  28  29
HETATM   29  C   UNL     1      -6.154   9.201  69.458  1.00  0.00    -0.036 C  
BRANCH  29  30
HETATM   30  C   UNL     1      -6.271   8.770  70.927  1.00  0.00    -0.043 C  
HETATM   31  H   UNL     1      -6.155   9.648  72.684  1.00  0.00     0.000 HD 
HETATM   32  O   UNL     1      -6.083   9.915  71.775  1.00  0.00    -0.300 OA 
BRANCH  30  33
HETATM   33  C   UNL     1      -7.640   8.126  71.208  1.00  0.00    -0.083 C  
HETATM   34  O   UNL     1      -8.502   9.018  71.911  1.00  0.00    -0.363 OA 
HETATM   35  H   UNL     1      -9.348   8.620  72.085  1.00  0.00     0.000 HD 
ENDBRANCH  30  33
ENDBRANCH  29  30
ENDBRANCH  28  29
ENDBRANCH  13  25
ENDBRANCH   4   5
BRANCH   4  36
HETATM   36  C   UNL     1     -12.058  12.985  66.942  1.00  0.00    -0.285 C  
BRANCH  36  37
HETATM   37  C   UNL     1     -11.783  13.276  68.442  1.00  0.00    -0.354 C  
HETATM   38  O   UNL     1     -12.634  14.303  68.973  1.00  0.00    -0.527 OA 
HETATM   39  H   UNL     1     -12.466  14.481  69.891  1.00  0.00     0.000 HD 
BRANCH  37  40
HETATM   40  C   UNL     1     -11.961  12.052  69.346  1.00  0.00    -0.275 C  
HETATM   41  O   UNL     1     -12.405  10.939  68.562  1.00  0.00    -0.807 OA 
HETATM   42  H   UNL     1     -12.516  10.181  69.122  1.00  0.00     0.000 HD 
ENDBRANCH  37  40
ENDBRANCH  36  37
ENDBRANCH   4  36
TORSDOF 12
ENDMDL
MODEL       10
REMARK 921   NORMALIZED FREE ENERGY PREDICTED BY IDOCK:   -5.28 KCAL/MOL
REMARK 922        TOTAL FREE ENERGY PREDICTED BY IDOCK:  -10.18 KCAL/MOL
REMARK 923 INTER-LIGAND FREE ENERGY PREDICTED BY IDOCK:   -8.78 KCAL/MOL
REMARK 924 INTRA-LIGAND FREE ENERGY PREDICTED BY IDOCK:   -1.40 KCAL/MOL
REMARK 927      BINDING AFFINITY PREDICTED BY RF-SCORE:    0.00 PKD
ROOT
HETATM    1  C   UNL     1      -6.147   6.764  65.608  1.00  0.00    -0.035 C  
HETATM    2  C   UNL     1      -6.847   7.667  66.586  1.00  0.00    -0.066 C  
HETATM    3  O   UNL     1      -6.186   8.428  67.298  1.00  0.00    -0.053 OA 
HETATM    4  N   UNL     1      -8.241   7.589  66.653  1.00  0.00    -0.121 N  
ENDROOT
BRANCH   4   5
HETATM    5  C   UNL     1      -8.890   8.507  67.542  1.00  0.00    -0.135 A  
HETATM    6  C   UNL     1     -10.493  10.119  69.189  1.00  0.00    -0.222 A  
HETATM    7  C   UNL     1      -9.071   8.155  68.906  1.00  0.00    -0.147 A  
HETATM    8  C   UNL     1      -9.397   9.735  67.047  1.00  0.00    -0.147 A  
HETATM    9  I   UNL     1      -8.863  10.337  65.032  1.00  0.00    -0.272 I  
HETATM   10  I   UNL     1      -8.021   6.406  69.633  1.00  0.00    -0.119 I  
HETATM   11  C   UNL     1     -10.217  10.548  67.862  1.00  0.00    -0.213 A  
HETATM   12  I   UNL     1     -12.076  11.116  70.300  1.00  0.00    -0.437 I  
HETATM   13  C   UNL     1      -9.874   8.956  69.744  1.00  0.00    -0.186 A  
BRANCH  11  14
HETATM   14  C   UNL     1     -10.873  11.751  67.265  1.00  0.00    -0.253 C  
HETATM   15  O   UNL     1     -11.949  11.648  66.686  1.00  0.00    -0.503 OA 
HETATM   16  N   UNL     1     -10.214  12.952  67.401  1.00  0.00    -0.228 N  
HETATM   17  H   UNL     1      -9.332  12.985  67.911  1.00  0.00     0.000 HD 
BRANCH  16  18
HETATM   18  C   UNL     1     -10.758  14.182  66.824  1.00  0.00    -0.286 C  
BRANCH  18  19
HETATM   19  C   UNL     1     -10.924  15.282  67.878  1.00  0.00    -0.306 C  
HETATM   20  H   UNL     1     -12.160  15.658  69.359  1.00  0.00     0.000 HD 
HETATM   21  O   UNL     1     -12.057  14.977  68.705  1.00  0.00    -0.272 OA 
BRANCH  19  22
HETATM   22  C   UNL     1      -9.657  15.438  68.733  1.00  0.00    -0.209 C  
HETATM   23  O   UNL     1      -9.815  14.830  70.014  1.00  0.00    -0.438 OA 
HETATM   24  H   UNL     1      -9.031  14.927  70.543  1.00  0.00     0.000 HD 
ENDBRANCH  19  22
ENDBRANCH  18  19
ENDBRANCH  16  18
ENDBRANCH  11  14
BRANCH  13  25
HETATM   25  C   UNL     1     -10.036   8.669  71.209  1.00  0.00    -0.242 C  
HETATM   26  O   UNL     1      -9.245   9.155  72.009  1.00  0.00    -0.339 OA 
HETATM   27  H   UNL     1     -11.750   7.502  70.932  1.00  0.00     0.000 HD 
HETATM   28  N   UNL     1     -11.076   7.851  71.614  1.00  0.00    -0.239 N  
BRANCH  28  29
HETATM   29  C   UNL     1     -11.205   7.491  73.022  1.00  0.00    -0.322 C  
BRANCH  29  30
HETATM   30  C   UNL     1     -10.822   6.031  73.299  1.00  0.00    -0.252 C  
HETATM   31  H   UNL     1     -10.502   4.412  72.227  1.00  0.00     0.000 HD 
HETATM   32  O   UNL     1     -10.739   5.315  72.055  1.00  0.00    -0.222 OA 
BRANCH  30  33
HETATM   33  C   UNL     1      -9.482   5.942  74.048  1.00  0.00    -0.145 C  
HETATM   34  O   UNL     1      -8.477   6.733  73.417  1.00  0.00    -0.117 OA 
HETATM   35  H   UNL     1      -7.649   6.678  73.879  1.00  0.00     0.000 HD 
ENDBRANCH  30  33
ENDBRANCH  29  30
ENDBRANCH  28  29
ENDBRANCH  13  25
ENDBRANCH   4   5
BRANCH   4  36
HETATM   36  C   UNL     1      -9.088   6.671  65.840  1.00  0.00    -0.029 C  
BRANCH  36  37
HETATM   37  C   UNL     1     -10.144   5.820  66.595  1.00  0.00    -0.193 C  
HETATM   38  O   UNL     1     -11.416   6.476  66.695  1.00  0.00    -0.727 OA 
HETATM   39  H   UNL     1     -12.063   5.955  67.157  1.00  0.00     0.000 HD 
BRANCH  37  40
HETATM   40  C   UNL     1     -10.406   4.456  65.949  1.00  0.00    -0.204 C  
HETATM   41  O   UNL     1     -11.478   4.571  65.007  1.00  0.00    -1.101 OA 
HETATM   42  H   UNL     1     -11.640   3.725  64.607  1.00  0.00     0.000 HD 
ENDBRANCH  37  40
ENDBRANCH  36  37
ENDBRANCH   4  36
TORSDOF 12
ENDMDL
MODEL       11
REMARK 921   NORMALIZED FREE ENERGY PREDICTED BY IDOCK:   -5.26 KCAL/MOL
REMARK 922        TOTAL FREE ENERGY PREDICTED BY IDOCK:  -10.16 KCAL/MOL
REMARK 923 INTER-LIGAND FREE ENERGY PREDICTED BY IDOCK:   -9.37 KCAL/MOL
REMARK 924 INTRA-LIGAND FREE ENERGY PREDICTED BY IDOCK:   -0.78 KCAL/MOL
REMARK 927      BINDING AFFINITY PREDICTED BY RF-SCORE:    0.00 PKD
ROOT
HETATM    1  C   UNL     1     -10.853   6.636  70.194  1.00  0.00    -0.330 C  
HETATM    2  C   UNL     1     -10.630   7.420  68.930  1.00  0.00    -0.176 C  
HETATM    3  O   UNL     1     -11.103   7.012  67.866  1.00  0.00    -0.160 OA 
HETATM    4  N   UNL     1      -9.870   8.589  69.021  1.00  0.00    -0.178 N  
ENDROOT
BRANCH   4   5
HETATM    5  C   UNL     1      -9.728   9.354  67.818  1.00  0.00    -0.151 A  
HETATM    6  C   UNL     1      -9.730  10.620  65.312  1.00  0.00    -0.259 A  
HETATM    7  C   UNL     1     -10.546  10.497  67.609  1.00  0.00    -0.250 A  
HETATM    8  C   UNL     1      -8.815   8.937  66.816  1.00  0.00    -0.124 A  
HETATM    9  I   UNL     1      -7.412   7.352  67.293  1.00  0.00    -0.108 I  
HETATM   10  I   UNL     1     -11.695  11.221  69.296  1.00  0.00    -0.440 I  
HETATM   11  C   UNL     1      -8.816   9.557  65.546  1.00  0.00    -0.201 A  
HETATM   12  I   UNL     1     -10.048  11.291  63.266  1.00  0.00    -0.315 I  
HETATM   13  C   UNL     1     -10.556  11.142  66.356  1.00  0.00    -0.315 A  
BRANCH  11  14
HETATM   14  C   UNL     1      -7.963   8.991  64.458  1.00  0.00    -0.131 C  
HETATM   15  O   UNL     1      -6.858   9.469  64.224  1.00  0.00    -0.093 OA 
HETATM   16  N   UNL     1      -8.477   7.928  63.751  1.00  0.00    -0.378 N  
HETATM   17  H   UNL     1      -9.393   7.555  64.002  1.00  0.00     0.000 HD 
BRANCH  16  18
HETATM   18  C   UNL     1      -7.734   7.323  62.646  1.00  0.00    -0.123 C  
BRANCH  18  19
HETATM   19  C   UNL     1      -7.490   5.828  62.872  1.00  0.00    -0.064 C  
HETATM   20  H   UNL     1      -6.607   4.720  64.235  1.00  0.00     0.000 HD 
HETATM   21  O   UNL     1      -6.758   5.647  64.095  1.00  0.00    -0.043 OA 
BRANCH  19  22
HETATM   22  C   UNL     1      -8.809   5.042  62.910  1.00  0.00    -0.063 C  
HETATM   23  O   UNL     1      -9.384   5.052  64.216  1.00  0.00    -0.354 OA 
HETATM   24  H   UNL     1     -10.200   4.566  64.240  1.00  0.00     0.000 HD 
ENDBRANCH  19  22
ENDBRANCH  18  19
ENDBRANCH  16  18
ENDBRANCH  11  14
BRANCH  13  25
HETATM   25  C   UNL     1     -11.345  12.395  66.108  1.00  0.00    -0.352 C  
HETATM   26  O   UNL     1     -12.534  12.310  65.818  1.00  0.00    -0.564 OA 
HETATM   27  H   UNL     1      -9.727  13.660  66.499  1.00  0.00     0.000 HD 
HETATM   28  N   UNL     1     -10.703  13.616  66.206  1.00  0.00    -0.283 N  
BRANCH  28  29
HETATM   29  C   UNL     1     -11.428  14.842  65.890  1.00  0.00    -0.319 C  
BRANCH  29  30
HETATM   30  C   UNL     1     -10.538  15.905  65.231  1.00  0.00    -0.419 C  
HETATM   31  H   UNL     1     -10.765  17.312  63.874  1.00  0.00     0.000 HD 
HETATM   32  O   UNL     1     -11.315  16.655  64.282  1.00  0.00    -1.116 OA 
BRANCH  30  33
HETATM   33  C   UNL     1      -9.934  16.851  66.282  1.00  0.00    -0.309 C  
HETATM   34  O   UNL     1      -9.676  18.143  65.735  1.00  0.00    -0.503 OA 
HETATM   35  H   UNL     1      -9.303  18.728  66.383  1.00  0.00     0.000 HD 
ENDBRANCH  30  33
ENDBRANCH  29  30
ENDBRANCH  28  29
ENDBRANCH  13  25
ENDBRANCH   4   5
BRANCH   4  36
HETATM   36  C   UNL     1      -9.252   9.114  70.271  1.00  0.00    -0.218 C  
BRANCH  36  37
HETATM   37  C   UNL     1      -7.720   9.366  70.257  1.00  0.00    -0.144 C  
HETATM   38  O   UNL     1      -7.384  10.751  70.423  1.00  0.00    -0.447 OA 
HETATM   39  H   UNL     1      -6.446  10.905  70.414  1.00  0.00     0.000 HD 
BRANCH  37  40
HETATM   40  C   UNL     1      -6.964   8.600  71.349  1.00  0.00    -0.085 C  
HETATM   41  O   UNL     1      -7.490   8.954  72.632  1.00  0.00    -0.354 OA 
HETATM   42  H   UNL     1      -7.022   8.480  73.308  1.00  0.00     0.000 HD 
ENDBRANCH  37  40
ENDBRANCH  36  37
ENDBRANCH   4  36
TORSDOF 12
ENDMDL
MODEL       12
REMARK 921   NORMALIZED FREE ENERGY PREDICTED BY IDOCK:   -5.25 KCAL/MOL
REMARK 922        TOTAL FREE ENERGY PREDICTED BY IDOCK:  -10.13 KCAL/MOL
REMARK 923 INTER-LIGAND FREE ENERGY PREDICTED BY IDOCK:   -8.49 KCAL/MOL
REMARK 924 INTRA-LIGAND FREE ENERGY PREDICTED BY IDOCK:   -1.64 KCAL/MOL
REMARK 927      BINDING AFFINITY PREDICTED BY RF-SCORE:    0.00 PKD
ROOT
HETATM    1  C   UNL     1     -12.653  13.099  64.910  1.00  0.00    -0.468 C  
HETATM    2  C   UNL     1     -11.238  12.999  65.407  1.00  0.00    -0.289 C  
HETATM    3  O   UNL     1     -10.323  12.770  64.612  1.00  0.00    -0.324 OA 
HETATM    4  N   UNL     1     -11.023  13.160  66.779  1.00  0.00    -0.276 N  
ENDROOT
BRANCH   4   5
HETATM    5  C   UNL     1      -9.660  13.127  67.221  1.00  0.00    -0.233 A  
HETATM    6  C   UNL     1      -7.130  13.165  68.436  1.00  0.00    -0.107 A  
HETATM    7  C   UNL     1      -9.124  11.929  67.763  1.00  0.00    -0.180 A  
HETATM    8  C   UNL     1      -8.870  14.303  67.167  1.00  0.00    -0.229 A  
HETATM    9  I   UNL     1      -9.645  16.022  66.092  1.00  0.00    -0.371 I  
HETATM   10  I   UNL     1     -10.298  10.123  67.543  1.00  0.00    -0.334 I  
HETATM   11  C   UNL     1      -7.600  14.339  67.787  1.00  0.00    -0.175 A  
HETATM   12  I   UNL     1      -5.402  13.321  69.750  1.00  0.00    -0.115 I  
HETATM   13  C   UNL     1      -7.854  11.934  68.376  1.00  0.00    -0.141 A  
BRANCH  11  14
HETATM   14  C   UNL     1      -6.861  15.636  67.860  1.00  0.00    -0.143 C  
HETATM   15  O   UNL     1      -5.981  15.895  67.047  1.00  0.00    -0.331 OA 
HETATM   16  N   UNL     1      -7.218  16.501  68.870  1.00  0.00    -0.196 N  
HETATM   17  H   UNL     1      -7.973  16.245  69.506  1.00  0.00     0.000 HD 
BRANCH  16  18
HETATM   18  C   UNL     1      -6.533  17.782  69.046  1.00  0.00    -0.233 C  
BRANCH  18  19
HETATM   19  C   UNL     1      -7.489  18.968  68.888  1.00  0.00    -0.329 C  
HETATM   20  H   UNL     1      -7.746  20.714  69.753  1.00  0.00     0.000 HD 
HETATM   21  O   UNL     1      -7.153  19.978  69.851  1.00  0.00    -0.208 OA 
BRANCH  19  22
HETATM   22  C   UNL     1      -7.445  19.542  67.464  1.00  0.00    -0.244 C  
HETATM   23  O   UNL     1      -6.682  18.710  66.591  1.00  0.00    -0.187 OA 
HETATM   24  H   UNL     1      -6.654  19.065  65.710  1.00  0.00     0.000 HD 
ENDBRANCH  19  22
ENDBRANCH  18  19
ENDBRANCH  16  18
ENDBRANCH  11  14
BRANCH  13  25
HETATM   25  C   UNL     1      -7.214  10.681  68.898  1.00  0.00    -0.090 C  
HETATM   26  O   UNL     1      -6.451  10.049  68.174  1.00  0.00    -0.054 OA 
HETATM   27  H   UNL     1      -8.107  10.841  70.782  1.00  0.00     0.000 HD 
HETATM   28  N   UNL     1      -7.510  10.268  70.185  1.00  0.00    -0.143 N  
BRANCH  28  29
HETATM   29  C   UNL     1      -6.964   9.011  70.684  1.00  0.00    -0.076 C  
BRANCH  29  30
HETATM   30  C   UNL     1      -7.948   8.254  71.586  1.00  0.00    -0.128 C  
HETATM   31  H   UNL     1      -8.506   8.334  73.471  1.00  0.00     0.000 HD 
HETATM   32  O   UNL     1      -7.898   8.803  72.913  1.00  0.00    -0.381 OA 
BRANCH  30  33
HETATM   33  C   UNL     1      -9.381   8.336  71.036  1.00  0.00    -0.162 C  
HETATM   34  O   UNL     1     -10.283   8.869  72.004  1.00  0.00    -0.334 OA 
HETATM   35  H   UNL     1     -11.169   8.919  71.664  1.00  0.00     0.000 HD 
ENDBRANCH  30  33
ENDBRANCH  29  30
ENDBRANCH  28  29
ENDBRANCH  13  25
ENDBRANCH   4   5
BRANCH   4  36
HETATM   36  C   UNL     1     -12.089  13.409  67.790  1.00  0.00    -0.259 C  
BRANCH  36  37
HETATM   37  C   UNL     1     -11.735  14.333  68.986  1.00  0.00    -0.317 C  
HETATM   38  O   UNL     1     -12.455  15.574  68.960  1.00  0.00    -0.607 OA 
HETATM   39  H   UNL     1     -12.238  16.140  69.693  1.00  0.00     0.000 HD 
BRANCH  37  40
HETATM   40  C   UNL     1     -12.012  13.697  70.353  1.00  0.00    -0.302 C  
HETATM   41  O   UNL     1     -11.570  12.335  70.344  1.00  0.00    -0.528 OA 
HETATM   42  H   UNL     1     -11.742  11.941  71.191  1.00  0.00     0.000 HD 
ENDBRANCH  37  40
ENDBRANCH  36  37
ENDBRANCH   4  36
TORSDOF 12
ENDMDL
MODEL       13
REMARK 921   NORMALIZED FREE ENERGY PREDICTED BY IDOCK:   -5.25 KCAL/MOL
REMARK 922        TOTAL FREE ENERGY PREDICTED BY IDOCK:  -10.13 KCAL/MOL
REMARK 923 INTER-LIGAND FREE ENERGY PREDICTED BY IDOCK:   -9.46 KCAL/MOL
REMARK 924 INTRA-LIGAND FREE ENERGY PREDICTED BY IDOCK:   -0.67 KCAL/MOL
REMARK 927      BINDING AFFINITY PREDICTED BY RF-SCORE:    0.00 PKD
ROOT
HETATM    1  C   UNL     1     -11.961   6.540  71.788  1.00  0.00    -0.394 C  
HETATM    2  C   UNL     1     -11.499   7.162  70.499  1.00  0.00    -0.295 C  
HETATM    3  O   UNL     1     -11.906   6.715  69.423  1.00  0.00    -0.161 OA 
HETATM    4  N   UNL     1     -10.599   8.228  70.583  1.00  0.00    -0.211 N  
ENDROOT
BRANCH   4   5
HETATM    5  C   UNL     1     -10.225   8.847  69.345  1.00  0.00    -0.209 A  
HETATM    6  C   UNL     1      -9.790   9.858  66.763  1.00  0.00    -0.201 A  
HETATM    7  C   UNL     1     -10.831  10.072  68.959  1.00  0.00    -0.222 A  
HETATM    8  C   UNL     1      -9.297   8.208  68.485  1.00  0.00    -0.138 A  
HETATM    9  I   UNL     1      -8.209   6.486  69.236  1.00  0.00    -0.124 I  
HETATM   10  I   UNL     1     -12.010  11.113  70.449  1.00  0.00    -0.381 I  
HETATM   11  C   UNL     1      -9.079   8.699  67.178  1.00  0.00    -0.156 A  
HETATM   12  I   UNL     1      -9.802  10.371  64.648  1.00  0.00    -0.244 I  
HETATM   13  C   UNL     1     -10.621  10.591  67.665  1.00  0.00    -0.295 A  
BRANCH  11  14
HETATM   14  C   UNL     1      -8.224   7.914  66.237  1.00  0.00    -0.117 C  
HETATM   15  O   UNL     1      -7.049   8.220  66.064  1.00  0.00    -0.067 OA 
HETATM   16  N   UNL     1      -8.818   6.853  65.592  1.00  0.00    -0.339 N  
HETATM   17  H   UNL     1      -9.794   6.628  65.790  1.00  0.00     0.000 HD 
BRANCH  16  18
HETATM   18  C   UNL     1      -8.075   6.041  64.628  1.00  0.00    -0.132 C  
BRANCH  18  19
HETATM   19  C   UNL     1      -8.277   4.542  64.867  1.00  0.00    -0.107 C  
HETATM   20  H   UNL     1      -8.182   3.320  66.403  1.00  0.00     0.000 HD 
HETATM   21  O   UNL     1      -8.057   4.250  66.255  1.00  0.00    -0.101 OA 
BRANCH  19  22
HETATM   22  C   UNL     1      -9.680   4.087  64.435  1.00  0.00    -0.174 C  
HETATM   23  O   UNL     1     -10.635   4.282  65.478  1.00  0.00    -0.462 OA 
HETATM   24  H   UNL     1     -11.502   4.001  65.211  1.00  0.00     0.000 HD 
ENDBRANCH  19  22
ENDBRANCH  18  19
ENDBRANCH  16  18
ENDBRANCH  11  14
BRANCH  13  25
HETATM   25  C   UNL     1     -11.178  11.917  67.235  1.00  0.00    -0.317 C  
HETATM   26  O   UNL     1     -12.279  11.961  66.697  1.00  0.00    -0.493 OA 
HETATM   27  H   UNL     1      -9.535  12.997  67.948  1.00  0.00     0.000 HD 
HETATM   28  N   UNL     1     -10.425  13.057  67.452  1.00  0.00    -0.233 N  
BRANCH  28  29
HETATM   29  C   UNL     1     -10.909  14.345  66.969  1.00  0.00    -0.297 C  
BRANCH  29  30
HETATM   30  C   UNL     1     -10.136  14.848  65.742  1.00  0.00    -0.341 C  
HETATM   31  H   UNL     1      -9.897  14.275  63.875  1.00  0.00     0.000 HD 
HETATM   32  O   UNL     1     -10.375  13.964  64.634  1.00  0.00    -0.432 OA 
BRANCH  30  33
HETATM   33  C   UNL     1     -10.556  16.281  65.371  1.00  0.00    -0.352 C  
HETATM   34  O   UNL     1     -11.058  16.350  64.038  1.00  0.00    -1.236 OA 
HETATM   35  H   UNL     1     -11.317  17.234  63.809  1.00  0.00     0.000 HD 
ENDBRANCH  30  33
ENDBRANCH  29  30
ENDBRANCH  28  29
ENDBRANCH  13  25
ENDBRANCH   4   5
BRANCH   4  36
HETATM   36  C   UNL     1     -10.052   8.790  71.849  1.00  0.00    -0.339 C  
BRANCH  36  37
HETATM   37  C   UNL     1      -8.739   8.169  72.397  1.00  0.00    -0.189 C  
HETATM   38  O   UNL     1      -7.598   9.016  72.194  1.00  0.00    -0.344 OA 
HETATM   39  H   UNL     1      -6.795   8.635  72.529  1.00  0.00     0.000 HD 
BRANCH  37  40
HETATM   40  C   UNL     1      -8.789   7.855  73.896  1.00  0.00    -0.254 C  
HETATM   41  O   UNL     1      -7.842   6.825  74.200  1.00  0.00    -0.102 OA 
HETATM   42  H   UNL     1      -7.873   6.631  75.129  1.00  0.00     0.000 HD 
ENDBRANCH  37  40
ENDBRANCH  36  37
ENDBRANCH   4  36
TORSDOF 12
ENDMDL
MODEL       14
REMARK 921   NORMALIZED FREE ENERGY PREDICTED BY IDOCK:   -5.18 KCAL/MOL
REMARK 922        TOTAL FREE ENERGY PREDICTED BY IDOCK:  -10.01 KCAL/MOL
REMARK 923 INTER-LIGAND FREE ENERGY PREDICTED BY IDOCK:  -10.79 KCAL/MOL
REMARK 924 INTRA-LIGAND FREE ENERGY PREDICTED BY IDOCK:    0.77 KCAL/MOL
REMARK 927      BINDING AFFINITY PREDICTED BY RF-SCORE:    0.00 PKD
ROOT
HETATM    1  C   UNL     1     -10.864   7.486  73.284  1.00  0.00    -0.409 C  
HETATM    2  C   UNL     1     -10.415   8.206  72.042  1.00  0.00    -0.263 C  
HETATM    3  O   UNL     1      -9.434   8.952  72.087  1.00  0.00    -0.327 OA 
HETATM    4  N   UNL     1     -11.157   8.003  70.875  1.00  0.00    -0.251 N  
ENDROOT
BRANCH   4   5
HETATM    5  C   UNL     1     -10.671   8.646  69.689  1.00  0.00    -0.200 A  
HETATM    6  C   UNL     1     -10.023   9.737  67.185  1.00  0.00    -0.198 A  
HETATM    7  C   UNL     1     -11.156   9.933  69.338  1.00  0.00    -0.199 A  
HETATM    8  C   UNL     1      -9.753   7.973  68.843  1.00  0.00    -0.159 A  
HETATM    9  I   UNL     1      -8.847   6.134  69.556  1.00  0.00    -0.133 I  
HETATM   10  I   UNL     1     -12.323  10.997  70.820  1.00  0.00    -0.422 I  
HETATM   11  C   UNL     1      -9.430   8.505  67.575  1.00  0.00    -0.182 A  
HETATM   12  I   UNL     1      -9.884  10.348  65.101  1.00  0.00    -0.350 I  
HETATM   13  C   UNL     1     -10.838  10.493  68.084  1.00  0.00    -0.300 A  
BRANCH  11  14
HETATM   14  C   UNL     1      -8.592   7.697  66.637  1.00  0.00    -0.133 C  
HETATM   15  O   UNL     1      -7.386   7.899  66.551  1.00  0.00    -0.084 OA 
HETATM   16  N   UNL     1      -9.239   6.735  65.895  1.00  0.00    -0.368 N  
HETATM   17  H   UNL     1     -10.242   6.593  66.022  1.00  0.00     0.000 HD 
BRANCH  16  18
HETATM   18  C   UNL     1      -8.514   5.913  64.926  1.00  0.00    -0.085 C  
BRANCH  18  19
HETATM   19  C   UNL     1      -9.187   4.553  64.714  1.00  0.00    -0.152 C  
HETATM   20  H   UNL     1      -8.605   2.679  64.604  1.00  0.00     0.000 HD 
HETATM   21  O   UNL     1      -8.188   3.522  64.736  1.00  0.00    -0.090 OA 
BRANCH  19  22
HETATM   22  C   UNL     1     -10.263   4.285  65.777  1.00  0.00    -0.186 C  
HETATM   23  O   UNL     1     -11.561   4.647  65.308  1.00  0.00    -1.093 OA 
HETATM   24  H   UNL     1     -12.226   4.482  65.966  1.00  0.00     0.000 HD 
ENDBRANCH  19  22
ENDBRANCH  18  19
ENDBRANCH  16  18
ENDBRANCH  11  14
BRANCH  13  25
HETATM   25  C   UNL     1     -11.264  11.879  67.695  1.00  0.00    -0.276 C  
HETATM   26  O   UNL     1     -12.275  12.030  67.018  1.00  0.00    -0.516 OA 
HETATM   27  H   UNL     1      -9.688  12.801  68.714  1.00  0.00     0.000 HD 
HETATM   28  N   UNL     1     -10.495  12.952  68.109  1.00  0.00    -0.230 N  
BRANCH  28  29
HETATM   29  C   UNL     1     -10.842  14.300  67.675  1.00  0.00    -0.268 C  
BRANCH  29  30
HETATM   30  C   UNL     1      -9.827  14.887  66.685  1.00  0.00    -0.260 C  
HETATM   31  H   UNL     1      -8.044  14.395  66.012  1.00  0.00     0.000 HD 
HETATM   32  O   UNL     1      -8.673  14.032  66.624  1.00  0.00    -0.159 OA 
BRANCH  30  33
HETATM   33  C   UNL     1     -10.443  15.041  65.284  1.00  0.00    -0.403 C  
HETATM   34  O   UNL     1     -11.552  14.163  65.102  1.00  0.00    -0.320 OA 
HETATM   35  H   UNL     1     -11.933  14.257  64.237  1.00  0.00     0.000 HD 
ENDBRANCH  30  33
ENDBRANCH  29  30
ENDBRANCH  28  29
ENDBRANCH  13  25
ENDBRANCH   4   5
BRANCH   4  36
HETATM   36  C   UNL     1     -12.365   7.139  70.767  1.00  0.00    -0.229 C  
BRANCH  36  37
HETATM   37  C   UNL     1     -13.691   7.690  71.356  1.00  0.00    -0.310 C  
HETATM   38  O   UNL     1     -14.386   6.723  72.158  1.00  0.00    -0.604 OA 
HETATM   39  H   UNL     1     -15.197   7.061  72.519  1.00  0.00     0.000 HD 
BRANCH  37  40
HETATM   40  C   UNL     1     -13.501   8.930  72.236  1.00  0.00    -0.455 C  
HETATM   41  O   UNL     1     -14.270   8.788  73.435  1.00  0.00    -1.173 OA 
HETATM   42  H   UNL     1     -14.152   9.557  73.980  1.00  0.00     0.000 HD 
ENDBRANCH  37  40
ENDBRANCH  36  37
ENDBRANCH   4  36
TORSDOF 12
ENDMDL
MODEL       15
REMARK 921   NORMALIZED FREE ENERGY PREDICTED BY IDOCK:   -5.15 KCAL/MOL
REMARK 922        TOTAL FREE ENERGY PREDICTED BY IDOCK:   -9.97 KCAL/MOL
REMARK 923 INTER-LIGAND FREE ENERGY PREDICTED BY IDOCK:   -9.79 KCAL/MOL
REMARK 924 INTRA-LIGAND FREE ENERGY PREDICTED BY IDOCK:   -0.18 KCAL/MOL
REMARK 927      BINDING AFFINITY PREDICTED BY RF-SCORE:    0.00 PKD
ROOT
HETATM    1  C   UNL     1      -5.926   7.093  66.008  1.00  0.00    -0.036 C  
HETATM    2  C   UNL     1      -6.914   8.052  66.611  1.00  0.00    -0.072 C  
HETATM    3  O   UNL     1      -6.512   8.993  67.301  1.00  0.00    -0.059 OA 
HETATM    4  N   UNL     1      -8.271   7.819  66.369  1.00  0.00    -0.111 N  
ENDROOT
BRANCH   4   5
HETATM    5  C   UNL     1      -9.190   8.784  66.897  1.00  0.00    -0.156 A  
HETATM    6  C   UNL     1     -10.672  10.860  68.069  1.00  0.00    -0.220 A  
HETATM    7  C   UNL     1      -9.538   9.921  66.122  1.00  0.00    -0.218 A  
HETATM    8  C   UNL     1      -9.702   8.630  68.210  1.00  0.00    -0.155 A  
HETATM    9  I   UNL     1      -9.350   6.755  69.244  1.00  0.00    -0.143 I  
HETATM   10  I   UNL     1      -8.943   9.928  64.039  1.00  0.00    -0.240 I  
HETATM   11  C   UNL     1     -10.437   9.674  68.816  1.00  0.00    -0.238 A  
HETATM   12  I   UNL     1     -11.413  12.621  69.111  1.00  0.00    -0.304 I  
HETATM   13  C   UNL     1     -10.283  10.971  66.697  1.00  0.00    -0.280 A  
BRANCH  11  14
HETATM   14  C   UNL     1     -10.822   9.555  70.255  1.00  0.00    -0.269 C  
HETATM   15  O   UNL     1      -9.980   9.684  71.136  1.00  0.00    -0.221 OA 
HETATM   16  N   UNL     1     -12.147   9.297  70.526  1.00  0.00    -0.478 N  
HETATM   17  H   UNL     1     -12.811   9.221  69.755  1.00  0.00     0.000 HD 
BRANCH  16  18
HETATM   18  C   UNL     1     -12.620   9.131  71.901  1.00  0.00    -0.388 C  
BRANCH  18  19
HETATM   19  C   UNL     1     -13.194   7.731  72.143  1.00  0.00    -0.102 C  
HETATM   20  H   UNL     1     -14.708   6.678  71.465  1.00  0.00     0.000 HD 
HETATM   21  O   UNL     1     -14.352   7.546  71.315  1.00  0.00    -0.413 OA 
BRANCH  19  22
HETATM   22  C   UNL     1     -12.150   6.639  71.865  1.00  0.00    -0.340 C  
HETATM   23  O   UNL     1     -11.947   5.810  73.008  1.00  0.00    -0.519 OA 
HETATM   24  H   UNL     1     -11.301   5.134  72.836  1.00  0.00     0.000 HD 
ENDBRANCH  19  22
ENDBRANCH  18  19
ENDBRANCH  16  18
ENDBRANCH  11  14
BRANCH  13  25
HETATM   25  C   UNL     1     -10.739  12.159  65.900  1.00  0.00    -0.266 C  
HETATM   26  O   UNL     1     -11.812  12.109  65.309  1.00  0.00    -0.364 OA 
HETATM   27  H   UNL     1      -9.064  13.310  66.393  1.00  0.00     0.000 HD 
HETATM   28  N   UNL     1      -9.927  13.277  65.849  1.00  0.00    -0.286 N  
BRANCH  28  29
HETATM   29  C   UNL     1     -10.310  14.411  65.016  1.00  0.00    -0.421 C  
BRANCH  29  30
HETATM   30  C   UNL     1     -10.632  15.669  65.834  1.00  0.00    -0.343 C  
HETATM   31  H   UNL     1      -9.673  16.830  67.101  1.00  0.00     0.000 HD 
HETATM   32  O   UNL     1      -9.474  16.052  66.594  1.00  0.00    -0.212 OA 
BRANCH  30  33
HETATM   33  C   UNL     1     -11.070  16.827  64.922  1.00  0.00    -0.054 C  
HETATM   34  O   UNL     1     -11.784  16.353  63.782  1.00  0.00    -1.553 OA 
HETATM   35  H   UNL     1     -12.055  17.068  63.218  1.00  0.00     0.000 HD 
ENDBRANCH  30  33
ENDBRANCH  29  30
ENDBRANCH  28  29
ENDBRANCH  13  25
ENDBRANCH   4   5
BRANCH   4  36
HETATM   36  C   UNL     1      -8.816   6.685  65.571  1.00  0.00     0.023 C  
BRANCH  36  37
HETATM   37  C   UNL     1      -9.607   5.590  66.336  1.00  0.00    -0.158 C  
HETATM   38  O   UNL     1     -10.983   5.519  65.936  1.00  0.00    -0.673 OA 
HETATM   39  H   UNL     1     -11.467   4.848  66.404  1.00  0.00     0.000 HD 
BRANCH  37  40
HETATM   40  C   UNL     1      -9.028   4.182  66.160  1.00  0.00    -0.126 C  
HETATM   41  O   UNL     1      -9.789   3.252  66.939  1.00  0.00    -0.393 OA 
HETATM   42  H   UNL     1      -9.430   2.379  66.830  1.00  0.00     0.000 HD 
ENDBRANCH  37  40
ENDBRANCH  36  37
ENDBRANCH   4  36
TORSDOF 12
ENDMDL
MODEL       16
REMARK 921   NORMALIZED FREE ENERGY PREDICTED BY IDOCK:   -5.13 KCAL/MOL
REMARK 922        TOTAL FREE ENERGY PREDICTED BY IDOCK:   -9.93 KCAL/MOL
REMARK 923 INTER-LIGAND FREE ENERGY PREDICTED BY IDOCK:   -9.81 KCAL/MOL
REMARK 924 INTRA-LIGAND FREE ENERGY PREDICTED BY IDOCK:   -0.12 KCAL/MOL
REMARK 927      BINDING AFFINITY PREDICTED BY RF-SCORE:    0.00 PKD
ROOT
HETATM    1  C   UNL     1      -8.002  15.281  66.788  1.00  0.00    -0.104 C  
HETATM    2  C   UNL     1      -8.473  14.113  67.610  1.00  0.00    -0.185 C  
HETATM    3  O   UNL     1      -8.007  13.929  68.737  1.00  0.00    -0.129 OA 
HETATM    4  N   UNL     1      -9.427  13.265  67.039  1.00  0.00    -0.235 N  
ENDROOT
BRANCH   4   5
HETATM    5  C   UNL     1      -9.910  12.199  67.866  1.00  0.00    -0.199 A  
HETATM    6  C   UNL     1     -10.590  10.228  69.746  1.00  0.00    -0.271 A  
HETATM    7  C   UNL     1     -10.951  12.449  68.799  1.00  0.00    -0.246 A  
HETATM    8  C   UNL     1      -9.312  10.915  67.789  1.00  0.00    -0.157 A  
HETATM    9  I   UNL     1      -7.919  10.519  66.173  1.00  0.00    -0.139 I  
HETATM   10  I   UNL     1     -11.992  14.342  68.648  1.00  0.00    -0.135 I  
HETATM   11  C   UNL     1      -9.635   9.920  68.738  1.00  0.00    -0.160 A  
HETATM   12  I   UNL     1     -10.780   8.886  71.448  1.00  0.00    -0.455 I  
HETATM   13  C   UNL     1     -11.302  11.468  69.749  1.00  0.00    -0.303 A  
BRANCH  11  14
HETATM   14  C   UNL     1      -8.871   8.636  68.737  1.00  0.00    -0.139 C  
HETATM   15  O   UNL     1      -7.803   8.548  69.332  1.00  0.00    -0.094 OA 
HETATM   16  N   UNL     1      -9.424   7.582  68.044  1.00  0.00    -0.142 N  
HETATM   17  H   UNL     1     -10.327   7.703  67.585  1.00  0.00     0.000 HD 
BRANCH  16  18
HETATM   18  C   UNL     1      -8.740   6.292  67.955  1.00  0.00    -0.114 C  
BRANCH  18  19
HETATM   19  C   UNL     1      -8.836   5.690  66.550  1.00  0.00    -0.123 C  
HETATM   20  H   UNL     1      -7.754   4.477  65.445  1.00  0.00     0.000 HD 
HETATM   21  O   UNL     1      -7.694   4.850  66.316  1.00  0.00    -0.090 OA 
BRANCH  19  22
HETATM   22  C   UNL     1     -10.138   4.896  66.365  1.00  0.00    -0.258 C  
HETATM   23  O   UNL     1     -11.274   5.759  66.337  1.00  0.00    -0.743 OA 
HETATM   24  H   UNL     1     -12.079   5.268  66.223  1.00  0.00     0.000 HD 
ENDBRANCH  19  22
ENDBRANCH  18  19
ENDBRANCH  16  18
ENDBRANCH  11  14
BRANCH  13  25
HETATM   25  C   UNL     1     -12.442  11.655  70.708  1.00  0.00    -0.330 C  
HETATM   26  O   UNL     1     -13.351  10.831  70.729  1.00  0.00    -0.146 OA 
HETATM   27  H   UNL     1     -11.644  13.402  71.534  1.00  0.00     0.000 HD 
HETATM   28  N   UNL     1     -12.438  12.761  71.538  1.00  0.00    -0.140 N  
BRANCH  28  29
HETATM   29  C   UNL     1     -13.574  13.008  72.419  1.00  0.00    -0.529 C  
BRANCH  29  30
HETATM   30  C   UNL     1     -13.744  14.493  72.768  1.00  0.00    -0.363 C  
HETATM   31  H   UNL     1     -12.786  15.818  73.862  1.00  0.00     0.000 HD 
HETATM   32  O   UNL     1     -12.680  14.900  73.646  1.00  0.00    -0.526 OA 
BRANCH  30  33
HETATM   33  C   UNL     1     -13.744  15.364  71.501  1.00  0.00    -0.508 C  
HETATM   34  O   UNL     1     -12.661  16.293  71.505  1.00  0.00    -0.535 OA 
HETATM   35  H   UNL     1     -12.661  16.831  70.723  1.00  0.00     0.000 HD 
ENDBRANCH  30  33
ENDBRANCH  29  30
ENDBRANCH  28  29
ENDBRANCH  13  25
ENDBRANCH   4   5
BRANCH   4  36
HETATM   36  C   UNL     1     -10.003  13.420  65.674  1.00  0.00    -0.235 C  
BRANCH  36  37
HETATM   37  C   UNL     1     -11.050  12.369  65.218  1.00  0.00    -0.303 C  
HETATM   38  O   UNL     1     -12.394  12.870  65.263  1.00  0.00    -0.449 OA 
HETATM   39  H   UNL     1     -13.036  12.227  64.984  1.00  0.00     0.000 HD 
BRANCH  37  40
HETATM   40  C   UNL     1     -10.823  11.856  63.792  1.00  0.00    -0.418 C  
HETATM   41  O   UNL     1     -12.087  11.616  63.164  1.00  0.00    -0.905 OA 
HETATM   42  H   UNL     1     -11.946  11.298  62.280  1.00  0.00     0.000 HD 
ENDBRANCH  37  40
ENDBRANCH  36  37
ENDBRANCH   4  36
TORSDOF 12
ENDMDL
MODEL       17
REMARK 921   NORMALIZED FREE ENERGY PREDICTED BY IDOCK:   -5.10 KCAL/MOL
REMARK 922        TOTAL FREE ENERGY PREDICTED BY IDOCK:   -9.87 KCAL/MOL
REMARK 923 INTER-LIGAND FREE ENERGY PREDICTED BY IDOCK:   -8.58 KCAL/MOL
REMARK 924 INTRA-LIGAND FREE ENERGY PREDICTED BY IDOCK:   -1.29 KCAL/MOL
REMARK 927      BINDING AFFINITY PREDICTED BY RF-SCORE:    0.00 PKD
ROOT
HETATM    1  C   UNL     1      -6.592   8.054  66.722  1.00  0.00    -0.056 C  
HETATM    2  C   UNL     1      -7.802   8.325  67.573  1.00  0.00    -0.106 C  
HETATM    3  O   UNL     1      -8.915   7.953  67.191  1.00  0.00    -0.125 OA 
HETATM    4  N   UNL     1      -7.606   9.013  68.774  1.00  0.00    -0.086 N  
ENDROOT
BRANCH   4   5
HETATM    5  C   UNL     1      -8.763   9.200  69.598  1.00  0.00    -0.145 A  
HETATM    6  C   UNL     1     -11.222   9.358  70.944  1.00  0.00    -0.325 A  
HETATM    7  C   UNL     1      -9.083   8.237  70.591  1.00  0.00    -0.152 A  
HETATM    8  C   UNL     1      -9.614  10.314  69.384  1.00  0.00    -0.218 A  
HETATM    9  I   UNL     1      -8.942  11.885  68.045  1.00  0.00    -0.186 I  
HETATM   10  I   UNL     1      -7.589   6.735  71.040  1.00  0.00    -0.085 I  
HETATM   11  C   UNL     1     -10.860  10.398  70.044  1.00  0.00    -0.348 A  
HETATM   12  I   UNL     1     -13.284   9.243  71.630  1.00  0.00    -0.485 I  
HETATM   13  C   UNL     1     -10.314   8.304  71.275  1.00  0.00    -0.256 A  
BRANCH  11  14
HETATM   14  C   UNL     1     -11.808  11.493  69.677  1.00  0.00    -0.354 C  
HETATM   15  O   UNL     1     -12.501  11.403  68.669  1.00  0.00    -0.396 OA 
HETATM   16  N   UNL     1     -11.857  12.583  70.516  1.00  0.00    -0.529 N  
HETATM   17  H   UNL     1     -11.275  12.597  71.354  1.00  0.00     0.000 HD 
BRANCH  16  18
HETATM   18  C   UNL     1     -12.728  13.722  70.227  1.00  0.00    -0.144 C  
BRANCH  18  19
HETATM   19  C   UNL     1     -13.339  14.312  71.503  1.00  0.00    -0.354 C  
HETATM   20  H   UNL     1     -13.846  13.642  73.279  1.00  0.00     0.000 HD 
HETATM   21  O   UNL     1     -13.468  13.276  72.488  1.00  0.00    -0.573 OA 
BRANCH  19  22
HETATM   22  C   UNL     1     -12.494  15.474  72.046  1.00  0.00    -0.398 C  
HETATM   23  O   UNL     1     -11.107  15.138  72.079  1.00  0.00    -0.529 OA 
HETATM   24  H   UNL     1     -10.584  15.857  72.415  1.00  0.00     0.000 HD 
ENDBRANCH  19  22
ENDBRANCH  18  19
ENDBRANCH  16  18
ENDBRANCH  11  14
BRANCH  13  25
HETATM   25  C   UNL     1     -10.667   7.355  72.382  1.00  0.00    -0.253 C  
HETATM   26  O   UNL     1     -10.471   7.689  73.546  1.00  0.00    -0.343 OA 
HETATM   27  H   UNL     1     -11.398   5.889  71.083  1.00  0.00     0.000 HD 
HETATM   28  N   UNL     1     -11.198   6.120  72.056  1.00  0.00    -0.272 N  
BRANCH  28  29
HETATM   29  C   UNL     1     -11.472   5.149  73.110  1.00  0.00    -0.272 C  
BRANCH  29  30
HETATM   30  C   UNL     1     -10.461   3.995  73.132  1.00  0.00    -0.175 C  
HETATM   31  H   UNL     1      -8.766   3.600  74.049  1.00  0.00     0.000 HD 
HETATM   32  O   UNL     1      -9.391   4.315  74.036  1.00  0.00    -0.105 OA 
BRANCH  30  33
HETATM   33  C   UNL     1     -11.133   2.678  73.555  1.00  0.00    -0.215 C  
HETATM   34  O   UNL     1     -10.294   1.555  73.292  1.00  0.00    -0.090 OA 
HETATM   35  H   UNL     1     -10.709   0.741  73.554  1.00  0.00     0.000 HD 
ENDBRANCH  30  33
ENDBRANCH  29  30
ENDBRANCH  28  29
ENDBRANCH  13  25
ENDBRANCH   4   5
BRANCH   4  36
HETATM   36  C   UNL     1      -6.293   9.512  69.271  1.00  0.00    -0.044 C  
BRANCH  36  37
HETATM   37  C   UNL     1      -6.314  10.514  70.456  1.00  0.00    -0.090 C  
HETATM   38  O   UNL     1      -5.807   9.944  71.673  1.00  0.00    -0.244 OA 
HETATM   39  H   UNL     1      -5.819  10.558  72.398  1.00  0.00     0.000 HD 
BRANCH  37  40
HETATM   40  C   UNL     1      -5.499  11.785  70.198  1.00  0.00    -0.116 C  
HETATM   41  O   UNL     1      -6.198  12.917  70.727  1.00  0.00    -0.511 OA 
HETATM   42  H   UNL     1      -5.693  13.705  70.566  1.00  0.00     0.000 HD 
ENDBRANCH  37  40
ENDBRANCH  36  37
ENDBRANCH   4  36
TORSDOF 12
ENDMDL
MODEL       18
REMARK 921   NORMALIZED FREE ENERGY PREDICTED BY IDOCK:   -5.01 KCAL/MOL
REMARK 922        TOTAL FREE ENERGY PREDICTED BY IDOCK:   -9.72 KCAL/MOL
REMARK 923 INTER-LIGAND FREE ENERGY PREDICTED BY IDOCK:   -8.39 KCAL/MOL
REMARK 924 INTRA-LIGAND FREE ENERGY PREDICTED BY IDOCK:   -1.33 KCAL/MOL
REMARK 927      BINDING AFFINITY PREDICTED BY RF-SCORE:    0.00 PKD
ROOT
HETATM    1  C   UNL     1      -5.131   6.519  67.366  1.00  0.00    -0.005 C  
HETATM    2  C   UNL     1      -6.303   7.314  67.872  1.00  0.00    -0.048 C  
HETATM    3  O   UNL     1      -6.117   8.245  68.661  1.00  0.00    -0.042 OA 
HETATM    4  N   UNL     1      -7.575   6.943  67.428  1.00  0.00    -0.106 N  
ENDROOT
BRANCH   4   5
HETATM    5  C   UNL     1      -8.669   7.757  67.870  1.00  0.00    -0.124 A  
HETATM    6  C   UNL     1     -10.557   9.505  68.992  1.00  0.00    -0.219 A  
HETATM    7  C   UNL     1      -8.878   9.034  67.285  1.00  0.00    -0.117 A  
HETATM    8  C   UNL     1      -9.502   7.311  68.927  1.00  0.00    -0.143 A  
HETATM    9  I   UNL     1      -9.306   5.257  69.601  1.00  0.00    -0.230 I  
HETATM   10  I   UNL     1      -7.748   9.508  65.499  1.00  0.00    -0.119 I  
HETATM   11  C   UNL     1     -10.447   8.186  69.510  1.00  0.00    -0.227 A  
HETATM   12  I   UNL     1     -11.675  10.983  70.133  1.00  0.00    -0.416 I  
HETATM   13  C   UNL     1      -9.824   9.922  67.838  1.00  0.00    -0.170 A  
BRANCH  11  14
HETATM   14  C   UNL     1     -11.194   7.747  70.727  1.00  0.00    -0.271 C  
HETATM   15  O   UNL     1     -12.316   7.264  70.626  1.00  0.00    -0.226 OA 
HETATM   16  N   UNL     1     -10.563   7.913  71.939  1.00  0.00    -0.220 N  
HETATM   17  H   UNL     1      -9.619   8.300  71.965  1.00  0.00     0.000 HD 
BRANCH  16  18
HETATM   18  C   UNL     1     -11.222   7.544  73.192  1.00  0.00    -0.267 C  
BRANCH  18  19
HETATM   19  C   UNL     1     -10.409   6.516  73.985  1.00  0.00    -0.340 C  
HETATM   20  H   UNL     1      -9.876   4.638  73.753  1.00  0.00     0.000 HD 
HETATM   21  O   UNL     1     -10.381   5.275  73.261  1.00  0.00    -0.180 OA 
BRANCH  19  22
HETATM   22  C   UNL     1      -8.982   7.016  74.256  1.00  0.00    -0.204 C  
HETATM   23  O   UNL     1      -8.116   6.744  73.155  1.00  0.00    -0.107 OA 
HETATM   24  H   UNL     1      -7.234   7.053  73.323  1.00  0.00     0.000 HD 
ENDBRANCH  19  22
ENDBRANCH  18  19
ENDBRANCH  16  18
ENDBRANCH  11  14
BRANCH  13  25
HETATM   25  C   UNL     1     -10.134  11.251  67.213  1.00  0.00    -0.186 C  
HETATM   26  O   UNL     1      -9.438  12.222  67.489  1.00  0.00    -0.175 OA 
HETATM   27  H   UNL     1     -11.736  10.508  66.093  1.00  0.00     0.000 HD 
HETATM   28  N   UNL     1     -11.207  11.343  66.344  1.00  0.00    -0.248 N  
BRANCH  28  29
HETATM   29  C   UNL     1     -11.577  12.640  65.789  1.00  0.00    -0.387 C  
BRANCH  29  30
HETATM   30  C   UNL     1     -11.925  12.569  64.296  1.00  0.00    -0.408 C  
HETATM   31  H   UNL     1     -12.736  13.767  62.962  1.00  0.00     0.000 HD 
HETATM   32  O   UNL     1     -12.521  13.811  63.886  1.00  0.00    -0.695 OA 
BRANCH  30  33
HETATM   33  C   UNL     1     -10.674  12.280  63.449  1.00  0.00    -0.391 C  
HETATM   34  O   UNL     1     -10.793  11.046  62.744  1.00  0.00    -0.780 OA 
HETATM   35  H   UNL     1     -10.021  10.867  62.221  1.00  0.00     0.000 HD 
ENDBRANCH  30  33
ENDBRANCH  29  30
ENDBRANCH  28  29
ENDBRANCH  13  25
ENDBRANCH   4   5
BRANCH   4  36
HETATM   36  C   UNL     1      -7.863   5.813  66.501  1.00  0.00    -0.101 C  
BRANCH  36  37
HETATM   37  C   UNL     1      -9.074   5.967  65.543  1.00  0.00     0.010 C  
HETATM   38  O   UNL     1      -8.734   5.702  64.173  1.00  0.00    -0.336 OA 
HETATM   39  H   UNL     1      -9.476   5.797  63.586  1.00  0.00     0.000 HD 
BRANCH  37  40
HETATM   40  C   UNL     1     -10.249   5.045  65.886  1.00  0.00    -0.178 C  
HETATM   41  O   UNL     1     -11.371   5.834  66.296  1.00  0.00    -0.733 OA 
HETATM   42  H   UNL     1     -12.099   5.262  66.509  1.00  0.00     0.000 HD 
ENDBRANCH  37  40
ENDBRANCH  36  37
ENDBRANCH   4  36
TORSDOF 12
ENDMDL
MODEL       19
REMARK 921   NORMALIZED FREE ENERGY PREDICTED BY IDOCK:   -5.01 KCAL/MOL
REMARK 922        TOTAL FREE ENERGY PREDICTED BY IDOCK:   -9.72 KCAL/MOL
REMARK 923 INTER-LIGAND FREE ENERGY PREDICTED BY IDOCK:   -8.59 KCAL/MOL
REMARK 924 INTRA-LIGAND FREE ENERGY PREDICTED BY IDOCK:   -1.13 KCAL/MOL
REMARK 927      BINDING AFFINITY PREDICTED BY RF-SCORE:    0.00 PKD
ROOT
HETATM    1  C   UNL     1     -13.157  13.752  65.474  1.00  0.00    -0.210 C  
HETATM    2  C   UNL     1     -11.950  13.751  66.371  1.00  0.00    -0.438 C  
HETATM    3  O   UNL     1     -12.077  14.021  67.568  1.00  0.00    -0.391 OA 
HETATM    4  N   UNL     1     -10.714  13.452  65.791  1.00  0.00    -0.271 N  
ENDROOT
BRANCH   4   5
HETATM    5  C   UNL     1      -9.590  13.391  66.678  1.00  0.00    -0.270 A  
HETATM    6  C   UNL     1      -7.180  13.170  68.100  1.00  0.00    -0.117 A  
HETATM    7  C   UNL     1      -8.779  14.541  66.867  1.00  0.00    -0.211 A  
HETATM    8  C   UNL     1      -9.259  12.170  67.319  1.00  0.00    -0.185 A  
HETATM    9  I   UNL     1     -10.673  10.527  67.208  1.00  0.00    -0.264 I  
HETATM   10  I   UNL     1      -9.517  16.420  66.083  1.00  0.00    -0.263 I  
HETATM   11  C   UNL     1      -8.042  12.042  68.026  1.00  0.00    -0.153 A  
HETATM   12  I   UNL     1      -5.139  12.879  68.798  1.00  0.00    -0.069 I  
HETATM   13  C   UNL     1      -7.566  14.444  67.579  1.00  0.00    -0.212 A  
BRANCH  11  14
HETATM   14  C   UNL     1      -7.640  10.702  68.550  1.00  0.00    -0.097 C  
HETATM   15  O   UNL     1      -7.752  10.443  69.743  1.00  0.00    -0.158 OA 
HETATM   16  N   UNL     1      -7.149   9.797  67.636  1.00  0.00    -0.087 N  
HETATM   17  H   UNL     1      -7.098  10.057  66.651  1.00  0.00     0.000 HD 
BRANCH  16  18
HETATM   18  C   UNL     1      -6.699   8.469  68.053  1.00  0.00    -0.065 C  
BRANCH  18  19
HETATM   19  C   UNL     1      -6.973   7.410  66.980  1.00  0.00    -0.082 C  
HETATM   20  H   UNL     1      -6.769   5.462  66.819  1.00  0.00     0.000 HD 
HETATM   21  O   UNL     1      -6.600   6.118  67.485  1.00  0.00    -0.051 OA 
BRANCH  19  22
HETATM   22  C   UNL     1      -8.446   7.416  66.545  1.00  0.00    -0.128 C  
HETATM   23  O   UNL     1      -8.572   7.591  65.135  1.00  0.00    -0.316 OA 
HETATM   24  H   UNL     1      -9.483   7.595  64.866  1.00  0.00     0.000 HD 
ENDBRANCH  19  22
ENDBRANCH  18  19
ENDBRANCH  16  18
ENDBRANCH  11  14
BRANCH  13  25
HETATM   25  C   UNL     1      -6.711  15.644  67.868  1.00  0.00    -0.150 C  
HETATM   26  O   UNL     1      -5.824  15.955  67.080  1.00  0.00    -0.329 OA 
HETATM   27  H   UNL     1      -7.721  16.112  69.638  1.00  0.00     0.000 HD 
HETATM   28  N   UNL     1      -6.944  16.363  69.027  1.00  0.00    -0.187 N  
BRANCH  28  29
HETATM   29  C   UNL     1      -6.074  17.482  69.370  1.00  0.00    -0.245 C  
BRANCH  29  30
HETATM   30  C   UNL     1      -6.790  18.837  69.293  1.00  0.00    -0.238 C  
HETATM   31  H   UNL     1      -6.520  20.638  70.038  1.00  0.00     0.000 HD 
HETATM   32  O   UNL     1      -6.076  19.800  70.086  1.00  0.00    -0.285 OA 
BRANCH  30  33
HETATM   33  C   UNL     1      -6.896  19.326  67.839  1.00  0.00    -0.235 C  
HETATM   34  O   UNL     1      -8.038  20.160  67.650  1.00  0.00    -0.304 OA 
HETATM   35  H   UNL     1      -8.104  20.462  66.752  1.00  0.00     0.000 HD 
ENDBRANCH  30  33
ENDBRANCH  29  30
ENDBRANCH  28  29
ENDBRANCH  13  25
ENDBRANCH   4   5
BRANCH   4  36
HETATM   36  C   UNL     1     -10.496  13.147  64.349  1.00  0.00    -0.407 C  
BRANCH  36  37
HETATM   37  C   UNL     1     -10.751  11.689  63.882  1.00  0.00    -0.398 C  
HETATM   38  O   UNL     1     -11.906  11.572  63.038  1.00  0.00    -0.898 OA 
HETATM   39  H   UNL     1     -12.063  10.679  62.752  1.00  0.00     0.000 HD 
BRANCH  37  40
HETATM   40  C   UNL     1      -9.579  11.081  63.104  1.00  0.00    -0.361 C  
HETATM   41  O   UNL     1      -9.570   9.661  63.287  1.00  0.00    -0.512 OA 
HETATM   42  H   UNL     1      -8.843   9.285  62.805  1.00  0.00     0.000 HD 
ENDBRANCH  37  40
ENDBRANCH  36  37
ENDBRANCH   4  36
TORSDOF 12
ENDMDL
MODEL       20
REMARK 921   NORMALIZED FREE ENERGY PREDICTED BY IDOCK:   -5.00 KCAL/MOL
REMARK 922        TOTAL FREE ENERGY PREDICTED BY IDOCK:   -9.71 KCAL/MOL
REMARK 923 INTER-LIGAND FREE ENERGY PREDICTED BY IDOCK:   -8.97 KCAL/MOL
REMARK 924 INTRA-LIGAND FREE ENERGY PREDICTED BY IDOCK:   -0.74 KCAL/MOL
REMARK 927      BINDING AFFINITY PREDICTED BY RF-SCORE:    0.00 PKD
ROOT
HETATM    1  C   UNL     1     -11.723   5.685  72.441  1.00  0.00    -0.240 C  
HETATM    2  C   UNL     1     -11.414   6.629  71.312  1.00  0.00    -0.311 C  
HETATM    3  O   UNL     1     -11.855   6.397  70.183  1.00  0.00    -0.409 OA 
HETATM    4  N   UNL     1     -10.614   7.739  71.598  1.00  0.00    -0.212 N  
ENDROOT
BRANCH   4   5
HETATM    5  C   UNL     1     -10.391   8.659  70.522  1.00  0.00    -0.202 A  
HETATM    6  C   UNL     1      -9.734  10.663  68.669  1.00  0.00    -0.178 A  
HETATM    7  C   UNL     1      -9.266   8.488  69.672  1.00  0.00    -0.157 A  
HETATM    8  C   UNL     1     -11.258   9.766  70.344  1.00  0.00    -0.300 A  
HETATM    9  I   UNL     1     -13.098   9.833  71.493  1.00  0.00    -0.498 I  
HETATM   10  I   UNL     1      -8.168   6.628  69.834  1.00  0.00    -0.129 I  
HETATM   11  C   UNL     1     -10.931  10.789  69.425  1.00  0.00    -0.305 A  
HETATM   12  I   UNL     1      -8.998  12.400  67.584  1.00  0.00    -0.216 I  
HETATM   13  C   UNL     1      -8.924   9.486  68.737  1.00  0.00    -0.133 A  
BRANCH  11  14
HETATM   14  C   UNL     1     -11.774  12.022  69.376  1.00  0.00    -0.340 C  
HETATM   15  O   UNL     1     -12.510  12.233  68.418  1.00  0.00    -0.011 OA 
HETATM   16  N   UNL     1     -11.676  12.886  70.443  1.00  0.00    -0.546 N  
HETATM   17  H   UNL     1     -11.064  12.651  71.225  1.00  0.00     0.000 HD 
BRANCH  16  18
HETATM   18  C   UNL     1     -12.436  14.136  70.476  1.00  0.00    -0.361 C  
BRANCH  18  19
HETATM   19  C   UNL     1     -12.434  14.769  71.871  1.00  0.00    -0.340 C  
HETATM   20  H   UNL     1     -12.007  16.529  72.634  1.00  0.00     0.000 HD 
HETATM   21  O   UNL     1     -12.008  16.137  71.770  1.00  0.00    -0.474 OA 
BRANCH  19  22
HETATM   22  C   UNL     1     -13.818  14.681  72.532  1.00  0.00    -0.458 C  
HETATM   23  O   UNL     1     -14.256  13.327  72.644  1.00  0.00    -0.724 OA 
HETATM   24  H   UNL     1     -15.113  13.273  73.052  1.00  0.00     0.000 HD 
ENDBRANCH  19  22
ENDBRANCH  18  19
ENDBRANCH  16  18
ENDBRANCH  11  14
BRANCH  13  25
HETATM   25  C   UNL     1      -7.791   9.320  67.767  1.00  0.00    -0.092 C  
HETATM   26  O   UNL     1      -6.646   9.563  68.133  1.00  0.00    -0.061 OA 
HETATM   27  H   UNL     1      -9.029   8.659  66.217  1.00  0.00     0.000 HD 
HETATM   28  N   UNL     1      -8.073   8.903  66.479  1.00  0.00    -0.106 N  
BRANCH  28  29
HETATM   29  C   UNL     1      -6.999   8.814  65.496  1.00  0.00    -0.076 C  
BRANCH  29  30
HETATM   30  C   UNL     1      -7.518   8.749  64.053  1.00  0.00    -0.116 C  
HETATM   31  H   UNL     1      -8.184   7.353  62.838  1.00  0.00     0.000 HD 
HETATM   32  O   UNL     1      -7.864   7.392  63.731  1.00  0.00    -0.120 OA 
BRANCH  30  33
HETATM   33  C   UNL     1      -8.739   9.664  63.862  1.00  0.00    -0.221 C  
HETATM   34  O   UNL     1      -9.533   9.250  62.751  1.00  0.00    -0.528 OA 
HETATM   35  H   UNL     1     -10.288   9.815  62.633  1.00  0.00     0.000 HD 
ENDBRANCH  30  33
ENDBRANCH  29  30
ENDBRANCH  28  29
ENDBRANCH  13  25
ENDBRANCH   4   5
BRANCH   4  36
HETATM   36  C   UNL     1     -10.032   8.054  72.932  1.00  0.00    -0.290 C  
BRANCH  36  37
HETATM   37  C   UNL     1      -8.524   7.752  73.141  1.00  0.00    -0.163 C  
HETATM   38  O   UNL     1      -7.695   8.910  72.955  1.00  0.00    -0.371 OA 
HETATM   39  H   UNL     1      -6.772   8.725  73.083  1.00  0.00     0.000 HD 
BRANCH  37  40
HETATM   40  C   UNL     1      -8.196   7.200  74.532  1.00  0.00    -0.173 C  
HETATM   41  O   UNL     1      -8.373   5.779  74.536  1.00  0.00    -0.111 OA 
HETATM   42  H   UNL     1      -8.171   5.438  75.399  1.00  0.00     0.000 HD 
ENDBRANCH  37  40
ENDBRANCH  36  37
ENDBRANCH   4  36
TORSDOF 12
ENDMDL
MODEL       21
REMARK 921   NORMALIZED FREE ENERGY PREDICTED BY IDOCK:   -4.99 KCAL/MOL
REMARK 922        TOTAL FREE ENERGY PREDICTED BY IDOCK:   -9.70 KCAL/MOL
REMARK 923 INTER-LIGAND FREE ENERGY PREDICTED BY IDOCK:   -8.02 KCAL/MOL
REMARK 924 INTRA-LIGAND FREE ENERGY PREDICTED BY IDOCK:   -1.68 KCAL/MOL
REMARK 927      BINDING AFFINITY PREDICTED BY RF-SCORE:    0.00 PKD
ROOT
HETATM    1  C   UNL     1     -12.675  13.504  64.983  1.00  0.00    -0.399 C  
HETATM    2  C   UNL     1     -11.254  13.532  65.473  1.00  0.00    -0.292 C  
HETATM    3  O   UNL     1     -10.325  13.473  64.663  1.00  0.00    -0.408 OA 
HETATM    4  N   UNL     1     -11.048  13.609  66.854  1.00  0.00    -0.299 N  
ENDROOT
BRANCH   4   5
HETATM    5  C   UNL     1      -9.687  13.702  67.292  1.00  0.00    -0.243 A  
HETATM    6  C   UNL     1      -7.169  13.931  68.512  1.00  0.00    -0.107 A  
HETATM    7  C   UNL     1      -9.001  12.531  67.710  1.00  0.00    -0.184 A  
HETATM    8  C   UNL     1      -9.050  14.967  67.362  1.00  0.00    -0.186 A  
HETATM    9  I   UNL     1     -10.044  16.676  66.469  1.00  0.00    -0.328 I  
HETATM   10  I   UNL     1      -9.944  10.625  67.302  1.00  0.00    -0.261 I  
HETATM   11  C   UNL     1      -7.788  15.097  67.986  1.00  0.00    -0.135 A  
HETATM   12  I   UNL     1      -5.460  14.165  69.838  1.00  0.00    -0.123 I  
HETATM   13  C   UNL     1      -7.735  12.631  68.323  1.00  0.00    -0.135 A  
BRANCH  11  14
HETATM   14  C   UNL     1      -7.215  16.461  68.194  1.00  0.00    -0.143 C  
HETATM   15  O   UNL     1      -7.489  17.103  69.203  1.00  0.00    -0.232 OA 
HETATM   16  N   UNL     1      -6.382  16.944  67.210  1.00  0.00    -0.153 N  
HETATM   17  H   UNL     1      -6.170  16.359  66.401  1.00  0.00     0.000 HD 
BRANCH  16  18
HETATM   18  C   UNL     1      -5.795  18.281  67.304  1.00  0.00    -0.138 C  
BRANCH  18  19
HETATM   19  C   UNL     1      -6.488  19.276  66.368  1.00  0.00    -0.187 C  
HETATM   20  H   UNL     1      -7.391  19.197  64.624  1.00  0.00     0.000 HD 
HETATM   21  O   UNL     1      -6.961  18.580  65.204  1.00  0.00    -0.516 OA 
BRANCH  19  22
HETATM   22  C   UNL     1      -7.645  20.000  67.073  1.00  0.00    -0.282 C  
HETATM   23  O   UNL     1      -8.693  20.320  66.159  1.00  0.00    -0.553 OA 
HETATM   24  H   UNL     1      -9.409  20.768  66.595  1.00  0.00     0.000 HD 
ENDBRANCH  19  22
ENDBRANCH  18  19
ENDBRANCH  16  18
ENDBRANCH  11  14
BRANCH  13  25
HETATM   25  C   UNL     1      -6.938  11.421  68.715  1.00  0.00    -0.097 C  
HETATM   26  O   UNL     1      -6.159  10.928  67.907  1.00  0.00    -0.050 OA 
HETATM   27  H   UNL     1      -7.730  11.351  70.649  1.00  0.00     0.000 HD 
HETATM   28  N   UNL     1      -7.113  10.890  69.980  1.00  0.00    -0.062 N  
BRANCH  28  29
HETATM   29  C   UNL     1      -6.412   9.667  70.353  1.00  0.00    -0.088 C  
BRANCH  29  30
HETATM   30  C   UNL     1      -7.364   8.492  70.616  1.00  0.00    -0.061 C  
HETATM   31  H   UNL     1      -9.304   8.251  70.839  1.00  0.00     0.000 HD 
HETATM   32  O   UNL     1      -8.715   8.978  70.677  1.00  0.00    -0.173 OA 
BRANCH  30  33
HETATM   33  C   UNL     1      -7.238   7.421  69.518  1.00  0.00    -0.082 C  
HETATM   34  O   UNL     1      -7.315   7.997  68.216  1.00  0.00    -0.090 OA 
HETATM   35  H   UNL     1      -7.238   7.336  67.538  1.00  0.00     0.000 HD 
ENDBRANCH  30  33
ENDBRANCH  29  30
ENDBRANCH  28  29
ENDBRANCH  13  25
ENDBRANCH   4   5
BRANCH   4  36
HETATM   36  C   UNL     1     -12.128  13.654  67.879  1.00  0.00    -0.283 C  
BRANCH  36  37
HETATM   37  C   UNL     1     -11.807  14.364  69.222  1.00  0.00    -0.325 C  
HETATM   38  O   UNL     1     -12.520  15.600  69.379  1.00  0.00    -0.580 OA 
HETATM   39  H   UNL     1     -12.324  16.035  70.201  1.00  0.00     0.000 HD 
BRANCH  37  40
HETATM   40  C   UNL     1     -12.129  13.515  70.456  1.00  0.00    -0.335 C  
HETATM   41  O   UNL     1     -11.445  12.260  70.364  1.00  0.00    -0.491 OA 
HETATM   42  H   UNL     1     -11.645  11.734  71.129  1.00  0.00     0.000 HD 
ENDBRANCH  37  40
ENDBRANCH  36  37
ENDBRANCH   4  36
TORSDOF 12
ENDMDL
MODEL       22
REMARK 921   NORMALIZED FREE ENERGY PREDICTED BY IDOCK:   -4.98 KCAL/MOL
REMARK 922        TOTAL FREE ENERGY PREDICTED BY IDOCK:   -9.67 KCAL/MOL
REMARK 923 INTER-LIGAND FREE ENERGY PREDICTED BY IDOCK:  -10.41 KCAL/MOL
REMARK 924 INTRA-LIGAND FREE ENERGY PREDICTED BY IDOCK:    0.74 KCAL/MOL
REMARK 927      BINDING AFFINITY PREDICTED BY RF-SCORE:    0.00 PKD
ROOT
HETATM    1  C   UNL     1     -10.721  13.728  64.521  1.00  0.00    -0.405 C  
HETATM    2  C   UNL     1     -11.190  12.821  65.625  1.00  0.00    -0.301 C  
HETATM    3  O   UNL     1     -12.315  12.317  65.567  1.00  0.00    -0.602 OA 
HETATM    4  N   UNL     1     -10.317  12.601  66.694  1.00  0.00    -0.235 N  
ENDROOT
BRANCH   4   5
HETATM    5  C   UNL     1     -10.760  11.681  67.701  1.00  0.00    -0.207 A  
HETATM    6  C   UNL     1     -11.290   9.961  69.855  1.00  0.00    -0.222 A  
HETATM    7  C   UNL     1     -11.500  12.159  68.815  1.00  0.00    -0.307 A  
HETATM    8  C   UNL     1     -10.410  10.310  67.610  1.00  0.00    -0.220 A  
HETATM    9  I   UNL     1      -9.515   9.591  65.769  1.00  0.00    -0.308 I  
HETATM   10  I   UNL     1     -12.229  14.196  68.727  1.00  0.00     0.307 I  
HETATM   11  C   UNL     1     -10.659   9.437  68.693  1.00  0.00    -0.230 A  
HETATM   12  I   UNL     1     -11.291   8.762  71.671  1.00  0.00    -0.457 I  
HETATM   13  C   UNL     1     -11.773  11.305  69.903  1.00  0.00    -0.430 A  
BRANCH  11  14
HETATM   14  C   UNL     1     -10.133   8.040  68.639  1.00  0.00    -0.199 C  
HETATM   15  O   UNL     1      -9.034   7.771  69.112  1.00  0.00    -0.145 OA 
HETATM   16  N   UNL     1     -10.935   7.094  68.041  1.00  0.00    -0.475 N  
HETATM   17  H   UNL     1     -11.851   7.368  67.683  1.00  0.00     0.000 HD 
BRANCH  16  18
HETATM   18  C   UNL     1     -10.498   5.704  67.909  1.00  0.00    -0.211 C  
BRANCH  18  19
HETATM   19  C   UNL     1      -9.619   5.497  66.671  1.00  0.00    -0.151 C  
HETATM   20  H   UNL     1      -7.726   5.105  66.321  1.00  0.00     0.000 HD 
HETATM   21  O   UNL     1      -8.270   5.234  67.088  1.00  0.00    -0.107 OA 
BRANCH  19  22
HETATM   22  C   UNL     1     -10.146   4.353  65.792  1.00  0.00    -0.245 C  
HETATM   23  O   UNL     1     -11.476   4.611  65.343  1.00  0.00    -1.018 OA 
HETATM   24  H   UNL     1     -11.802   3.903  64.800  1.00  0.00     0.000 HD 
ENDBRANCH  19  22
ENDBRANCH  18  19
ENDBRANCH  16  18
ENDBRANCH  11  14
BRANCH  13  25
HETATM   25  C   UNL     1     -12.613  11.740  71.069  1.00  0.00    -0.310 C  
HETATM   26  O   UNL     1     -13.411  10.951  71.563  1.00  0.00    -0.328 OA 
HETATM   27  H   UNL     1     -11.759  13.648  71.152  1.00  0.00     0.000 HD 
HETATM   28  N   UNL     1     -12.467  13.029  71.550  1.00  0.00    -0.166 N  
BRANCH  28  29
HETATM   29  C   UNL     1     -13.329  13.501  72.627  1.00  0.00    -0.437 C  
BRANCH  29  30
HETATM   30  C   UNL     1     -13.107  14.982  72.961  1.00  0.00    -0.504 C  
HETATM   31  H   UNL     1     -12.524  16.020  74.528  1.00  0.00     0.000 HD 
HETATM   32  O   UNL     1     -12.661  15.103  74.322  1.00  0.00    -0.535 OA 
BRANCH  30  33
HETATM   33  C   UNL     1     -12.078  15.616  72.011  1.00  0.00    -0.443 C  
HETATM   34  O   UNL     1     -11.813  16.974  72.358  1.00  0.00    -0.393 OA 
HETATM   35  H   UNL     1     -11.177  17.366  71.771  1.00  0.00     0.000 HD 
ENDBRANCH  30  33
ENDBRANCH  29  30
ENDBRANCH  28  29
ENDBRANCH  13  25
ENDBRANCH   4   5
BRANCH   4  36
HETATM   36  C   UNL     1      -8.963  13.205  66.833  1.00  0.00    -0.209 C  
BRANCH  36  37
HETATM   37  C   UNL     1      -8.833  14.469  67.724  1.00  0.00    -0.183 C  
HETATM   38  O   UNL     1      -8.483  14.157  69.081  1.00  0.00    -0.356 OA 
HETATM   39  H   UNL     1      -8.404  14.931  69.626  1.00  0.00     0.000 HD 
BRANCH  37  40
HETATM   40  C   UNL     1      -7.784  15.467  67.222  1.00  0.00    -0.212 C  
HETATM   41  O   UNL     1      -8.263  16.802  67.417  1.00  0.00    -0.171 OA 
HETATM   42  H   UNL     1      -7.614  17.421  67.106  1.00  0.00     0.000 HD 
ENDBRANCH  37  40
ENDBRANCH  36  37
ENDBRANCH   4  36
TORSDOF 12
ENDMDL
MODEL       23
REMARK 921   NORMALIZED FREE ENERGY PREDICTED BY IDOCK:   -4.93 KCAL/MOL
REMARK 922        TOTAL FREE ENERGY PREDICTED BY IDOCK:   -9.60 KCAL/MOL
REMARK 923 INTER-LIGAND FREE ENERGY PREDICTED BY IDOCK:   -8.47 KCAL/MOL
REMARK 924 INTRA-LIGAND FREE ENERGY PREDICTED BY IDOCK:   -1.12 KCAL/MOL
REMARK 927      BINDING AFFINITY PREDICTED BY RF-SCORE:    0.00 PKD
ROOT
HETATM    1  C   UNL     1     -12.715  11.912  64.143  1.00  0.00    -0.275 C  
HETATM    2  C   UNL     1     -11.864  12.277  65.328  1.00  0.00    -0.355 C  
HETATM    3  O   UNL     1     -12.393  12.481  66.423  1.00  0.00    -0.537 OA 
HETATM    4  N   UNL     1     -10.485  12.383  65.123  1.00  0.00    -0.284 N  
ENDROOT
BRANCH   4   5
HETATM    5  C   UNL     1      -9.687  12.665  66.280  1.00  0.00    -0.259 A  
HETATM    6  C   UNL     1      -7.817  13.192  68.306  1.00  0.00    -0.143 A  
HETATM    7  C   UNL     1      -9.355  14.009  66.596  1.00  0.00    -0.277 A  
HETATM    8  C   UNL     1      -9.187  11.600  67.072  1.00  0.00    -0.183 A  
HETATM    9  I   UNL     1      -9.937   9.597  66.705  1.00  0.00    -0.308 I  
HETATM   10  I   UNL     1     -10.390  15.572  65.511  1.00  0.00    -0.398 I  
HETATM   11  C   UNL     1      -8.234  11.851  68.085  1.00  0.00    -0.158 A  
HETATM   12  I   UNL     1      -6.062  13.549  69.542  1.00  0.00    -0.096 I  
HETATM   13  C   UNL     1      -8.417  14.288  67.611  1.00  0.00    -0.185 A  
BRANCH  11  14
HETATM   14  C   UNL     1      -7.600  10.698  68.792  1.00  0.00    -0.109 C  
HETATM   15  O   UNL     1      -6.603  10.156  68.326  1.00  0.00    -0.054 OA 
HETATM   16  N   UNL     1      -8.187  10.288  69.968  1.00  0.00    -0.349 N  
HETATM   17  H   UNL     1      -9.002  10.789  70.322  1.00  0.00     0.000 HD 
BRANCH  16  18
HETATM   18  C   UNL     1      -7.661   9.148  70.719  1.00  0.00    -0.133 C  
BRANCH  18  19
HETATM   19  C   UNL     1      -8.775   8.198  71.169  1.00  0.00    -0.138 C  
HETATM   20  H   UNL     1      -9.346   7.374  72.860  1.00  0.00     0.000 HD 
HETATM   21  O   UNL     1      -8.655   7.963  72.581  1.00  0.00    -0.124 OA 
BRANCH  19  22
HETATM   22  C   UNL     1     -10.164   8.758  70.830  1.00  0.00    -0.226 C  
HETATM   23  O   UNL     1     -10.916   7.843  70.034  1.00  0.00    -0.256 OA 
HETATM   24  H   UNL     1     -11.775   8.190  69.824  1.00  0.00     0.000 HD 
ENDBRANCH  19  22
ENDBRANCH  18  19
ENDBRANCH  16  18
ENDBRANCH  11  14
BRANCH  13  25
HETATM   25  C   UNL     1      -8.088  15.691  68.032  1.00  0.00    -0.136 C  
HETATM   26  O   UNL     1      -8.674  16.185  68.989  1.00  0.00    -0.235 OA 
HETATM   27  H   UNL     1      -6.626  15.940  66.558  1.00  0.00     0.000 HD 
HETATM   28  N   UNL     1      -7.134  16.393  67.317  1.00  0.00    -0.162 N  
BRANCH  28  29
HETATM   29  C   UNL     1      -6.857  17.784  67.656  1.00  0.00    -0.180 C  
BRANCH  29  30
HETATM   30  C   UNL     1      -7.377  18.768  66.599  1.00  0.00    -0.225 C  
HETATM   31  H   UNL     1      -7.692  18.739  64.657  1.00  0.00     0.000 HD 
HETATM   32  O   UNL     1      -7.370  18.130  65.310  1.00  0.00    -0.408 OA 
BRANCH  30  33
HETATM   33  C   UNL     1      -8.797  19.250  66.940  1.00  0.00    -0.303 C  
HETATM   34  O   UNL     1      -8.787  20.578  67.460  1.00  0.00    -0.322 OA 
HETATM   35  H   UNL     1      -9.664  20.876  67.671  1.00  0.00     0.000 HD 
ENDBRANCH  30  33
ENDBRANCH  29  30
ENDBRANCH  28  29
ENDBRANCH  13  25
ENDBRANCH   4   5
BRANCH   4  36
HETATM   36  C   UNL     1      -9.794  12.177  63.820  1.00  0.00    -0.234 C  
BRANCH  36  37
HETATM   37  C   UNL     1      -9.438  10.718  63.424  1.00  0.00    -0.316 C  
HETATM   38  O   UNL     1     -10.245  10.224  62.345  1.00  0.00    -0.673 OA 
HETATM   39  H   UNL     1     -10.027   9.332  62.103  1.00  0.00     0.000 HD 
BRANCH  37  40
HETATM   40  C   UNL     1      -7.978  10.539  62.995  1.00  0.00    -0.102 C  
HETATM   41  O   UNL     1      -7.143  10.477  64.156  1.00  0.00    -0.329 OA 
HETATM   42  H   UNL     1      -6.238  10.367  63.890  1.00  0.00     0.000 HD 
ENDBRANCH  37  40
ENDBRANCH  36  37
ENDBRANCH   4  36
TORSDOF 12
ENDMDL
MODEL       24
REMARK 921   NORMALIZED FREE ENERGY PREDICTED BY IDOCK:   -4.89 KCAL/MOL
REMARK 922        TOTAL FREE ENERGY PREDICTED BY IDOCK:   -9.53 KCAL/MOL
REMARK 923 INTER-LIGAND FREE ENERGY PREDICTED BY IDOCK:   -8.73 KCAL/MOL
REMARK 924 INTRA-LIGAND FREE ENERGY PREDICTED BY IDOCK:   -0.79 KCAL/MOL
REMARK 927      BINDING AFFINITY PREDICTED BY RF-SCORE:    0.00 PKD
ROOT
HETATM    1  C   UNL     1      -5.311   4.972  67.161  1.00  0.00    -0.012 C  
HETATM    2  C   UNL     1      -6.073   6.169  67.660  1.00  0.00    -0.018 C  
HETATM    3  O   UNL     1      -5.483   7.050  68.292  1.00  0.00    -0.018 OA 
HETATM    4  N   UNL     1      -7.443   6.220  67.390  1.00  0.00    -0.083 N  
ENDROOT
BRANCH   4   5
HETATM    5  C   UNL     1      -8.134   7.401  67.816  1.00  0.00    -0.119 A  
HETATM    6  C   UNL     1      -9.799   9.566  68.466  1.00  0.00    -0.158 A  
HETATM    7  C   UNL     1      -8.843   7.397  69.047  1.00  0.00    -0.132 A  
HETATM    8  C   UNL     1      -8.155   8.549  66.984  1.00  0.00    -0.103 A  
HETATM    9  I   UNL     1      -6.847   8.595  65.253  1.00  0.00    -0.072 I  
HETATM   10  I   UNL     1      -8.521   5.718  70.376  1.00  0.00    -0.137 I  
HETATM   11  C   UNL     1      -9.000   9.639  67.293  1.00  0.00    -0.146 A  
HETATM   12  I   UNL     1     -11.402  11.015  68.729  1.00  0.00    -0.417 I  
HETATM   13  C   UNL     1      -9.682   8.478  69.386  1.00  0.00    -0.177 A  
BRANCH  11  14
HETATM   14  C   UNL     1      -9.128  10.762  66.316  1.00  0.00    -0.175 C  
HETATM   15  O   UNL     1      -8.320  11.684  66.320  1.00  0.00    -0.135 OA 
HETATM   16  N   UNL     1     -10.181  10.702  65.431  1.00  0.00    -0.281 N  
HETATM   17  H   UNL     1     -10.812   9.900  65.456  1.00  0.00     0.000 HD 
BRANCH  16  18
HETATM   18  C   UNL     1     -10.412  11.768  64.456  1.00  0.00    -0.304 C  
BRANCH  18  19
HETATM   19  C   UNL     1     -11.893  12.151  64.368  1.00  0.00    -0.358 C  
HETATM   20  H   UNL     1     -13.229  12.950  65.567  1.00  0.00     0.000 HD 
HETATM   21  O   UNL     1     -12.311  12.712  65.622  1.00  0.00    -0.581 OA 
BRANCH  19  22
HETATM   22  C   UNL     1     -12.151  13.138  63.220  1.00  0.00    -0.386 C  
HETATM   23  O   UNL     1     -12.324  14.469  63.707  1.00  0.00    -1.013 OA 
HETATM   24  H   UNL     1     -12.484  15.080  62.997  1.00  0.00     0.000 HD 
ENDBRANCH  19  22
ENDBRANCH  18  19
ENDBRANCH  16  18
ENDBRANCH  11  14
BRANCH  13  25
HETATM   25  C   UNL     1     -10.394   8.554  70.706  1.00  0.00    -0.198 C  
HETATM   26  O   UNL     1      -9.840   9.095  71.657  1.00  0.00    -0.305 OA 
HETATM   27  H   UNL     1     -12.115   7.605  69.992  1.00  0.00     0.000 HD 
HETATM   28  N   UNL     1     -11.658   8.002  70.813  1.00  0.00    -0.272 N  
BRANCH  28  29
HETATM   29  C   UNL     1     -12.334   7.992  72.105  1.00  0.00    -0.315 C  
BRANCH  29  30
HETATM   30  C   UNL     1     -13.709   8.672  72.061  1.00  0.00    -0.426 C  
HETATM   31  H   UNL     1     -15.093   9.176  73.366  1.00  0.00     0.000 HD 
HETATM   32  O   UNL     1     -14.243   8.756  73.393  1.00  0.00    -0.128 OA 
BRANCH  30  33
HETATM   33  C   UNL     1     -13.613  10.077  71.443  1.00  0.00    -0.188 C  
HETATM   34  O   UNL     1     -13.246  11.052  72.417  1.00  0.00    -0.565 OA 
HETATM   35  H   UNL     1     -13.186  11.920  72.036  1.00  0.00     0.000 HD 
ENDBRANCH  30  33
ENDBRANCH  29  30
ENDBRANCH  28  29
ENDBRANCH  13  25
ENDBRANCH   4   5
BRANCH   4  36
HETATM   36  C   UNL     1      -8.212   5.175  66.659  1.00  0.00    -0.108 C  
BRANCH  36  37
HETATM   37  C   UNL     1      -9.451   5.638  65.847  1.00  0.00    -0.067 C  
HETATM   38  O   UNL     1      -9.550   4.992  64.569  1.00  0.00    -0.358 OA 
HETATM   39  H   UNL     1     -10.308   5.276  64.072  1.00  0.00     0.000 HD 
BRANCH  37  40
HETATM   40  C   UNL     1     -10.782   5.390  66.565  1.00  0.00    -0.240 C  
HETATM   41  O   UNL     1     -11.409   6.644  66.854  1.00  0.00    -0.738 OA 
HETATM   42  H   UNL     1     -12.234   6.491  67.299  1.00  0.00     0.000 HD 
ENDBRANCH  37  40
ENDBRANCH  36  37
ENDBRANCH   4  36
TORSDOF 12
ENDMDL
MODEL       25
REMARK 921   NORMALIZED FREE ENERGY PREDICTED BY IDOCK:   -4.88 KCAL/MOL
REMARK 922        TOTAL FREE ENERGY PREDICTED BY IDOCK:   -9.51 KCAL/MOL
REMARK 923 INTER-LIGAND FREE ENERGY PREDICTED BY IDOCK:   -8.76 KCAL/MOL
REMARK 924 INTRA-LIGAND FREE ENERGY PREDICTED BY IDOCK:   -0.75 KCAL/MOL
REMARK 927      BINDING AFFINITY PREDICTED BY RF-SCORE:    0.00 PKD
ROOT
HETATM    1  C   UNL     1      -6.254   4.050  64.655  1.00  0.00    -0.023 C  
HETATM    2  C   UNL     1      -6.877   5.088  65.547  1.00  0.00    -0.061 C  
HETATM    3  O   UNL     1      -6.237   5.540  66.500  1.00  0.00    -0.029 OA 
HETATM    4  N   UNL     1      -8.184   5.490  65.255  1.00  0.00    -0.129 N  
ENDROOT
BRANCH   4   5
HETATM    5  C   UNL     1      -8.731   6.528  66.077  1.00  0.00    -0.148 A  
HETATM    6  C   UNL     1      -9.443   8.598  67.835  1.00  0.00    -0.139 A  
HETATM    7  C   UNL     1      -8.696   7.875  65.627  1.00  0.00    -0.116 A  
HETATM    8  C   UNL     1      -9.254   6.217  67.358  1.00  0.00    -0.112 A  
HETATM    9  I   UNL     1      -9.526   4.129  67.883  1.00  0.00    -0.134 I  
HETATM   10  I   UNL     1      -8.149   8.220  63.560  1.00  0.00     0.036 I  
HETATM   11  C   UNL     1      -9.602   7.250  68.257  1.00  0.00    -0.150 A  
HETATM   12  I   UNL     1      -9.557  10.179  69.326  1.00  0.00    -0.216 I  
HETATM   13  C   UNL     1      -9.051   8.924  66.499  1.00  0.00    -0.206 A  
BRANCH  11  14
HETATM   14  C   UNL     1      -9.993   6.898  69.656  1.00  0.00    -0.171 C  
HETATM   15  O   UNL     1      -9.144   6.540  70.465  1.00  0.00    -0.151 OA 
HETATM   16  N   UNL     1     -11.328   6.999  69.974  1.00  0.00    -0.432 N  
HETATM   17  H   UNL     1     -11.989   7.324  69.268  1.00  0.00     0.000 HD 
BRANCH  16  18
HETATM   18  C   UNL     1     -11.817   6.647  71.308  1.00  0.00    -0.350 C  
BRANCH  18  19
HETATM   19  C   UNL     1     -12.099   7.889  72.159  1.00  0.00    -0.326 C  
HETATM   20  H   UNL     1     -11.045   9.365  72.914  1.00  0.00     0.000 HD 
HETATM   21  O   UNL     1     -10.870   8.595  72.387  1.00  0.00    -0.343 OA 
BRANCH  19  22
HETATM   22  C   UNL     1     -13.134   8.806  71.490  1.00  0.00    -0.318 C  
HETATM   23  O   UNL     1     -14.220   8.057  70.947  1.00  0.00    -0.638 OA 
HETATM   24  H   UNL     1     -14.860   8.624  70.533  1.00  0.00     0.000 HD 
ENDBRANCH  19  22
ENDBRANCH  18  19
ENDBRANCH  16  18
ENDBRANCH  11  14
BRANCH  13  25
HETATM   25  C   UNL     1      -9.100  10.355  66.049  1.00  0.00    -0.162 C  
HETATM   26  O   UNL     1      -8.073  11.025  66.060  1.00  0.00    -0.159 OA 
HETATM   27  H   UNL     1     -11.140  10.288  65.594  1.00  0.00     0.000 HD 
HETATM   28  N   UNL     1     -10.313  10.883  65.642  1.00  0.00    -0.254 N  
BRANCH  28  29
HETATM   29  C   UNL     1     -10.402  12.292  65.279  1.00  0.00    -0.281 C  
BRANCH  29  30
HETATM   30  C   UNL     1     -10.849  12.505  63.826  1.00  0.00    -0.446 C  
HETATM   31  H   UNL     1     -10.332  11.811  62.059  1.00  0.00     0.000 HD 
HETATM   32  O   UNL     1     -10.055  11.679  62.957  1.00  0.00    -0.370 OA 
BRANCH  30  33
HETATM   33  C   UNL     1     -12.340  12.172  63.651  1.00  0.00    -0.568 C  
HETATM   34  O   UNL     1     -12.558  11.324  62.525  1.00  0.00    -0.587 OA 
HETATM   35  H   UNL     1     -13.479  11.119  62.416  1.00  0.00     0.000 HD 
ENDBRANCH  30  33
ENDBRANCH  29  30
ENDBRANCH  28  29
ENDBRANCH  13  25
ENDBRANCH   4   5
BRANCH   4  36
HETATM   36  C   UNL     1      -9.014   4.959  64.137  1.00  0.00    -0.048 C  
BRANCH  36  37
HETATM   37  C   UNL     1     -10.035   3.841  64.476  1.00  0.00    -0.201 C  
HETATM   38  O   UNL     1     -11.355   4.350  64.718  1.00  0.00    -0.952 OA 
HETATM   39  H   UNL     1     -11.981   3.666  64.925  1.00  0.00     0.000 HD 
BRANCH  37  40
HETATM   40  C   UNL     1     -10.171   2.783  63.376  1.00  0.00    -0.166 C  
HETATM   41  O   UNL     1     -10.925   1.671  63.873  1.00  0.00    -0.409 OA 
HETATM   42  H   UNL     1     -11.009   1.015  63.191  1.00  0.00     0.000 HD 
ENDBRANCH  37  40
ENDBRANCH  36  37
ENDBRANCH   4  36
TORSDOF 12
ENDMDL
MODEL       26
REMARK 921   NORMALIZED FREE ENERGY PREDICTED BY IDOCK:   -4.87 KCAL/MOL
REMARK 922        TOTAL FREE ENERGY PREDICTED BY IDOCK:   -9.48 KCAL/MOL
REMARK 923 INTER-LIGAND FREE ENERGY PREDICTED BY IDOCK:   -8.27 KCAL/MOL
REMARK 924 INTRA-LIGAND FREE ENERGY PREDICTED BY IDOCK:   -1.21 KCAL/MOL
REMARK 927      BINDING AFFINITY PREDICTED BY RF-SCORE:    0.00 PKD
ROOT
HETATM    1  C   UNL     1     -11.730  14.284  65.117  1.00  0.00    -0.368 C  
HETATM    2  C   UNL     1     -11.569  12.920  65.729  1.00  0.00    -0.368 C  
HETATM    3  O   UNL     1     -12.497  12.109  65.669  1.00  0.00    -0.501 OA 
HETATM    4  N   UNL     1     -10.356  12.636  66.364  1.00  0.00    -0.245 N  
ENDROOT
BRANCH   4   5
HETATM    5  C   UNL     1     -10.201  11.308  66.880  1.00  0.00    -0.219 A  
HETATM    6  C   UNL     1      -9.539   8.821  68.001  1.00  0.00    -0.142 A  
HETATM    7  C   UNL     1     -10.548  11.032  68.229  1.00  0.00    -0.187 A  
HETATM    8  C   UNL     1      -9.651  10.290  66.061  1.00  0.00    -0.206 A  
HETATM    9  I   UNL     1      -9.389  10.693  63.945  1.00  0.00    -0.357 I  
HETATM   10  I   UNL     1     -11.639  12.560  69.310  1.00  0.00    -0.284 I  
HETATM   11  C   UNL     1      -9.300   9.039  66.617  1.00  0.00    -0.229 A  
HETATM   12  I   UNL     1      -8.626   7.094  68.959  1.00  0.00    -0.126 I  
HETATM   13  C   UNL     1     -10.221   9.788  68.805  1.00  0.00    -0.210 A  
BRANCH  11  14
HETATM   14  C   UNL     1      -8.571   8.044  65.773  1.00  0.00    -0.153 C  
HETATM   15  O   UNL     1      -7.410   8.248  65.436  1.00  0.00    -0.079 OA 
HETATM   16  N   UNL     1      -9.264   6.913  65.405  1.00  0.00    -0.279 N  
HETATM   17  H   UNL     1     -10.222   6.782  65.731  1.00  0.00     0.000 HD 
BRANCH  16  18
HETATM   18  C   UNL     1      -8.650   5.894  64.553  1.00  0.00     0.065 C  
BRANCH  18  19
HETATM   19  C   UNL     1      -8.600   4.527  65.243  1.00  0.00    -0.128 C  
HETATM   20  H   UNL     1      -7.340   3.565  66.405  1.00  0.00     0.000 HD 
HETATM   21  O   UNL     1      -7.371   4.412  65.977  1.00  0.00    -0.074 OA 
BRANCH  19  22
HETATM   22  C   UNL     1      -9.806   4.321  66.172  1.00  0.00    -0.221 C  
HETATM   23  O   UNL     1     -11.038   4.498  65.473  1.00  0.00    -0.820 OA 
HETATM   24  H   UNL     1     -11.783   4.371  66.048  1.00  0.00     0.000 HD 
ENDBRANCH  19  22
ENDBRANCH  18  19
ENDBRANCH  16  18
ENDBRANCH  11  14
BRANCH  13  25
HETATM   25  C   UNL     1     -10.630   9.421  70.202  1.00  0.00    -0.240 C  
HETATM   26  O   UNL     1      -9.833   9.571  71.121  1.00  0.00    -0.251 OA 
HETATM   27  H   UNL     1     -12.560   8.848  69.636  1.00  0.00     0.000 HD 
HETATM   28  N   UNL     1     -11.901   8.914  70.411  1.00  0.00    -0.061 N  
BRANCH  28  29
HETATM   29  C   UNL     1     -12.292   8.474  71.746  1.00  0.00    -0.338 C  
BRANCH  29  30
HETATM   30  C   UNL     1     -12.226   6.950  71.912  1.00  0.00    -0.332 C  
HETATM   31  H   UNL     1     -11.847   5.404  70.755  1.00  0.00     0.000 HD 
HETATM   32  O   UNL     1     -11.888   6.347  70.652  1.00  0.00    -0.367 OA 
BRANCH  30  33
HETATM   33  C   UNL     1     -11.193   6.553  72.980  1.00  0.00    -0.142 C  
HETATM   34  O   UNL     1     -11.552   5.333  73.627  1.00  0.00    -0.409 OA 
HETATM   35  H   UNL     1     -10.914   5.088  74.286  1.00  0.00     0.000 HD 
ENDBRANCH  30  33
ENDBRANCH  29  30
ENDBRANCH  28  29
ENDBRANCH  13  25
ENDBRANCH   4   5
BRANCH   4  36
HETATM   36  C   UNL     1      -9.214  13.584  66.493  1.00  0.00    -0.173 C  
BRANCH  36  37
HETATM   37  C   UNL     1      -8.086  13.209  67.490  1.00  0.00    -0.181 C  
HETATM   38  O   UNL     1      -6.918  12.691  66.836  1.00  0.00    -0.370 OA 
HETATM   39  H   UNL     1      -6.227  12.461  67.446  1.00  0.00     0.000 HD 
BRANCH  37  40
HETATM   40  C   UNL     1      -7.616  14.385  68.353  1.00  0.00    -0.122 C  
HETATM   41  O   UNL     1      -8.623  15.403  68.363  1.00  0.00    -0.154 OA 
HETATM   42  H   UNL     1      -8.331  16.131  68.898  1.00  0.00     0.000 HD 
ENDBRANCH  37  40
ENDBRANCH  36  37
ENDBRANCH   4  36
TORSDOF 12
ENDMDL
MODEL       27
REMARK 921   NORMALIZED FREE ENERGY PREDICTED BY IDOCK:   -4.86 KCAL/MOL
REMARK 922        TOTAL FREE ENERGY PREDICTED BY IDOCK:   -9.46 KCAL/MOL
REMARK 923 INTER-LIGAND FREE ENERGY PREDICTED BY IDOCK:   -9.50 KCAL/MOL
REMARK 924 INTRA-LIGAND FREE ENERGY PREDICTED BY IDOCK:    0.04 KCAL/MOL
REMARK 927      BINDING AFFINITY PREDICTED BY RF-SCORE:    0.00 PKD
ROOT
HETATM    1  C   UNL     1      -9.896   8.175  72.651  1.00  0.00    -0.364 C  
HETATM    2  C   UNL     1      -9.518   8.797  71.335  1.00  0.00    -0.259 C  
HETATM    3  O   UNL     1      -8.456   9.416  71.232  1.00  0.00    -0.302 OA 
HETATM    4  N   UNL     1     -10.415   8.653  70.272  1.00  0.00    -0.205 N  
ENDROOT
BRANCH   4   5
HETATM    5  C   UNL     1     -10.003   9.195  69.011  1.00  0.00    -0.184 A  
HETATM    6  C   UNL     1      -9.493  10.054  66.387  1.00  0.00    -0.186 A  
HETATM    7  C   UNL     1     -10.574  10.410  68.547  1.00  0.00    -0.209 A  
HETATM    8  C   UNL     1      -9.071   8.491  68.207  1.00  0.00    -0.138 A  
HETATM    9  I   UNL     1      -8.037   6.791  69.073  1.00  0.00    -0.117 I  
HETATM   10  I   UNL     1     -11.759  11.555  69.951  1.00  0.00    -0.329 I  
HETATM   11  C   UNL     1      -8.816   8.905  66.880  1.00  0.00    -0.141 A  
HETATM   12  I   UNL     1      -9.451  10.451  64.248  1.00  0.00    -0.360 I  
HETATM   13  C   UNL     1     -10.326  10.853  67.231  1.00  0.00    -0.255 A  
BRANCH  11  14
HETATM   14  C   UNL     1      -7.959   8.052  66.002  1.00  0.00    -0.101 C  
HETATM   15  O   UNL     1      -6.779   8.334  65.824  1.00  0.00    -0.052 OA 
HETATM   16  N   UNL     1      -8.558   6.958  65.420  1.00  0.00    -0.315 N  
HETATM   17  H   UNL     1      -9.538   6.757  65.620  1.00  0.00     0.000 HD 
BRANCH  16  18
HETATM   18  C   UNL     1      -7.813   6.078  64.519  1.00  0.00    -0.113 C  
BRANCH  18  19
HETATM   19  C   UNL     1      -8.328   4.636  64.574  1.00  0.00    -0.123 C  
HETATM   20  H   UNL     1      -7.588   2.848  64.232  1.00  0.00     0.000 HD 
HETATM   21  O   UNL     1      -7.269   3.742  64.198  1.00  0.00    -0.056 OA 
BRANCH  19  22
HETATM   22  C   UNL     1      -8.864   4.283  65.969  1.00  0.00    -0.119 C  
HETATM   23  O   UNL     1     -10.203   4.745  66.145  1.00  0.00    -0.235 OA 
HETATM   24  H   UNL     1     -10.534   4.527  67.008  1.00  0.00     0.000 HD 
ENDBRANCH  19  22
ENDBRANCH  18  19
ENDBRANCH  16  18
ENDBRANCH  11  14
BRANCH  13  25
HETATM   25  C   UNL     1     -10.845  12.165  66.718  1.00  0.00    -0.248 C  
HETATM   26  O   UNL     1     -10.222  13.193  66.958  1.00  0.00    -0.245 OA 
HETATM   27  H   UNL     1     -12.492  11.299  65.764  1.00  0.00     0.000 HD 
HETATM   28  N   UNL     1     -12.022  12.176  65.992  1.00  0.00    -0.277 N  
BRANCH  28  29
HETATM   29  C   UNL     1     -12.589  13.446  65.553  1.00  0.00    -0.465 C  
BRANCH  29  30
HETATM   30  C   UNL     1     -11.830  14.057  64.368  1.00  0.00    -0.431 C  
HETATM   31  H   UNL     1     -12.186  14.378  62.459  1.00  0.00     0.000 HD 
HETATM   32  O   UNL     1     -12.656  14.000  63.192  1.00  0.00    -0.733 OA 
BRANCH  30  33
HETATM   33  C   UNL     1     -11.428  15.513  64.658  1.00  0.00    -0.324 C  
HETATM   34  O   UNL     1     -11.893  16.397  63.639  1.00  0.00    -1.406 OA 
HETATM   35  H   UNL     1     -11.645  17.296  63.818  1.00  0.00     0.000 HD 
ENDBRANCH  30  33
ENDBRANCH  29  30
ENDBRANCH  28  29
ENDBRANCH  13  25
ENDBRANCH   4   5
BRANCH   4  36
HETATM   36  C   UNL     1     -11.723   7.944  70.344  1.00  0.00    -0.008 C  
BRANCH  36  37
HETATM   37  C   UNL     1     -11.766   6.476  69.842  1.00  0.00    -0.283 C  
HETATM   38  O   UNL     1     -11.651   6.374  68.415  1.00  0.00    -0.498 OA 
HETATM   39  H   UNL     1     -11.678   5.475  68.108  1.00  0.00     0.000 HD 
BRANCH  37  40
HETATM   40  C   UNL     1     -10.662   5.594  70.433  1.00  0.00    -0.282 C  
HETATM   41  O   UNL     1     -11.015   5.215  71.768  1.00  0.00    -0.141 OA 
HETATM   42  H   UNL     1     -10.330   4.668  72.134  1.00  0.00     0.000 HD 
ENDBRANCH  37  40
ENDBRANCH  36  37
ENDBRANCH   4  36
TORSDOF 12
ENDMDL
MODEL       28
REMARK 921   NORMALIZED FREE ENERGY PREDICTED BY IDOCK:   -4.86 KCAL/MOL
REMARK 922        TOTAL FREE ENERGY PREDICTED BY IDOCK:   -9.46 KCAL/MOL
REMARK 923 INTER-LIGAND FREE ENERGY PREDICTED BY IDOCK:   -8.40 KCAL/MOL
REMARK 924 INTRA-LIGAND FREE ENERGY PREDICTED BY IDOCK:   -1.06 KCAL/MOL
REMARK 927      BINDING AFFINITY PREDICTED BY RF-SCORE:    0.00 PKD
ROOT
HETATM    1  C   UNL     1     -11.793   6.331  72.533  1.00  0.00    -0.199 C  
HETATM    2  C   UNL     1     -11.470   6.833  71.152  1.00  0.00    -0.314 C  
HETATM    3  O   UNL     1     -12.207   6.540  70.207  1.00  0.00    -0.278 OA 
HETATM    4  N   UNL     1     -10.319   7.611  71.001  1.00  0.00    -0.202 N  
ENDROOT
BRANCH   4   5
HETATM    5  C   UNL     1     -10.070   8.133  69.689  1.00  0.00    -0.199 A  
HETATM    6  C   UNL     1      -9.251   9.303  67.272  1.00  0.00    -0.126 A  
HETATM    7  C   UNL     1      -9.317   7.369  68.759  1.00  0.00    -0.144 A  
HETATM    8  C   UNL     1     -10.525   9.431  69.345  1.00  0.00    -0.220 A  
HETATM    9  I   UNL     1     -11.888  10.441  70.698  1.00  0.00    -0.463 I  
HETATM   10  I   UNL     1      -8.912   5.302  69.264  1.00  0.00    -0.156 I  
HETATM   11  C   UNL     1     -10.108  10.036  68.137  1.00  0.00    -0.186 A  
HETATM   12  I   UNL     1      -8.262  10.358  65.646  1.00  0.00    -0.135 I  
HETATM   13  C   UNL     1      -8.899   7.944  67.541  1.00  0.00    -0.128 A  
BRANCH  11  14
HETATM   14  C   UNL     1     -10.467  11.463  67.876  1.00  0.00    -0.184 C  
HETATM   15  O   UNL     1      -9.791  12.370  68.351  1.00  0.00    -0.217 OA 
HETATM   16  N   UNL     1     -11.573  11.694  67.090  1.00  0.00    -0.269 N  
HETATM   17  H   UNL     1     -12.086  10.903  66.702  1.00  0.00     0.000 HD 
BRANCH  16  18
HETATM   18  C   UNL     1     -12.025  13.056  66.801  1.00  0.00    -0.369 C  
BRANCH  18  19
HETATM   19  C   UNL     1     -11.971  13.370  65.302  1.00  0.00    -0.380 C  
HETATM   20  H   UNL     1     -12.961  14.519  64.053  1.00  0.00     0.000 HD 
HETATM   21  O   UNL     1     -12.994  14.324  64.982  1.00  0.00    -0.693 OA 
BRANCH  19  22
HETATM   22  C   UNL     1     -10.589  13.898  64.888  1.00  0.00    -0.419 C  
HETATM   23  O   UNL     1     -10.024  13.112  63.839  1.00  0.00    -0.760 OA 
HETATM   24  H   UNL     1      -9.170  13.439  63.583  1.00  0.00     0.000 HD 
ENDBRANCH  19  22
ENDBRANCH  18  19
ENDBRANCH  16  18
ENDBRANCH  11  14
BRANCH  13  25
HETATM   25  C   UNL     1      -8.166   7.156  66.495  1.00  0.00    -0.117 C  
HETATM   26  O   UNL     1      -6.941   7.105  66.529  1.00  0.00    -0.072 OA 
HETATM   27  H   UNL     1      -9.917   6.532  65.537  1.00  0.00     0.000 HD 
HETATM   28  N   UNL     1      -8.898   6.515  65.511  1.00  0.00    -0.059 N  
BRANCH  28  29
HETATM   29  C   UNL     1      -8.205   5.812  64.437  1.00  0.00    -0.114 C  
BRANCH  29  30
HETATM   30  C   UNL     1      -8.961   4.566  63.958  1.00  0.00    -0.138 C  
HETATM   31  H   UNL     1      -8.485   2.796  63.241  1.00  0.00     0.000 HD 
HETATM   32  O   UNL     1      -8.017   3.567  63.538  1.00  0.00    -0.081 OA 
BRANCH  30  33
HETATM   33  C   UNL     1      -9.864   4.003  65.068  1.00  0.00    -0.202 C  
HETATM   34  O   UNL     1     -11.245   4.184  64.761  1.00  0.00    -0.805 OA 
HETATM   35  H   UNL     1     -11.803   3.837  65.447  1.00  0.00     0.000 HD 
ENDBRANCH  30  33
ENDBRANCH  29  30
ENDBRANCH  28  29
ENDBRANCH  13  25
ENDBRANCH   4   5
BRANCH   4  36
HETATM   36  C   UNL     1      -9.379   7.972  72.098  1.00  0.00    -0.190 C  
BRANCH  36  37
HETATM   37  C   UNL     1      -7.869   8.054  71.745  1.00  0.00    -0.110 C  
HETATM   38  O   UNL     1      -7.273   9.297  72.145  1.00  0.00    -0.305 OA 
HETATM   39  H   UNL     1      -6.349   9.347  71.929  1.00  0.00     0.000 HD 
BRANCH  37  40
HETATM   40  C   UNL     1      -7.030   6.942  72.384  1.00  0.00    -0.066 C  
HETATM   41  O   UNL     1      -7.896   5.991  73.012  1.00  0.00    -0.104 OA 
HETATM   42  H   UNL     1      -7.376   5.302  73.408  1.00  0.00     0.000 HD 
ENDBRANCH  37  40
ENDBRANCH  36  37
ENDBRANCH   4  36
TORSDOF 12
ENDMDL
MODEL       29
REMARK 921   NORMALIZED FREE ENERGY PREDICTED BY IDOCK:   -4.81 KCAL/MOL
REMARK 922        TOTAL FREE ENERGY PREDICTED BY IDOCK:   -9.38 KCAL/MOL
REMARK 923 INTER-LIGAND FREE ENERGY PREDICTED BY IDOCK:   -8.90 KCAL/MOL
REMARK 924 INTRA-LIGAND FREE ENERGY PREDICTED BY IDOCK:   -0.48 KCAL/MOL
REMARK 927      BINDING AFFINITY PREDICTED BY RF-SCORE:    0.00 PKD
ROOT
HETATM    1  C   UNL     1      -8.894  10.336  64.324  1.00  0.00    -0.234 C  
HETATM    2  C   UNL     1      -9.641  10.632  65.595  1.00  0.00    -0.218 C  
HETATM    3  O   UNL     1     -10.862  10.809  65.561  1.00  0.00    -0.132 OA 
HETATM    4  N   UNL     1      -8.898  10.709  66.777  1.00  0.00    -0.138 N  
ENDROOT
BRANCH   4   5
HETATM    5  C   UNL     1      -9.640  10.925  67.984  1.00  0.00    -0.162 A  
HETATM    6  C   UNL     1     -11.411  11.263  70.136  1.00  0.00    -0.164 A  
HETATM    7  C   UNL     1      -9.908   9.832  68.851  1.00  0.00    -0.173 A  
HETATM    8  C   UNL     1     -10.152  12.214  68.281  1.00  0.00    -0.210 A  
HETATM    9  I   UNL     1      -9.494  13.890  67.070  1.00  0.00    -0.283 I  
HETATM   10  I   UNL     1      -8.855   7.978  68.472  1.00  0.00    -0.130 I  
HETATM   11  C   UNL     1     -11.055  12.394  69.352  1.00  0.00    -0.149 A  
HETATM   12  I   UNL     1     -13.103  11.426  71.494  1.00  0.00     0.060 I  
HETATM   13  C   UNL     1     -10.795   9.988  69.936  1.00  0.00    -0.328 A  
BRANCH  11  14
HETATM   14  C   UNL     1     -11.706  13.726  69.541  1.00  0.00    -0.323 C  
HETATM   15  O   UNL     1     -12.534  14.132  68.732  1.00  0.00    -0.170 OA 
HETATM   16  N   UNL     1     -11.331  14.452  70.649  1.00  0.00    -0.509 N  
HETATM   17  H   UNL     1     -10.654  14.057  71.301  1.00  0.00     0.000 HD 
BRANCH  16  18
HETATM   18  C   UNL     1     -11.887  15.781  70.906  1.00  0.00    -0.414 C  
BRANCH  18  19
HETATM   19  C   UNL     1     -12.994  15.741  71.964  1.00  0.00    -0.441 C  
HETATM   20  H   UNL     1     -14.808  14.996  72.098  1.00  0.00     0.000 HD 
HETATM   21  O   UNL     1     -14.121  15.021  71.442  1.00  0.00    -0.445 OA 
BRANCH  19  22
HETATM   22  C   UNL     1     -12.502  15.103  73.271  1.00  0.00    -0.483 C  
HETATM   23  O   UNL     1     -12.924  15.853  74.409  1.00  0.00    -0.884 OA 
HETATM   24  H   UNL     1     -12.619  15.458  75.217  1.00  0.00     0.000 HD 
ENDBRANCH  19  22
ENDBRANCH  18  19
ENDBRANCH  16  18
ENDBRANCH  11  14
BRANCH  13  25
HETATM   25  C   UNL     1     -11.054   8.887  70.922  1.00  0.00    -0.271 C  
HETATM   26  O   UNL     1     -11.968   8.096  70.714  1.00  0.00    -0.238 OA 
HETATM   27  H   UNL     1      -9.468   9.440  72.168  1.00  0.00     0.000 HD 
HETATM   28  N   UNL     1     -10.253   8.800  72.047  1.00  0.00    -0.334 N  
BRANCH  28  29
HETATM   29  C   UNL     1     -10.537   7.789  73.060  1.00  0.00    -0.379 C  
BRANCH  29  30
HETATM   30  C   UNL     1      -9.649   6.545  72.922  1.00  0.00    -0.149 C  
HETATM   31  H   UNL     1      -8.276   5.646  74.007  1.00  0.00     0.000 HD 
HETATM   32  O   UNL     1      -8.825   6.416  74.092  1.00  0.00    -0.133 OA 
BRANCH  30  33
HETATM   33  C   UNL     1     -10.498   5.276  72.733  1.00  0.00    -0.217 C  
HETATM   34  O   UNL     1     -11.310   5.016  73.877  1.00  0.00    -0.417 OA 
HETATM   35  H   UNL     1     -11.834   4.232  73.760  1.00  0.00     0.000 HD 
ENDBRANCH  30  33
ENDBRANCH  29  30
ENDBRANCH  28  29
ENDBRANCH  13  25
ENDBRANCH   4   5
BRANCH   4  36
HETATM   36  C   UNL     1      -7.422  10.533  66.874  1.00  0.00    -0.110 C  
BRANCH  36  37
HETATM   37  C   UNL     1      -6.623  11.625  67.636  1.00  0.00    -0.082 C  
HETATM   38  O   UNL     1      -6.420  11.300  69.019  1.00  0.00    -0.057 OA 
HETATM   39  H   UNL     1      -5.931  11.968  69.485  1.00  0.00     0.000 HD 
BRANCH  37  40
HETATM   40  C   UNL     1      -5.236  11.894  67.042  1.00  0.00    -0.104 C  
HETATM   41  O   UNL     1      -5.236  11.549  65.653  1.00  0.00    -0.479 OA 
HETATM   42  H   UNL     1      -4.376  11.716  65.285  1.00  0.00     0.000 HD 
ENDBRANCH  37  40
ENDBRANCH  36  37
ENDBRANCH   4  36
TORSDOF 12
ENDMDL
MODEL       30
REMARK 921   NORMALIZED FREE ENERGY PREDICTED BY IDOCK:   -4.80 KCAL/MOL
REMARK 922        TOTAL FREE ENERGY PREDICTED BY IDOCK:   -9.36 KCAL/MOL
REMARK 923 INTER-LIGAND FREE ENERGY PREDICTED BY IDOCK:   -8.21 KCAL/MOL
REMARK 924 INTRA-LIGAND FREE ENERGY PREDICTED BY IDOCK:   -1.15 KCAL/MOL
REMARK 927      BINDING AFFINITY PREDICTED BY RF-SCORE:    0.00 PKD
ROOT
HETATM    1  C   UNL     1     -11.014  13.649  65.942  1.00  0.00    -0.284 C  
HETATM    2  C   UNL     1     -11.054  12.199  66.338  1.00  0.00    -0.314 C  
HETATM    3  O   UNL     1     -12.021  11.503  66.017  1.00  0.00    -0.227 OA 
HETATM    4  N   UNL     1      -9.977  11.702  67.078  1.00  0.00    -0.202 N  
ENDROOT
BRANCH   4   5
HETATM    5  C   UNL     1     -10.006  10.302  67.385  1.00  0.00    -0.189 A  
HETATM    6  C   UNL     1      -9.716   7.620  68.160  1.00  0.00    -0.153 A  
HETATM    7  C   UNL     1     -10.565   9.862  68.614  1.00  0.00    -0.217 A  
HETATM    8  C   UNL     1      -9.426   9.368  66.489  1.00  0.00    -0.190 A  
HETATM    9  I   UNL     1      -8.829  10.058  64.520  1.00  0.00    -0.306 I  
HETATM   10  I   UNL     1     -11.675  11.312  69.779  1.00  0.00    -0.455 I  
HETATM   11  C   UNL     1      -9.262   8.018  66.873  1.00  0.00    -0.191 A  
HETATM   12  I   UNL     1      -9.092   5.683  68.932  1.00  0.00    -0.152 I  
HETATM   13  C   UNL     1     -10.427   8.518  69.015  1.00  0.00    -0.216 A  
BRANCH  11  14
HETATM   14  C   UNL     1      -8.501   7.094  65.979  1.00  0.00    -0.145 C  
HETATM   15  O   UNL     1      -7.276   7.138  65.939  1.00  0.00    -0.070 OA 
HETATM   16  N   UNL     1      -9.238   6.210  65.223  1.00  0.00    -0.351 N  
HETATM   17  H   UNL     1     -10.254   6.201  65.312  1.00  0.00     0.000 HD 
BRANCH  16  18
HETATM   18  C   UNL     1      -8.589   5.285  64.293  1.00  0.00    -0.080 C  
BRANCH  18  19
HETATM   19  C   UNL     1      -9.105   3.853  64.459  1.00  0.00    -0.137 C  
HETATM   20  H   UNL     1      -9.257   2.556  65.928  1.00  0.00     0.000 HD 
HETATM   21  O   UNL     1      -8.937   3.444  65.826  1.00  0.00    -0.131 OA 
BRANCH  19  22
HETATM   22  C   UNL     1     -10.577   3.733  64.037  1.00  0.00    -0.262 C  
HETATM   23  O   UNL     1     -11.446   4.333  64.997  1.00  0.00    -1.020 OA 
HETATM   24  H   UNL     1     -12.356   4.258  64.735  1.00  0.00     0.000 HD 
ENDBRANCH  19  22
ENDBRANCH  18  19
ENDBRANCH  16  18
ENDBRANCH  11  14
BRANCH  13  25
HETATM   25  C   UNL     1     -11.062   7.988  70.268  1.00  0.00    -0.224 C  
HETATM   26  O   UNL     1     -12.076   7.302  70.184  1.00  0.00    -0.016 OA 
HETATM   27  H   UNL     1      -9.617   8.827  71.524  1.00  0.00     0.000 HD 
HETATM   28  N   UNL     1     -10.488   8.297  71.487  1.00  0.00    -0.215 N  
BRANCH  28  29
HETATM   29  C   UNL     1     -11.133   7.863  72.721  1.00  0.00    -0.400 C  
BRANCH  29  30
HETATM   30  C   UNL     1     -10.137   7.309  73.749  1.00  0.00    -0.329 C  
HETATM   31  H   UNL     1      -9.834   5.590  74.658  1.00  0.00     0.000 HD 
HETATM   32  O   UNL     1     -10.450   5.932  74.022  1.00  0.00    -0.265 OA 
BRANCH  30  33
HETATM   33  C   UNL     1      -8.691   7.430  73.241  1.00  0.00    -0.151 C  
HETATM   34  O   UNL     1      -8.072   8.628  73.705  1.00  0.00    -0.406 OA 
HETATM   35  H   UNL     1      -7.179   8.703  73.391  1.00  0.00     0.000 HD 
ENDBRANCH  30  33
ENDBRANCH  29  30
ENDBRANCH  28  29
ENDBRANCH  13  25
ENDBRANCH   4   5
BRANCH   4  36
HETATM   36  C   UNL     1      -8.799  12.500  67.517  1.00  0.00    -0.184 C  
BRANCH  36  37
HETATM   37  C   UNL     1      -7.556  11.718  68.021  1.00  0.00    -0.116 C  
HETATM   38  O   UNL     1      -6.555  11.555  67.006  1.00  0.00    -0.113 OA 
HETATM   39  H   UNL     1      -5.794  11.076  67.314  1.00  0.00     0.000 HD 
BRANCH  37  40
HETATM   40  C   UNL     1      -6.861  12.377  69.217  1.00  0.00    -0.028 C  
HETATM   41  O   UNL     1      -6.807  11.451  70.308  1.00  0.00    -0.475 OA 
HETATM   42  H   UNL     1      -6.377  11.860  71.050  1.00  0.00     0.000 HD 
ENDBRANCH  37  40
ENDBRANCH  36  37
ENDBRANCH   4  36
TORSDOF 12
ENDMDL
MODEL       31
REMARK 921   NORMALIZED FREE ENERGY PREDICTED BY IDOCK:   -4.80 KCAL/MOL
REMARK 922        TOTAL FREE ENERGY PREDICTED BY IDOCK:   -9.36 KCAL/MOL
REMARK 923 INTER-LIGAND FREE ENERGY PREDICTED BY IDOCK:   -8.56 KCAL/MOL
REMARK 924 INTRA-LIGAND FREE ENERGY PREDICTED BY IDOCK:   -0.80 KCAL/MOL
REMARK 927      BINDING AFFINITY PREDICTED BY RF-SCORE:    0.00 PKD
ROOT
HETATM    1  C   UNL     1      -6.196   6.563  66.731  1.00  0.00    -0.040 C  
HETATM    2  C   UNL     1      -7.245   7.340  67.478  1.00  0.00    -0.090 C  
HETATM    3  O   UNL     1      -6.924   8.018  68.457  1.00  0.00    -0.068 OA 
HETATM    4  N   UNL     1      -8.565   7.242  67.027  1.00  0.00    -0.120 N  
ENDROOT
BRANCH   4   5
HETATM    5  C   UNL     1      -9.535   8.043  67.713  1.00  0.00    -0.145 A  
HETATM    6  C   UNL     1     -11.133   9.758  69.257  1.00  0.00    -0.149 A  
HETATM    7  C   UNL     1      -9.852   9.338  67.222  1.00  0.00    -0.182 A  
HETATM    8  C   UNL     1     -10.133   7.565  68.906  1.00  0.00    -0.192 A  
HETATM    9  I   UNL     1      -9.817   5.491  69.462  1.00  0.00    -0.322 I  
HETATM   10  I   UNL     1      -9.116   9.866  65.255  1.00  0.00    -0.333 I  
HETATM   11  C   UNL     1     -10.927   8.423  69.700  1.00  0.00    -0.094 A  
HETATM   12  I   UNL     1     -11.977  11.201  70.650  1.00  0.00    -0.190 I  
HETATM   13  C   UNL     1     -10.654  10.209  67.987  1.00  0.00    -0.273 A  
BRANCH  11  14
HETATM   14  C   UNL     1     -11.407   7.947  71.032  1.00  0.00    -0.274 C  
HETATM   15  O   UNL     1     -12.525   7.458  71.151  1.00  0.00    -0.336 OA 
HETATM   16  N   UNL     1     -10.541   8.088  72.093  1.00  0.00    -0.250 N  
HETATM   17  H   UNL     1      -9.614   8.481  71.935  1.00  0.00     0.000 HD 
BRANCH  16  18
HETATM   18  C   UNL     1     -10.928   7.682  73.444  1.00  0.00    -0.137 C  
BRANCH  18  19
HETATM   19  C   UNL     1     -10.020   6.575  73.991  1.00  0.00    -0.299 C  
HETATM   20  H   UNL     1      -9.691   4.679  73.594  1.00  0.00     0.000 HD 
HETATM   21  O   UNL     1     -10.255   5.365  73.255  1.00  0.00    -0.173 OA 
BRANCH  19  22
HETATM   22  C   UNL     1      -8.539   6.975  73.916  1.00  0.00    -0.153 C  
HETATM   23  O   UNL     1      -7.898   6.391  72.782  1.00  0.00    -0.103 OA 
HETATM   24  H   UNL     1      -6.982   6.639  72.736  1.00  0.00     0.000 HD 
ENDBRANCH  19  22
ENDBRANCH  18  19
ENDBRANCH  16  18
ENDBRANCH  11  14
BRANCH  13  25
HETATM   25  C   UNL     1     -11.077  11.558  67.481  1.00  0.00    -0.272 C  
HETATM   26  O   UNL     1     -12.118  11.660  66.841  1.00  0.00    -0.512 OA 
HETATM   27  H   UNL     1      -9.438  12.545  68.324  1.00  0.00     0.000 HD 
HETATM   28  N   UNL     1     -10.271  12.650  67.746  1.00  0.00    -0.217 N  
BRANCH  28  29
HETATM   29  C   UNL     1     -10.619  13.955  67.195  1.00  0.00    -0.277 C  
BRANCH  29  30
HETATM   30  C   UNL     1      -9.820  14.299  65.931  1.00  0.00    -0.298 C  
HETATM   31  H   UNL     1      -9.747  13.659  64.072  1.00  0.00     0.000 HD 
HETATM   32  O   UNL     1     -10.242  13.446  64.853  1.00  0.00    -0.348 OA 
BRANCH  30  33
HETATM   33  C   UNL     1     -10.008  15.774  65.540  1.00  0.00    -0.306 C  
HETATM   34  O   UNL     1     -10.821  15.907  64.376  1.00  0.00    -0.843 OA 
HETATM   35  H   UNL     1     -10.938  16.818  64.134  1.00  0.00     0.000 HD 
ENDBRANCH  30  33
ENDBRANCH  29  30
ENDBRANCH  28  29
ENDBRANCH  13  25
ENDBRANCH   4   5
BRANCH   4  36
HETATM   36  C   UNL     1      -9.016   6.417  65.871  1.00  0.00    -0.096 C  
BRANCH  36  37
HETATM   37  C   UNL     1      -9.994   5.249  66.167  1.00  0.00    -0.165 C  
HETATM   38  O   UNL     1     -11.344   5.546  65.782  1.00  0.00    -0.649 OA 
HETATM   39  H   UNL     1     -11.943   4.830  65.963  1.00  0.00     0.000 HD 
BRANCH  37  40
HETATM   40  C   UNL     1      -9.617   3.941  65.463  1.00  0.00    -0.184 C  
HETATM   41  O   UNL     1     -10.679   3.547  64.587  1.00  0.00    -0.465 OA 
HETATM   42  H   UNL     1     -10.445   2.736  64.151  1.00  0.00     0.000 HD 
ENDBRANCH  37  40
ENDBRANCH  36  37
ENDBRANCH   4  36
TORSDOF 12
ENDMDL
MODEL       32
REMARK 921   NORMALIZED FREE ENERGY PREDICTED BY IDOCK:   -4.79 KCAL/MOL
REMARK 922        TOTAL FREE ENERGY PREDICTED BY IDOCK:   -9.36 KCAL/MOL
REMARK 923 INTER-LIGAND FREE ENERGY PREDICTED BY IDOCK:   -7.83 KCAL/MOL
REMARK 924 INTRA-LIGAND FREE ENERGY PREDICTED BY IDOCK:   -1.52 KCAL/MOL
REMARK 927      BINDING AFFINITY PREDICTED BY RF-SCORE:    0.00 PKD
ROOT
HETATM    1  C   UNL     1      -6.607   5.788  65.789  1.00  0.00    -0.044 C  
HETATM    2  C   UNL     1      -7.791   6.577  66.276  1.00  0.00    -0.105 C  
HETATM    3  O   UNL     1      -8.906   6.369  65.792  1.00  0.00    -0.155 OA 
HETATM    4  N   UNL     1      -7.563   7.539  67.264  1.00  0.00    -0.106 N  
ENDROOT
BRANCH   4   5
HETATM    5  C   UNL     1      -8.716   8.231  67.760  1.00  0.00    -0.134 A  
HETATM    6  C   UNL     1     -10.729   9.760  68.981  1.00  0.00    -0.217 A  
HETATM    7  C   UNL     1      -9.072   9.490  67.209  1.00  0.00    -0.130 A  
HETATM    8  C   UNL     1      -9.463   7.684  68.834  1.00  0.00    -0.149 A  
HETATM    9  I   UNL     1      -9.039   5.649  69.458  1.00  0.00    -0.170 I  
HETATM   10  I   UNL     1      -8.059  10.108  65.397  1.00  0.00    -0.152 I  
HETATM   11  C   UNL     1     -10.469   8.450  69.466  1.00  0.00    -0.225 A  
HETATM   12  I   UNL     1     -11.948  11.097  70.189  1.00  0.00    -0.448 I  
HETATM   13  C   UNL     1     -10.081  10.269  67.812  1.00  0.00    -0.213 A  
BRANCH  11  14
HETATM   14  C   UNL     1     -11.125   7.916  70.698  1.00  0.00    -0.259 C  
HETATM   15  O   UNL     1     -12.178   7.292  70.620  1.00  0.00    -0.250 OA 
HETATM   16  N   UNL     1     -10.494   8.160  71.897  1.00  0.00    -0.229 N  
HETATM   17  H   UNL     1      -9.608   8.666  71.903  1.00  0.00     0.000 HD 
BRANCH  16  18
HETATM   18  C   UNL     1     -11.071   7.707  73.162  1.00  0.00    -0.317 C  
BRANCH  18  19
HETATM   19  C   UNL     1     -10.167   6.695  73.873  1.00  0.00    -0.354 C  
HETATM   20  H   UNL     1      -9.772   4.777  73.705  1.00  0.00     0.000 HD 
HETATM   21  O   UNL     1     -10.332   5.405  73.264  1.00  0.00    -0.180 OA 
BRANCH  19  22
HETATM   22  C   UNL     1      -8.695   7.129  73.831  1.00  0.00    -0.173 C  
HETATM   23  O   UNL     1      -8.545   8.502  74.192  1.00  0.00    -0.327 OA 
HETATM   24  H   UNL     1      -7.634   8.770  74.165  1.00  0.00     0.000 HD 
ENDBRANCH  19  22
ENDBRANCH  18  19
ENDBRANCH  16  18
ENDBRANCH  11  14
BRANCH  13  25
HETATM   25  C   UNL     1     -10.545  11.571  67.226  1.00  0.00    -0.228 C  
HETATM   26  O   UNL     1      -9.983  12.611  67.552  1.00  0.00    -0.201 OA 
HETATM   27  H   UNL     1     -12.018  10.675  66.042  1.00  0.00     0.000 HD 
HETATM   28  N   UNL     1     -11.603  11.560  66.335  1.00  0.00    -0.090 N  
BRANCH  28  29
HETATM   29  C   UNL     1     -12.124  12.820  65.816  1.00  0.00    -0.448 C  
BRANCH  29  30
HETATM   30  C   UNL     1     -12.404  12.770  64.308  1.00  0.00    -0.416 C  
HETATM   31  H   UNL     1     -12.756  14.077  62.879  1.00  0.00     0.000 HD 
HETATM   32  O   UNL     1     -12.583  14.108  63.812  1.00  0.00    -0.804 OA 
BRANCH  30  33
HETATM   33  C   UNL     1     -11.255  12.079  63.553  1.00  0.00    -0.445 C  
HETATM   34  O   UNL     1     -10.091  12.902  63.505  1.00  0.00    -0.661 OA 
HETATM   35  H   UNL     1      -9.382  12.475  63.039  1.00  0.00     0.000 HD 
ENDBRANCH  30  33
ENDBRANCH  29  30
ENDBRANCH  28  29
ENDBRANCH  13  25
ENDBRANCH   4   5
BRANCH   4  36
HETATM   36  C   UNL     1      -6.236   7.853  67.864  1.00  0.00    -0.050 C  
BRANCH  36  37
HETATM   37  C   UNL     1      -6.223   8.725  69.148  1.00  0.00    -0.043 C  
HETATM   38  O   UNL     1      -5.466   8.131  70.214  1.00  0.00    -0.023 OA 
HETATM   39  H   UNL     1      -5.458   8.664  71.000  1.00  0.00     0.000 HD 
BRANCH  37  40
HETATM   40  C   UNL     1      -5.644  10.127  68.931  1.00  0.00    -0.034 C  
HETATM   41  O   UNL     1      -5.615  10.830  70.178  1.00  0.00    -0.054 OA 
HETATM   42  H   UNL     1      -5.256  11.699  70.043  1.00  0.00     0.000 HD 
ENDBRANCH  37  40
ENDBRANCH  36  37
ENDBRANCH   4  36
TORSDOF 12
ENDMDL
MODEL       33
REMARK 921   NORMALIZED FREE ENERGY PREDICTED BY IDOCK:   -4.78 KCAL/MOL
REMARK 922        TOTAL FREE ENERGY PREDICTED BY IDOCK:   -9.33 KCAL/MOL
REMARK 923 INTER-LIGAND FREE ENERGY PREDICTED BY IDOCK:   -8.94 KCAL/MOL
REMARK 924 INTRA-LIGAND FREE ENERGY PREDICTED BY IDOCK:   -0.38 KCAL/MOL
REMARK 927      BINDING AFFINITY PREDICTED BY RF-SCORE:    0.00 PKD
ROOT
HETATM    1  C   UNL     1      -7.115  13.429  67.134  1.00  0.00     0.184 C  
HETATM    2  C   UNL     1      -7.921  12.452  67.944  1.00  0.00    -0.155 C  
HETATM    3  O   UNL     1      -7.482  12.038  69.020  1.00  0.00    -0.082 OA 
HETATM    4  N   UNL     1      -9.150  12.038  67.420  1.00  0.00    -0.173 N  
ENDROOT
BRANCH   4   5
HETATM    5  C   UNL     1      -9.930  11.159  68.240  1.00  0.00    -0.187 A  
HETATM    6  C   UNL     1     -11.183   9.492  70.119  1.00  0.00    -0.234 A  
HETATM    7  C   UNL     1     -10.915  11.698  69.111  1.00  0.00    -0.219 A  
HETATM    8  C   UNL     1      -9.679   9.764  68.222  1.00  0.00    -0.145 A  
HETATM    9  I   UNL     1      -8.359   8.971  66.693  1.00  0.00    -0.133 I  
HETATM   10  I   UNL     1     -11.426  13.788  68.865  1.00  0.00    -0.414 I  
HETATM   11  C   UNL     1     -10.293   8.916  69.172  1.00  0.00    -0.230 A  
HETATM   12  I   UNL     1     -11.793   8.300  71.836  1.00  0.00    -0.482 I  
HETATM   13  C   UNL     1     -11.552  10.872  70.059  1.00  0.00    -0.424 A  
BRANCH  11  14
HETATM   14  C   UNL     1      -9.886   7.480  69.238  1.00  0.00    -0.170 C  
HETATM   15  O   UNL     1     -10.579   6.613  68.717  1.00  0.00    -0.199 OA 
HETATM   16  N   UNL     1      -8.714   7.194  69.903  1.00  0.00    -0.141 N  
HETATM   17  H   UNL     1      -8.164   7.956  70.299  1.00  0.00     0.000 HD 
BRANCH  16  18
HETATM   18  C   UNL     1      -8.245   5.816  70.050  1.00  0.00    -0.115 C  
BRANCH  18  19
HETATM   19  C   UNL     1      -8.226   5.372  71.516  1.00  0.00    -0.118 C  
HETATM   20  H   UNL     1      -7.604   6.124  73.222  1.00  0.00     0.000 HD 
HETATM   21  O   UNL     1      -7.615   6.399  72.313  1.00  0.00    -0.095 OA 
BRANCH  19  22
HETATM   22  C   UNL     1      -9.640   5.060  72.028  1.00  0.00    -0.156 C  
HETATM   23  O   UNL     1     -10.471   4.551  70.985  1.00  0.00    -0.085 OA 
HETATM   24  H   UNL     1     -11.345   4.358  71.302  1.00  0.00     0.000 HD 
ENDBRANCH  19  22
ENDBRANCH  18  19
ENDBRANCH  16  18
ENDBRANCH  11  14
BRANCH  13  25
HETATM   25  C   UNL     1     -12.650  11.376  70.950  1.00  0.00    -0.356 C  
HETATM   26  O   UNL     1     -13.669  10.707  71.086  1.00  0.00     0.093 OA 
HETATM   27  H   UNL     1     -11.604  13.102  71.497  1.00  0.00     0.000 HD 
HETATM   28  N   UNL     1     -12.483  12.592  71.588  1.00  0.00    -0.047 N  
BRANCH  28  29
HETATM   29  C   UNL     1     -13.568  13.141  72.393  1.00  0.00    -0.567 C  
BRANCH  29  30
HETATM   30  C   UNL     1     -13.313  14.591  72.825  1.00  0.00    -0.507 C  
HETATM   31  H   UNL     1     -11.796  15.843  72.790  1.00  0.00     0.000 HD 
HETATM   32  O   UNL     1     -11.953  14.946  72.522  1.00  0.00    -0.329 OA 
BRANCH  30  33
HETATM   33  C   UNL     1     -14.279  15.558  72.120  1.00  0.00    -0.522 C  
HETATM   34  O   UNL     1     -14.279  15.359  70.707  1.00  0.00    -0.844 OA 
HETATM   35  H   UNL     1     -14.876  15.956  70.272  1.00  0.00     0.000 HD 
ENDBRANCH  30  33
ENDBRANCH  29  30
ENDBRANCH  28  29
ENDBRANCH  13  25
ENDBRANCH   4   5
BRANCH   4  36
HETATM   36  C   UNL     1      -9.717  12.480  66.116  1.00  0.00    -0.254 C  
BRANCH  36  37
HETATM   37  C   UNL     1     -10.823  11.594  65.483  1.00  0.00    -0.279 C  
HETATM   38  O   UNL     1     -12.130  12.177  65.590  1.00  0.00    -0.545 OA 
HETATM   39  H   UNL     1     -12.807  11.635  65.202  1.00  0.00     0.000 HD 
BRANCH  37  40
HETATM   40  C   UNL     1     -10.597  11.301  63.996  1.00  0.00    -0.386 C  
HETATM   41  O   UNL     1      -9.688  12.264  63.452  1.00  0.00    -0.627 OA 
HETATM   42  H   UNL     1      -9.548  12.083  62.530  1.00  0.00     0.000 HD 
ENDBRANCH  37  40
ENDBRANCH  36  37
ENDBRANCH   4  36
TORSDOF 12
ENDMDL
MODEL       34
REMARK 921   NORMALIZED FREE ENERGY PREDICTED BY IDOCK:   -4.77 KCAL/MOL
REMARK 922        TOTAL FREE ENERGY PREDICTED BY IDOCK:   -9.32 KCAL/MOL
REMARK 923 INTER-LIGAND FREE ENERGY PREDICTED BY IDOCK:   -9.24 KCAL/MOL
REMARK 924 INTRA-LIGAND FREE ENERGY PREDICTED BY IDOCK:   -0.08 KCAL/MOL
REMARK 927      BINDING AFFINITY PREDICTED BY RF-SCORE:    0.00 PKD
ROOT
HETATM    1  C   UNL     1     -10.057  12.987  64.654  1.00  0.00    -0.253 C  
HETATM    2  C   UNL     1     -10.653  12.132  65.737  1.00  0.00    -0.260 C  
HETATM    3  O   UNL     1     -11.787  11.667  65.596  1.00  0.00    -0.278 OA 
HETATM    4  N   UNL     1      -9.884  11.912  66.884  1.00  0.00    -0.200 N  
ENDROOT
BRANCH   4   5
HETATM    5  C   UNL     1     -10.446  11.039  67.872  1.00  0.00    -0.192 A  
HETATM    6  C   UNL     1     -11.232   9.418  70.025  1.00  0.00    -0.190 A  
HETATM    7  C   UNL     1     -11.304  11.568  68.872  1.00  0.00    -0.268 A  
HETATM    8  C   UNL     1     -10.099   9.664  67.883  1.00  0.00    -0.181 A  
HETATM    9  I   UNL     1      -9.005   8.861  66.189  1.00  0.00    -0.277 I  
HETATM   10  I   UNL     1     -12.002  13.602  68.612  1.00  0.00    -0.098 I  
HETATM   11  C   UNL     1     -10.477   8.841  68.968  1.00  0.00    -0.220 A  
HETATM   12  I   UNL     1     -11.450   8.302  71.880  1.00  0.00    -0.468 I  
HETATM   13  C   UNL     1     -11.707  10.765  69.959  1.00  0.00    -0.417 A  
BRANCH  11  14
HETATM   14  C   UNL     1      -9.959   7.441  69.035  1.00  0.00    -0.176 C  
HETATM   15  O   UNL     1     -10.606   6.516  68.557  1.00  0.00    -0.197 OA 
HETATM   16  N   UNL     1      -8.742   7.256  69.652  1.00  0.00    -0.141 N  
HETATM   17  H   UNL     1      -8.235   8.064  70.013  1.00  0.00     0.000 HD 
BRANCH  16  18
HETATM   18  C   UNL     1      -8.164   5.920  69.797  1.00  0.00    -0.113 C  
BRANCH  18  19
HETATM   19  C   UNL     1      -8.085   5.488  71.265  1.00  0.00    -0.113 C  
HETATM   20  H   UNL     1      -7.838   6.380  72.999  1.00  0.00     0.000 HD 
HETATM   21  O   UNL     1      -7.887   6.647  72.089  1.00  0.00    -0.096 OA 
BRANCH  19  22
HETATM   22  C   UNL     1      -9.347   4.727  71.696  1.00  0.00    -0.145 C  
HETATM   23  O   UNL     1     -10.253   4.559  70.606  1.00  0.00    -0.198 OA 
HETATM   24  H   UNL     1     -11.034   4.089  70.873  1.00  0.00     0.000 HD 
ENDBRANCH  19  22
ENDBRANCH  18  19
ENDBRANCH  16  18
ENDBRANCH  11  14
BRANCH  13  25
HETATM   25  C   UNL     1     -12.670  11.254  71.001  1.00  0.00    -0.359 C  
HETATM   26  O   UNL     1     -13.496  10.477  71.468  1.00  0.00    -0.293 OA 
HETATM   27  H   UNL     1     -11.874  13.187  71.032  1.00  0.00     0.000 HD 
HETATM   28  N   UNL     1     -12.604  12.577  71.400  1.00  0.00    -0.264 N  
BRANCH  28  29
HETATM   29  C   UNL     1     -13.582  13.095  72.349  1.00  0.00    -0.567 C  
BRANCH  29  30
HETATM   30  C   UNL     1     -13.270  14.528  72.801  1.00  0.00    -0.508 C  
HETATM   31  H   UNL     1     -11.741  15.761  72.678  1.00  0.00     0.000 HD 
HETATM   32  O   UNL     1     -11.935  14.875  72.398  1.00  0.00    -0.341 OA 
BRANCH  30  33
HETATM   33  C   UNL     1     -14.276  15.529  72.208  1.00  0.00    -0.524 C  
HETATM   34  O   UNL     1     -14.148  15.620  70.790  1.00  0.00    -0.828 OA 
HETATM   35  H   UNL     1     -14.769  16.238  70.423  1.00  0.00     0.000 HD 
ENDBRANCH  30  33
ENDBRANCH  29  30
ENDBRANCH  28  29
ENDBRANCH  13  25
ENDBRANCH   4   5
BRANCH   4  36
HETATM   36  C   UNL     1      -8.524  12.470  67.122  1.00  0.00    -0.186 C  
BRANCH  36  37
HETATM   37  C   UNL     1      -8.418  13.729  68.024  1.00  0.00    -0.176 C  
HETATM   38  O   UNL     1      -7.485  13.562  69.103  1.00  0.00    -0.292 OA 
HETATM   39  H   UNL     1      -7.421  14.333  69.655  1.00  0.00     0.000 HD 
BRANCH  37  40
HETATM   40  C   UNL     1      -7.987  14.990  67.267  1.00  0.00    -0.206 C  
HETATM   41  O   UNL     1      -9.146  15.666  66.767  1.00  0.00    -0.217 OA 
HETATM   42  H   UNL     1      -8.878  16.447  66.298  1.00  0.00     0.000 HD 
ENDBRANCH  37  40
ENDBRANCH  36  37
ENDBRANCH   4  36
TORSDOF 12
ENDMDL
MODEL       35
REMARK 921   NORMALIZED FREE ENERGY PREDICTED BY IDOCK:   -4.76 KCAL/MOL
REMARK 922        TOTAL FREE ENERGY PREDICTED BY IDOCK:   -9.29 KCAL/MOL
REMARK 923 INTER-LIGAND FREE ENERGY PREDICTED BY IDOCK:   -7.77 KCAL/MOL
REMARK 924 INTRA-LIGAND FREE ENERGY PREDICTED BY IDOCK:   -1.52 KCAL/MOL
REMARK 927      BINDING AFFINITY PREDICTED BY RF-SCORE:    0.00 PKD
ROOT
HETATM    1  C   UNL     1      -9.115  10.468  64.586  1.00  0.00    -0.248 C  
HETATM    2  C   UNL     1      -9.556  10.076  65.970  1.00  0.00    -0.222 C  
HETATM    3  O   UNL     1     -10.305   9.107  66.122  1.00  0.00    -0.221 OA 
HETATM    4  N   UNL     1      -9.099  10.854  67.037  1.00  0.00    -0.148 N  
ENDROOT
BRANCH   4   5
HETATM    5  C   UNL     1      -9.478  10.422  68.350  1.00  0.00    -0.149 A  
HETATM    6  C   UNL     1     -10.432   9.301  70.741  1.00  0.00    -0.276 A  
HETATM    7  C   UNL     1      -8.719   9.416  69.006  1.00  0.00    -0.136 A  
HETATM    8  C   UNL     1     -10.638  10.957  68.966  1.00  0.00    -0.216 A  
HETATM    9  I   UNL     1     -11.602  12.667  68.042  1.00  0.00    -0.364 I  
HETATM   10  I   UNL     1      -6.818   8.869  68.125  1.00  0.00    -0.070 I  
HETATM   11  C   UNL     1     -11.136  10.392  70.161  1.00  0.00    -0.383 A  
HETATM   12  I   UNL     1     -11.401   8.153  72.315  1.00  0.00    -0.451 I  
HETATM   13  C   UNL     1      -9.186   8.845  70.207  1.00  0.00    -0.207 A  
BRANCH  11  14
HETATM   14  C   UNL     1     -12.448  10.864  70.699  1.00  0.00    -0.369 C  
HETATM   15  O   UNL     1     -13.487  10.284  70.399  1.00  0.00    -0.099 OA 
HETATM   16  N   UNL     1     -12.423  11.960  71.531  1.00  0.00    -0.162 N  
HETATM   17  H   UNL     1     -11.528  12.391  71.766  1.00  0.00     0.000 HD 
BRANCH  16  18
HETATM   18  C   UNL     1     -13.657  12.519  72.084  1.00  0.00    -0.360 C  
BRANCH  18  19
HETATM   19  C   UNL     1     -13.610  14.049  72.154  1.00  0.00    -0.489 C  
HETATM   20  H   UNL     1     -13.029  15.396  73.462  1.00  0.00     0.000 HD 
HETATM   21  O   UNL     1     -13.059  14.447  73.419  1.00  0.00    -0.587 OA 
BRANCH  19  22
HETATM   22  C   UNL     1     -12.792  14.641  70.997  1.00  0.00    -0.348 C  
HETATM   23  O   UNL     1     -11.401  14.693  71.315  1.00  0.00    -0.525 OA 
HETATM   24  H   UNL     1     -10.896  15.059  70.599  1.00  0.00     0.000 HD 
ENDBRANCH  19  22
ENDBRANCH  18  19
ENDBRANCH  16  18
ENDBRANCH  11  14
BRANCH  13  25
HETATM   25  C   UNL     1      -8.387   7.834  70.976  1.00  0.00    -0.114 C  
HETATM   26  O   UNL     1      -7.652   8.212  71.883  1.00  0.00    -0.081 OA 
HETATM   27  H   UNL     1      -9.153   6.208  69.908  1.00  0.00     0.000 HD 
HETATM   28  N   UNL     1      -8.496   6.498  70.632  1.00  0.00    -0.133 N  
BRANCH  28  29
HETATM   29  C   UNL     1      -7.668   5.507  71.310  1.00  0.00    -0.108 C  
BRANCH  29  30
HETATM   30  C   UNL     1      -8.390   4.833  72.484  1.00  0.00    -0.115 C  
HETATM   31  H   UNL     1      -8.756   2.988  73.063  1.00  0.00     0.000 HD 
HETATM   32  O   UNL     1      -8.310   3.405  72.336  1.00  0.00    -0.080 OA 
BRANCH  30  33
HETATM   33  C   UNL     1      -7.778   5.258  73.830  1.00  0.00    -0.102 C  
HETATM   34  O   UNL     1      -8.303   6.509  74.270  1.00  0.00    -0.122 OA 
HETATM   35  H   UNL     1      -7.925   6.772  75.101  1.00  0.00     0.000 HD 
ENDBRANCH  30  33
ENDBRANCH  29  30
ENDBRANCH  28  29
ENDBRANCH  13  25
ENDBRANCH   4   5
BRANCH   4  36
HETATM   36  C   UNL     1      -8.220  12.050  66.911  1.00  0.00    -0.146 C  
BRANCH  36  37
HETATM   37  C   UNL     1      -7.778  12.752  68.223  1.00  0.00    -0.136 C  
HETATM   38  O   UNL     1      -6.372  12.618  68.478  1.00  0.00    -0.062 OA 
HETATM   39  H   UNL     1      -6.102  13.048  69.281  1.00  0.00     0.000 HD 
BRANCH  37  40
HETATM   40  C   UNL     1      -8.085  14.253  68.248  1.00  0.00    -0.143 C  
HETATM   41  O   UNL     1      -8.681  14.598  69.503  1.00  0.00    -0.401 OA 
HETATM   42  H   UNL     1      -8.872  15.529  69.517  1.00  0.00     0.000 HD 
ENDBRANCH  37  40
ENDBRANCH  36  37
ENDBRANCH   4  36
TORSDOF 12
ENDMDL
MODEL       36
REMARK 921   NORMALIZED FREE ENERGY PREDICTED BY IDOCK:   -4.75 KCAL/MOL
REMARK 922        TOTAL FREE ENERGY PREDICTED BY IDOCK:   -9.29 KCAL/MOL
REMARK 923 INTER-LIGAND FREE ENERGY PREDICTED BY IDOCK:   -8.37 KCAL/MOL
REMARK 924 INTRA-LIGAND FREE ENERGY PREDICTED BY IDOCK:   -0.92 KCAL/MOL
REMARK 927      BINDING AFFINITY PREDICTED BY RF-SCORE:    0.00 PKD
ROOT
HETATM    1  C   UNL     1     -12.159   8.197  72.516  1.00  0.00    -0.377 C  
HETATM    2  C   UNL     1     -11.713   7.855  71.121  1.00  0.00    -0.285 C  
HETATM    3  O   UNL     1     -12.506   7.327  70.337  1.00  0.00    -0.032 OA 
HETATM    4  N   UNL     1     -10.390   8.146  70.777  1.00  0.00    -0.195 N  
ENDROOT
BRANCH   4   5
HETATM    5  C   UNL     1     -10.008   7.874  69.422  1.00  0.00    -0.189 A  
HETATM    6  C   UNL     1      -8.900   7.455  66.877  1.00  0.00    -0.132 A  
HETATM    7  C   UNL     1      -9.515   6.588  69.075  1.00  0.00    -0.130 A  
HETATM    8  C   UNL     1     -10.070   8.903  68.448  1.00  0.00    -0.189 A  
HETATM    9  I   UNL     1     -11.073  10.757  68.965  1.00  0.00    -0.398 I  
HETATM   10  I   UNL     1      -9.724   5.010  70.543  1.00  0.00    -0.322 I  
HETATM   11  C   UNL     1      -9.503   8.709  67.168  1.00  0.00    -0.207 A  
HETATM   12  I   UNL     1      -7.659   7.283  65.098  1.00  0.00    -0.125 I  
HETATM   13  C   UNL     1      -8.956   6.364  67.800  1.00  0.00    -0.113 A  
BRANCH  11  14
HETATM   14  C   UNL     1      -9.434   9.861  66.220  1.00  0.00    -0.193 C  
HETATM   15  O   UNL     1      -8.550  10.704  66.330  1.00  0.00    -0.142 OA 
HETATM   16  N   UNL     1     -10.398   9.919  65.238  1.00  0.00    -0.177 N  
HETATM   17  H   UNL     1     -11.097   9.179  65.178  1.00  0.00     0.000 HD 
BRANCH  16  18
HETATM   18  C   UNL     1     -10.436  11.024  64.280  1.00  0.00    -0.359 C  
BRANCH  18  19
HETATM   19  C   UNL     1     -11.538  12.034  64.616  1.00  0.00    -0.297 C  
HETATM   20  H   UNL     1     -11.690  13.664  65.703  1.00  0.00     0.000 HD 
HETATM   21  O   UNL     1     -11.007  13.038  65.495  1.00  0.00    -0.271 OA 
BRANCH  19  22
HETATM   22  C   UNL     1     -12.117  12.678  63.347  1.00  0.00    -0.525 C  
HETATM   23  O   UNL     1     -12.419  14.057  63.554  1.00  0.00    -1.043 OA 
HETATM   24  H   UNL     1     -12.777  14.455  62.769  1.00  0.00     0.000 HD 
ENDBRANCH  19  22
ENDBRANCH  18  19
ENDBRANCH  16  18
ENDBRANCH  11  14
BRANCH  13  25
HETATM   25  C   UNL     1      -8.489   5.007  67.359  1.00  0.00    -0.105 C  
HETATM   26  O   UNL     1      -7.339   4.659  67.601  1.00  0.00    -0.071 OA 
HETATM   27  H   UNL     1     -10.340   4.484  66.537  1.00  0.00     0.000 HD 
HETATM   28  N   UNL     1      -9.374   4.188  66.680  1.00  0.00    -0.163 N  
BRANCH  28  29
HETATM   29  C   UNL     1      -8.919   2.900  66.170  1.00  0.00    -0.147 C  
BRANCH  29  30
HETATM   30  C   UNL     1      -9.156   2.740  64.662  1.00  0.00    -0.132 C  
HETATM   31  H   UNL     1     -10.103   1.471  63.493  1.00  0.00     0.000 HD 
HETATM   32  O   UNL     1      -9.956   1.569  64.426  1.00  0.00    -0.059 OA 
BRANCH  30  33
HETATM   33  C   UNL     1      -9.853   3.980  64.076  1.00  0.00    -0.160 C  
HETATM   34  O   UNL     1     -11.264   3.928  64.273  1.00  0.00    -0.628 OA 
HETATM   35  H   UNL     1     -11.695   4.694  63.911  1.00  0.00     0.000 HD 
ENDBRANCH  30  33
ENDBRANCH  29  30
ENDBRANCH  28  29
ENDBRANCH  13  25
ENDBRANCH   4   5
BRANCH   4  36
HETATM   36  C   UNL     1      -9.381   8.755  71.688  1.00  0.00    -0.275 C  
BRANCH  36  37
HETATM   37  C   UNL     1      -7.912   8.812  71.191  1.00  0.00    -0.138 C  
HETATM   38  O   UNL     1      -7.539  10.112  70.712  1.00  0.00    -0.402 OA 
HETATM   39  H   UNL     1      -6.639  10.147  70.407  1.00  0.00     0.000 HD 
BRANCH  37  40
HETATM   40  C   UNL     1      -6.887   8.432  72.265  1.00  0.00    -0.089 C  
HETATM   41  O   UNL     1      -6.036   9.552  72.530  1.00  0.00    -0.300 OA 
HETATM   42  H   UNL     1      -5.401   9.316  73.196  1.00  0.00     0.000 HD 
ENDBRANCH  37  40
ENDBRANCH  36  37
ENDBRANCH   4  36
TORSDOF 12
ENDMDL
MODEL       37
REMARK 921   NORMALIZED FREE ENERGY PREDICTED BY IDOCK:   -4.75 KCAL/MOL
REMARK 922        TOTAL FREE ENERGY PREDICTED BY IDOCK:   -9.29 KCAL/MOL
REMARK 923 INTER-LIGAND FREE ENERGY PREDICTED BY IDOCK:   -8.23 KCAL/MOL
REMARK 924 INTRA-LIGAND FREE ENERGY PREDICTED BY IDOCK:   -1.06 KCAL/MOL
REMARK 927      BINDING AFFINITY PREDICTED BY RF-SCORE:    0.00 PKD
ROOT
HETATM    1  C   UNL     1      -5.994  10.473  65.540  1.00  0.00    -0.134 C  
HETATM    2  C   UNL     1      -7.352  10.347  66.173  1.00  0.00    -0.131 C  
HETATM    3  O   UNL     1      -8.353  10.244  65.460  1.00  0.00    -0.151 OA 
HETATM    4  N   UNL     1      -7.417  10.367  67.569  1.00  0.00    -0.092 N  
ENDROOT
BRANCH   4   5
HETATM    5  C   UNL     1      -8.713  10.177  68.151  1.00  0.00    -0.122 A  
HETATM    6  C   UNL     1     -11.077   9.869  69.634  1.00  0.00    -0.241 A  
HETATM    7  C   UNL     1      -9.563  11.296  68.357  1.00  0.00    -0.195 A  
HETATM    8  C   UNL     1      -9.120   8.884  68.569  1.00  0.00    -0.137 A  
HETATM    9  I   UNL     1      -7.905   7.181  67.993  1.00  0.00    -0.121 I  
HETATM   10  I   UNL     1      -8.985  13.169  67.436  1.00  0.00    -0.229 I  
HETATM   11  C   UNL     1     -10.300   8.718  69.328  1.00  0.00    -0.221 A  
HETATM   12  I   UNL     1     -12.637   9.704  71.142  1.00  0.00    -0.355 I  
HETATM   13  C   UNL     1     -10.753  11.156  69.100  1.00  0.00    -0.262 A  
BRANCH  11  14
HETATM   14  C   UNL     1     -10.619   7.374  69.896  1.00  0.00    -0.236 C  
HETATM   15  O   UNL     1     -11.402   6.626  69.320  1.00  0.00    -0.291 OA 
HETATM   16  N   UNL     1      -9.996   7.031  71.075  1.00  0.00    -0.189 N  
HETATM   17  H   UNL     1      -9.335   7.682  71.500  1.00  0.00     0.000 HD 
BRANCH  16  18
HETATM   18  C   UNL     1     -10.264   5.750  71.729  1.00  0.00    -0.197 C  
BRANCH  18  19
HETATM   19  C   UNL     1     -11.044   5.928  73.035  1.00  0.00    -0.254 C  
HETATM   20  H   UNL     1     -12.236   4.825  74.142  1.00  0.00     0.000 HD 
HETATM   21  O   UNL     1     -11.753   4.715  73.332  1.00  0.00    -0.283 OA 
BRANCH  19  22
HETATM   22  C   UNL     1     -10.115   6.310  74.198  1.00  0.00    -0.313 C  
HETATM   23  O   UNL     1      -9.502   7.580  73.979  1.00  0.00    -0.344 OA 
HETATM   24  H   UNL     1      -8.927   7.815  74.698  1.00  0.00     0.000 HD 
ENDBRANCH  19  22
ENDBRANCH  18  19
ENDBRANCH  16  18
ENDBRANCH  11  14
BRANCH  13  25
HETATM   25  C   UNL     1     -11.719  12.289  69.283  1.00  0.00    -0.330 C  
HETATM   26  O   UNL     1     -12.526  12.541  68.395  1.00  0.00     0.055 OA 
HETATM   27  H   UNL     1     -11.018  12.763  71.196  1.00  0.00     0.000 HD 
HETATM   28  N   UNL     1     -11.666  13.027  70.453  1.00  0.00    -0.141 N  
BRANCH  28  29
HETATM   29  C   UNL     1     -12.539  14.183  70.618  1.00  0.00    -0.351 C  
BRANCH  29  30
HETATM   30  C   UNL     1     -13.545  14.009  71.763  1.00  0.00    -0.394 C  
HETATM   31  H   UNL     1     -13.618  13.013  73.459  1.00  0.00     0.000 HD 
HETATM   32  O   UNL     1     -12.995  13.121  72.751  1.00  0.00    -0.262 OA 
BRANCH  30  33
HETATM   33  C   UNL     1     -13.894  15.361  72.407  1.00  0.00    -0.562 C  
HETATM   34  O   UNL     1     -13.375  15.459  73.732  1.00  0.00    -0.630 OA 
HETATM   35  H   UNL     1     -13.590  16.295  74.129  1.00  0.00     0.000 HD 
ENDBRANCH  30  33
ENDBRANCH  29  30
ENDBRANCH  28  29
ENDBRANCH  13  25
ENDBRANCH   4   5
BRANCH   4  36
HETATM   36  C   UNL     1      -6.247  10.517  68.480  1.00  0.00    -0.046 C  
BRANCH  36  37
HETATM   37  C   UNL     1      -6.492  11.211  69.846  1.00  0.00    -0.142 C  
HETATM   38  O   UNL     1      -6.626  10.276  70.927  1.00  0.00    -0.330 OA 
HETATM   39  H   UNL     1      -6.775  10.701  71.764  1.00  0.00     0.000 HD 
BRANCH  37  40
HETATM   40  C   UNL     1      -5.378  12.184  70.247  1.00  0.00    -0.120 C  
HETATM   41  O   UNL     1      -5.679  12.754  71.525  1.00  0.00    -0.480 OA 
HETATM   42  H   UNL     1      -4.989  13.358  71.773  1.00  0.00     0.000 HD 
ENDBRANCH  37  40
ENDBRANCH  36  37
ENDBRANCH   4  36
TORSDOF 12
ENDMDL
MODEL       38
REMARK 921   NORMALIZED FREE ENERGY PREDICTED BY IDOCK:   -4.74 KCAL/MOL
REMARK 922        TOTAL FREE ENERGY PREDICTED BY IDOCK:   -9.27 KCAL/MOL
REMARK 923 INTER-LIGAND FREE ENERGY PREDICTED BY IDOCK:   -9.10 KCAL/MOL
REMARK 924 INTRA-LIGAND FREE ENERGY PREDICTED BY IDOCK:   -0.17 KCAL/MOL
REMARK 927      BINDING AFFINITY PREDICTED BY RF-SCORE:    0.00 PKD
ROOT
HETATM    1  C   UNL     1      -9.405   8.341  73.103  1.00  0.00    -0.281 C  
HETATM    2  C   UNL     1      -9.168   8.165  71.629  1.00  0.00    -0.167 C  
HETATM    3  O   UNL     1      -8.019   8.006  71.208  1.00  0.00    -0.083 OA 
HETATM    4  N   UNL     1     -10.282   8.207  70.786  1.00  0.00    -0.193 N  
ENDROOT
BRANCH   4   5
HETATM    5  C   UNL     1     -10.039   7.969  69.394  1.00  0.00    -0.197 A  
HETATM    6  C   UNL     1      -9.187   7.583  66.747  1.00  0.00    -0.156 A  
HETATM    7  C   UNL     1      -9.689   6.666  68.952  1.00  0.00    -0.135 A  
HETATM    8  C   UNL     1     -10.093   9.045  68.471  1.00  0.00    -0.190 A  
HETATM    9  I   UNL     1     -10.885  10.949  69.148  1.00  0.00    -0.322 I  
HETATM   10  I   UNL     1      -9.911   5.042  70.368  1.00  0.00    -0.293 I  
HETATM   11  C   UNL     1      -9.653   8.867  67.140  1.00  0.00    -0.225 A  
HETATM   12  I   UNL     1      -8.117   7.394  64.861  1.00  0.00     0.028 I  
HETATM   13  C   UNL     1      -9.260   6.457  67.626  1.00  0.00    -0.116 A  
BRANCH  11  14
HETATM   14  C   UNL     1      -9.564  10.053  66.237  1.00  0.00    -0.202 C  
HETATM   15  O   UNL     1      -8.558  10.756  66.232  1.00  0.00    -0.150 OA 
HETATM   16  N   UNL     1     -10.650  10.306  65.430  1.00  0.00    -0.060 N  
HETATM   17  H   UNL     1     -11.452   9.676  65.458  1.00  0.00     0.000 HD 
BRANCH  16  18
HETATM   18  C   UNL     1     -10.674  11.461  64.532  1.00  0.00    -0.327 C  
BRANCH  18  19
HETATM   19  C   UNL     1     -11.952  12.289  64.701  1.00  0.00    -0.366 C  
HETATM   20  H   UNL     1     -13.166  12.748  66.177  1.00  0.00     0.000 HD 
HETATM   21  O   UNL     1     -12.373  12.235  66.072  1.00  0.00    -0.609 OA 
BRANCH  19  22
HETATM   22  C   UNL     1     -11.744  13.744  64.255  1.00  0.00    -0.395 C  
HETATM   23  O   UNL     1     -12.566  14.069  63.135  1.00  0.00    -1.062 OA 
HETATM   24  H   UNL     1     -12.436  14.969  62.859  1.00  0.00     0.000 HD 
ENDBRANCH  19  22
ENDBRANCH  18  19
ENDBRANCH  16  18
ENDBRANCH  11  14
BRANCH  13  25
HETATM   25  C   UNL     1      -8.951   5.089  67.091  1.00  0.00    -0.112 C  
HETATM   26  O   UNL     1      -7.831   4.617  67.258  1.00  0.00    -0.089 OA 
HETATM   27  H   UNL     1     -10.878   4.795  66.335  1.00  0.00     0.000 HD 
HETATM   28  N   UNL     1      -9.941   4.400  66.414  1.00  0.00    -0.229 N  
BRANCH  28  29
HETATM   29  C   UNL     1      -9.640   3.105  65.815  1.00  0.00     0.017 C  
BRANCH  29  30
HETATM   30  C   UNL     1      -9.459   3.182  64.293  1.00  0.00    -0.142 C  
HETATM   31  H   UNL     1      -8.778   1.999  62.876  1.00  0.00     0.000 HD 
HETATM   32  O   UNL     1      -8.890   1.950  63.817  1.00  0.00    -0.087 OA 
BRANCH  30  33
HETATM   33  C   UNL     1     -10.799   3.450  63.588  1.00  0.00    -0.202 C  
HETATM   34  O   UNL     1     -10.751   4.645  62.810  1.00  0.00    -0.386 OA 
HETATM   35  H   UNL     1     -11.579   4.811  62.375  1.00  0.00     0.000 HD 
ENDBRANCH  30  33
ENDBRANCH  29  30
ENDBRANCH  28  29
ENDBRANCH  13  25
ENDBRANCH   4   5
BRANCH   4  36
HETATM   36  C   UNL     1     -11.687   8.425  71.233  1.00  0.00    -0.285 C  
BRANCH  36  37
HETATM   37  C   UNL     1     -12.590   7.172  71.381  1.00  0.00    -0.394 C  
HETATM   38  O   UNL     1     -12.277   6.397  72.549  1.00  0.00    -0.523 OA 
HETATM   39  H   UNL     1     -12.830   5.630  72.640  1.00  0.00     0.000 HD 
BRANCH  37  40
HETATM   40  C   UNL     1     -14.084   7.501  71.465  1.00  0.00    -0.427 C  
HETATM   41  O   UNL     1     -14.362   8.148  72.712  1.00  0.00    -0.735 OA 
HETATM   42  H   UNL     1     -15.288   8.351  72.764  1.00  0.00     0.000 HD 
ENDBRANCH  37  40
ENDBRANCH  36  37
ENDBRANCH   4  36
TORSDOF 12
ENDMDL
MODEL       39
REMARK 921   NORMALIZED FREE ENERGY PREDICTED BY IDOCK:   -4.72 KCAL/MOL
REMARK 922        TOTAL FREE ENERGY PREDICTED BY IDOCK:   -9.24 KCAL/MOL
REMARK 923 INTER-LIGAND FREE ENERGY PREDICTED BY IDOCK:   -8.23 KCAL/MOL
REMARK 924 INTRA-LIGAND FREE ENERGY PREDICTED BY IDOCK:   -1.01 KCAL/MOL
REMARK 927      BINDING AFFINITY PREDICTED BY RF-SCORE:    0.00 PKD
ROOT
HETATM    1  C   UNL     1      -5.200   8.878  67.405  1.00  0.00    -0.034 C  
HETATM    2  C   UNL     1      -6.276   9.179  68.412  1.00  0.00    -0.053 C  
HETATM    3  O   UNL     1      -6.073  10.017  69.294  1.00  0.00    -0.040 OA 
HETATM    4  N   UNL     1      -7.476   8.468  68.306  1.00  0.00    -0.094 N  
ENDROOT
BRANCH   4   5
HETATM    5  C   UNL     1      -8.510   8.820  69.234  1.00  0.00    -0.122 A  
HETATM    6  C   UNL     1     -10.766   9.268  70.844  1.00  0.00    -0.301 A  
HETATM    7  C   UNL     1      -8.709   8.031  70.398  1.00  0.00    -0.136 A  
HETATM    8  C   UNL     1      -9.366   9.917  68.959  1.00  0.00    -0.174 A  
HETATM    9  I   UNL     1      -8.855  11.239  67.316  1.00  0.00    -0.167 I  
HETATM   10  I   UNL     1      -7.190   6.565  70.880  1.00  0.00    -0.073 I  
HETATM   11  C   UNL     1     -10.512  10.144  69.753  1.00  0.00    -0.301 A  
HETATM   12  I   UNL     1     -12.719   9.331  71.800  1.00  0.00    -0.527 I  
HETATM   13  C   UNL     1      -9.837   8.246  71.215  1.00  0.00    -0.225 A  
BRANCH  11  14
HETATM   14  C   UNL     1     -11.484  11.203  69.345  1.00  0.00    -0.298 C  
HETATM   15  O   UNL     1     -12.350  10.962  68.510  1.00  0.00    -0.490 OA 
HETATM   16  N   UNL     1     -11.354  12.434  69.945  1.00  0.00    -0.513 N  
HETATM   17  H   UNL     1     -10.629  12.574  70.650  1.00  0.00     0.000 HD 
BRANCH  16  18
HETATM   18  C   UNL     1     -12.236  13.546  69.591  1.00  0.00    -0.247 C  
BRANCH  18  19
HETATM   19  C   UNL     1     -11.611  14.455  68.528  1.00  0.00    -0.314 C  
HETATM   20  H   UNL     1     -11.753  14.673  66.580  1.00  0.00     0.000 HD 
HETATM   21  O   UNL     1     -12.141  14.110  67.239  1.00  0.00    -0.417 OA 
BRANCH  19  22
HETATM   22  C   UNL     1     -11.863  15.939  68.837  1.00  0.00    -0.304 C  
HETATM   23  O   UNL     1     -10.933  16.436  69.798  1.00  0.00    -0.338 OA 
HETATM   24  H   UNL     1     -11.090  17.354  69.989  1.00  0.00     0.000 HD 
ENDBRANCH  19  22
ENDBRANCH  18  19
ENDBRANCH  16  18
ENDBRANCH  11  14
BRANCH  13  25
HETATM   25  C   UNL     1     -10.054   7.490  72.494  1.00  0.00    -0.211 C  
HETATM   26  O   UNL     1      -9.708   7.995  73.557  1.00  0.00    -0.263 OA 
HETATM   27  H   UNL     1     -10.957   5.861  71.543  1.00  0.00     0.000 HD 
HETATM   28  N   UNL     1     -10.633   6.235  72.435  1.00  0.00    -0.204 N  
BRANCH  28  29
HETATM   29  C   UNL     1     -10.777   5.448  73.655  1.00  0.00    -0.293 C  
BRANCH  29  30
HETATM   30  C   UNL     1     -10.077   4.085  73.569  1.00  0.00    -0.133 C  
HETATM   31  H   UNL     1     -10.499   2.230  74.071  1.00  0.00     0.000 HD 
HETATM   32  O   UNL     1     -10.933   3.073  74.124  1.00  0.00    -0.182 OA 
BRANCH  30  33
HETATM   33  C   UNL     1      -9.721   3.735  72.114  1.00  0.00    -0.161 C  
HETATM   34  O   UNL     1     -10.321   2.505  71.712  1.00  0.00    -0.037 OA 
HETATM   35  H   UNL     1     -10.102   2.288  70.813  1.00  0.00     0.000 HD 
ENDBRANCH  30  33
ENDBRANCH  29  30
ENDBRANCH  28  29
ENDBRANCH  13  25
ENDBRANCH   4   5
BRANCH   4  36
HETATM   36  C   UNL     1      -7.767   7.426  67.282  1.00  0.00    -0.116 C  
BRANCH  36  37
HETATM   37  C   UNL     1      -9.181   7.430  66.643  1.00  0.00    -0.158 C  
HETATM   38  O   UNL     1      -9.148   7.227  65.222  1.00  0.00    -0.364 OA 
HETATM   39  H   UNL     1     -10.014   7.229  64.831  1.00  0.00     0.000 HD 
BRANCH  37  40
HETATM   40  C   UNL     1     -10.115   6.358  67.215  1.00  0.00    -0.163 C  
HETATM   41  O   UNL     1     -11.473   6.699  66.917  1.00  0.00    -0.777 OA 
HETATM   42  H   UNL     1     -12.051   6.035  67.272  1.00  0.00     0.000 HD 
ENDBRANCH  37  40
ENDBRANCH  36  37
ENDBRANCH   4  36
TORSDOF 12
ENDMDL
MODEL       40
REMARK 921   NORMALIZED FREE ENERGY PREDICTED BY IDOCK:   -4.70 KCAL/MOL
REMARK 922        TOTAL FREE ENERGY PREDICTED BY IDOCK:   -9.20 KCAL/MOL
REMARK 923 INTER-LIGAND FREE ENERGY PREDICTED BY IDOCK:   -8.15 KCAL/MOL
REMARK 924 INTRA-LIGAND FREE ENERGY PREDICTED BY IDOCK:   -1.05 KCAL/MOL
REMARK 927      BINDING AFFINITY PREDICTED BY RF-SCORE:    0.00 PKD
ROOT
HETATM    1  C   UNL     1      -6.532   3.644  64.213  1.00  0.00    -0.037 C  
HETATM    2  C   UNL     1      -6.970   4.734  65.152  1.00  0.00    -0.062 C  
HETATM    3  O   UNL     1      -6.217   5.100  66.059  1.00  0.00    -0.032 OA 
HETATM    4  N   UNL     1      -8.242   5.280  64.959  1.00  0.00    -0.127 N  
ENDROOT
BRANCH   4   5
HETATM    5  C   UNL     1      -8.610   6.362  65.824  1.00  0.00    -0.148 A  
HETATM    6  C   UNL     1      -9.671   8.485  67.323  1.00  0.00    -0.183 A  
HETATM    7  C   UNL     1      -9.292   6.091  67.040  1.00  0.00    -0.122 A  
HETATM    8  C   UNL     1      -8.344   7.700  65.437  1.00  0.00    -0.128 A  
HETATM    9  I   UNL     1      -7.074   8.045  63.711  1.00  0.00    -0.092 I  
HETATM   10  I   UNL     1      -9.399   4.026  67.682  1.00  0.00    -0.196 I  
HETATM   11  C   UNL     1      -8.885   8.778  66.175  1.00  0.00    -0.201 A  
HETATM   12  I   UNL     1     -10.855  10.082  68.210  1.00  0.00    -0.195 I  
HETATM   13  C   UNL     1      -9.830   7.148  67.802  1.00  0.00    -0.175 A  
BRANCH  11  14
HETATM   14  C   UNL     1      -8.729  10.169  65.654  1.00  0.00    -0.158 C  
HETATM   15  O   UNL     1      -7.793  10.869  66.024  1.00  0.00    -0.159 OA 
HETATM   16  N   UNL     1      -9.676  10.608  64.756  1.00  0.00    -0.264 N  
HETATM   17  H   UNL     1     -10.422   9.976  64.465  1.00  0.00     0.000 HD 
BRANCH  16  18
HETATM   18  C   UNL     1      -9.630  11.966  64.212  1.00  0.00    -0.020 C  
BRANCH  18  19
HETATM   19  C   UNL     1     -10.938  12.343  63.509  1.00  0.00    -0.450 C  
HETATM   20  H   UNL     1     -12.611  11.431  63.031  1.00  0.00     0.000 HD 
HETATM   21  O   UNL     1     -11.801  11.196  63.466  1.00  0.00     0.094 OA 
BRANCH  19  22
HETATM   22  C   UNL     1     -11.635  13.519  64.210  1.00  0.00    -0.397 C  
HETATM   23  O   UNL     1     -12.409  14.289  63.291  1.00  0.00    -1.118 OA 
HETATM   24  H   UNL     1     -12.839  15.016  63.725  1.00  0.00     0.000 HD 
ENDBRANCH  19  22
ENDBRANCH  18  19
ENDBRANCH  16  18
ENDBRANCH  11  14
BRANCH  13  25
HETATM   25  C   UNL     1     -10.493   6.919  69.129  1.00  0.00    -0.207 C  
HETATM   26  O   UNL     1     -11.669   6.572  69.162  1.00  0.00    -0.193 OA 
HETATM   27  H   UNL     1      -8.767   7.356  70.226  1.00  0.00     0.000 HD 
HETATM   28  N   UNL     1      -9.757   7.117  70.284  1.00  0.00    -0.176 N  
BRANCH  28  29
HETATM   29  C   UNL     1     -10.402   6.981  71.585  1.00  0.00    -0.198 C  
BRANCH  29  30
HETATM   30  C   UNL     1     -10.702   8.334  72.244  1.00  0.00    -0.329 C  
HETATM   31  H   UNL     1      -9.926  10.142  72.205  1.00  0.00     0.000 HD 
HETATM   32  O   UNL     1      -9.740   9.305  71.797  1.00  0.00    -0.269 OA 
BRANCH  30  33
HETATM   33  C   UNL     1     -12.125   8.810  71.909  1.00  0.00    -0.363 C  
HETATM   34  O   UNL     1     -12.918   7.752  71.374  1.00  0.00    -0.385 OA 
HETATM   35  H   UNL     1     -13.798   8.046  71.167  1.00  0.00     0.000 HD 
ENDBRANCH  30  33
ENDBRANCH  29  30
ENDBRANCH  28  29
ENDBRANCH  13  25
ENDBRANCH   4   5
BRANCH   4  36
HETATM   36  C   UNL     1      -9.204   4.859  63.902  1.00  0.00     0.102 C  
BRANCH  36  37
HETATM   37  C   UNL     1     -10.209   3.732  64.261  1.00  0.00    -0.235 C  
HETATM   38  O   UNL     1     -11.464   4.239  64.739  1.00  0.00    -0.995 OA 
HETATM   39  H   UNL     1     -12.079   3.549  64.959  1.00  0.00     0.000 HD 
BRANCH  37  40
HETATM   40  C   UNL     1     -10.533   2.803  63.086  1.00  0.00    -0.184 C  
HETATM   41  O   UNL     1     -11.649   1.973  63.427  1.00  0.00    -0.548 OA 
HETATM   42  H   UNL     1     -11.849   1.397  62.699  1.00  0.00     0.000 HD 
ENDBRANCH  37  40
ENDBRANCH  36  37
ENDBRANCH   4  36
TORSDOF 12
ENDMDL
MODEL       41
REMARK 921   NORMALIZED FREE ENERGY PREDICTED BY IDOCK:   -4.70 KCAL/MOL
REMARK 922        TOTAL FREE ENERGY PREDICTED BY IDOCK:   -9.19 KCAL/MOL
REMARK 923 INTER-LIGAND FREE ENERGY PREDICTED BY IDOCK:   -8.33 KCAL/MOL
REMARK 924 INTRA-LIGAND FREE ENERGY PREDICTED BY IDOCK:   -0.87 KCAL/MOL
REMARK 927      BINDING AFFINITY PREDICTED BY RF-SCORE:    0.00 PKD
ROOT
HETATM    1  C   UNL     1      -5.386  11.793  67.101  1.00  0.00    -0.113 C  
HETATM    2  C   UNL     1      -6.494  11.623  68.103  1.00  0.00    -0.054 C  
HETATM    3  O   UNL     1      -6.383  12.117  69.228  1.00  0.00    -0.087 OA 
HETATM    4  N   UNL     1      -7.615  10.887  67.708  1.00  0.00    -0.094 N  
ENDROOT
BRANCH   4   5
HETATM    5  C   UNL     1      -8.686  10.796  68.656  1.00  0.00    -0.152 A  
HETATM    6  C   UNL     1     -10.996  10.472  70.217  1.00  0.00    -0.235 A  
HETATM    7  C   UNL     1      -8.868   9.601  69.401  1.00  0.00    -0.180 A  
HETATM    8  C   UNL     1      -9.593  11.876  68.806  1.00  0.00    -0.012 A  
HETATM    9  I   UNL     1      -9.119  13.764  67.847  1.00  0.00    -0.219 I  
HETATM   10  I   UNL     1      -7.283   8.126  69.321  1.00  0.00    -0.075 I  
HETATM   11  C   UNL     1     -10.766  11.720  69.578  1.00  0.00     0.046 A  
HETATM   12  I   UNL     1     -12.971  10.069  71.039  1.00  0.00    -0.267 I  
HETATM   13  C   UNL     1     -10.023   9.425  70.189  1.00  0.00    -0.269 A  
BRANCH  11  14
HETATM   14  C   UNL     1     -11.785  12.814  69.584  1.00  0.00    -0.302 C  
HETATM   15  O   UNL     1     -12.401  13.095  68.562  1.00  0.00    -0.127 OA 
HETATM   16  N   UNL     1     -11.985  13.472  70.777  1.00  0.00    -0.516 N  
HETATM   17  H   UNL     1     -11.460  13.183  71.603  1.00  0.00     0.000 HD 
BRANCH  16  18
HETATM   18  C   UNL     1     -12.937  14.578  70.880  1.00  0.00    -0.361 C  
BRANCH  18  19
HETATM   19  C   UNL     1     -13.700  14.553  72.208  1.00  0.00    -0.458 C  
HETATM   20  H   UNL     1     -14.498  13.179  73.365  1.00  0.00     0.000 HD 
HETATM   21  O   UNL     1     -14.024  13.194  72.541  1.00  0.00    -0.676 OA 
BRANCH  19  22
HETATM   22  C   UNL     1     -12.889  15.208  73.336  1.00  0.00    -0.537 C  
HETATM   23  O   UNL     1     -13.508  16.410  73.793  1.00  0.00    -0.890 OA 
HETATM   24  H   UNL     1     -13.006  16.815  74.491  1.00  0.00     0.000 HD 
ENDBRANCH  19  22
ENDBRANCH  18  19
ENDBRANCH  16  18
ENDBRANCH  11  14
BRANCH  13  25
HETATM   25  C   UNL     1     -10.226   8.213  71.051  1.00  0.00    -0.188 C  
HETATM   26  O   UNL     1      -9.772   8.203  72.191  1.00  0.00    -0.197 OA 
HETATM   27  H   UNL     1     -11.326   7.189  69.597  1.00  0.00     0.000 HD 
HETATM   28  N   UNL     1     -10.916   7.133  70.529  1.00  0.00    -0.253 N  
BRANCH  28  29
HETATM   29  C   UNL     1     -11.054   5.914  71.318  1.00  0.00    -0.241 C  
BRANCH  29  30
HETATM   30  C   UNL     1     -10.064   4.820  70.899  1.00  0.00    -0.205 C  
HETATM   31  H   UNL     1      -9.035   4.370  69.283  1.00  0.00     0.000 HD 
HETATM   32  O   UNL     1      -9.647   5.048  69.542  1.00  0.00    -0.136 OA 
BRANCH  30  33
HETATM   33  C   UNL     1      -8.839   4.795  71.829  1.00  0.00    -0.123 C  
HETATM   34  O   UNL     1      -9.151   5.316  73.119  1.00  0.00    -0.127 OA 
HETATM   35  H   UNL     1      -8.395   5.301  73.694  1.00  0.00     0.000 HD 
ENDBRANCH  30  33
ENDBRANCH  29  30
ENDBRANCH  28  29
ENDBRANCH  13  25
ENDBRANCH   4   5
BRANCH   4  36
HETATM   36  C   UNL     1      -7.792  10.244  66.376  1.00  0.00    -0.119 C  
BRANCH  36  37
HETATM   37  C   UNL     1      -8.818  10.887  65.405  1.00  0.00    -0.180 C  
HETATM   38  O   UNL     1      -8.284  11.089  64.088  1.00  0.00    -0.363 OA 
HETATM   39  H   UNL     1      -8.912  11.482  63.493  1.00  0.00     0.000 HD 
BRANCH  37  40
HETATM   40  C   UNL     1     -10.099  10.064  65.234  1.00  0.00    -0.229 C  
HETATM   41  O   UNL     1     -10.007   8.870  66.019  1.00  0.00    -0.390 OA 
HETATM   42  H   UNL     1     -10.801   8.359  65.913  1.00  0.00     0.000 HD 
ENDBRANCH  37  40
ENDBRANCH  36  37
ENDBRANCH   4  36
TORSDOF 12
ENDMDL
MODEL       42
REMARK 921   NORMALIZED FREE ENERGY PREDICTED BY IDOCK:   -4.60 KCAL/MOL
REMARK 922        TOTAL FREE ENERGY PREDICTED BY IDOCK:   -9.03 KCAL/MOL
REMARK 923 INTER-LIGAND FREE ENERGY PREDICTED BY IDOCK:   -9.31 KCAL/MOL
REMARK 924 INTRA-LIGAND FREE ENERGY PREDICTED BY IDOCK:    0.28 KCAL/MOL
REMARK 927      BINDING AFFINITY PREDICTED BY RF-SCORE:    0.00 PKD
ROOT
HETATM    1  C   UNL     1      -5.801   5.880  64.988  1.00  0.00    -0.025 C  
HETATM    2  C   UNL     1      -6.488   6.978  65.752  1.00  0.00    -0.051 C  
HETATM    3  O   UNL     1      -5.825   7.733  66.468  1.00  0.00    -0.038 OA 
HETATM    4  N   UNL     1      -7.876   7.082  65.624  1.00  0.00    -0.105 N  
ENDROOT
BRANCH   4   5
HETATM    5  C   UNL     1      -8.500   8.177  66.308  1.00  0.00    -0.131 A  
HETATM    6  C   UNL     1     -10.060  10.136  67.577  1.00  0.00    -0.201 A  
HETATM    7  C   UNL     1      -8.728   8.094  67.707  1.00  0.00    -0.130 A  
HETATM    8  C   UNL     1      -8.937   9.312  65.579  1.00  0.00    -0.205 A  
HETATM    9  I   UNL     1      -8.330   9.503  63.504  1.00  0.00    -0.220 I  
HETATM   10  I   UNL     1      -7.780   6.468  68.778  1.00  0.00    -0.112 I  
HETATM   11  C   UNL     1      -9.734  10.297  66.202  1.00  0.00    -0.266 A  
HETATM   12  I   UNL     1     -11.618  11.390  68.434  1.00  0.00    -0.299 I  
HETATM   13  C   UNL     1      -9.510   9.071  68.357  1.00  0.00    -0.154 A  
BRANCH  11  14
HETATM   14  C   UNL     1     -10.318  11.394  65.373  1.00  0.00    -0.279 C  
HETATM   15  O   UNL     1     -11.233  11.161  64.590  1.00  0.00    -0.167 OA 
HETATM   16  N   UNL     1      -9.782  12.652  65.536  1.00  0.00    -0.434 N  
HETATM   17  H   UNL     1      -9.037  12.795  66.218  1.00  0.00     0.000 HD 
BRANCH  16  18
HETATM   18  C   UNL     1     -10.263  13.787  64.748  1.00  0.00    -0.335 C  
BRANCH  18  19
HETATM   19  C   UNL     1     -10.926  14.853  65.627  1.00  0.00    -0.344 C  
HETATM   20  H   UNL     1     -10.702  15.526  67.460  1.00  0.00     0.000 HD 
HETATM   21  O   UNL     1     -10.291  14.866  66.915  1.00  0.00    -0.258 OA 
BRANCH  19  22
HETATM   22  C   UNL     1     -10.856  16.242  64.976  1.00  0.00    -0.320 C  
HETATM   23  O   UNL     1     -11.546  16.267  63.727  1.00  0.00    -1.539 OA 
HETATM   24  H   UNL     1     -11.503  17.127  63.324  1.00  0.00     0.000 HD 
ENDBRANCH  19  22
ENDBRANCH  18  19
ENDBRANCH  16  18
ENDBRANCH  11  14
BRANCH  13  25
HETATM   25  C   UNL     1      -9.719   9.069  69.844  1.00  0.00    -0.183 C  
HETATM   26  O   UNL     1      -8.895   9.618  70.567  1.00  0.00    -0.225 OA 
HETATM   27  H   UNL     1     -11.532   8.033  69.729  1.00  0.00     0.000 HD 
HETATM   28  N   UNL     1     -10.837   8.437  70.357  1.00  0.00    -0.233 N  
BRANCH  28  29
HETATM   29  C   UNL     1     -11.019   8.351  71.802  1.00  0.00    -0.291 C  
BRANCH  29  30
HETATM   30  C   UNL     1     -11.954   7.207  72.216  1.00  0.00    -0.218 C  
HETATM   31  H   UNL     1     -13.274   6.051  71.325  1.00  0.00     0.000 HD 
HETATM   32  O   UNL     1     -12.695   6.758  71.069  1.00  0.00    -0.321 OA 
BRANCH  30  33
HETATM   33  C   UNL     1     -11.164   6.036  72.823  1.00  0.00    -0.261 C  
HETATM   34  O   UNL     1     -12.026   4.969  73.212  1.00  0.00    -0.493 OA 
HETATM   35  H   UNL     1     -11.538   4.245  73.587  1.00  0.00     0.000 HD 
ENDBRANCH  30  33
ENDBRANCH  29  30
ENDBRANCH  28  29
ENDBRANCH  13  25
ENDBRANCH   4   5
BRANCH   4  36
HETATM   36  C   UNL     1      -8.731   6.183  64.800  1.00  0.00     0.168 C  
BRANCH  36  37
HETATM   37  C   UNL     1      -9.259   4.887  65.473  1.00  0.00    -0.157 C  
HETATM   38  O   UNL     1      -8.397   4.415  66.519  1.00  0.00    -0.106 OA 
HETATM   39  H   UNL     1      -8.720   3.621  66.930  1.00  0.00     0.000 HD 
BRANCH  37  40
HETATM   40  C   UNL     1     -10.652   5.043  66.092  1.00  0.00    -0.265 C  
HETATM   41  O   UNL     1     -11.645   4.648  65.140  1.00  0.00    -1.107 OA 
HETATM   42  H   UNL     1     -12.508   4.745  65.524  1.00  0.00     0.000 HD 
ENDBRANCH  37  40
ENDBRANCH  36  37
ENDBRANCH   4  36
TORSDOF 12
ENDMDL
MODEL       43
REMARK 921   NORMALIZED FREE ENERGY PREDICTED BY IDOCK:   -4.60 KCAL/MOL
REMARK 922        TOTAL FREE ENERGY PREDICTED BY IDOCK:   -9.03 KCAL/MOL
REMARK 923 INTER-LIGAND FREE ENERGY PREDICTED BY IDOCK:   -7.80 KCAL/MOL
REMARK 924 INTRA-LIGAND FREE ENERGY PREDICTED BY IDOCK:   -1.23 KCAL/MOL
REMARK 927      BINDING AFFINITY PREDICTED BY RF-SCORE:    0.00 PKD
ROOT
HETATM    1  C   UNL     1     -13.246  15.021  70.090  1.00  0.00     0.095 C  
HETATM    2  C   UNL     1     -11.797  14.856  69.721  1.00  0.00    -0.315 C  
HETATM    3  O   UNL     1     -10.925  15.012  70.579  1.00  0.00    -0.245 OA 
HETATM    4  N   UNL     1     -11.502  14.542  68.391  1.00  0.00    -0.286 N  
ENDROOT
BRANCH   4   5
HETATM    5  C   UNL     1     -10.120  14.323  68.079  1.00  0.00    -0.227 A  
HETATM    6  C   UNL     1      -7.346  13.963  67.847  1.00  0.00    -0.154 A  
HETATM    7  C   UNL     1      -9.570  13.019  68.194  1.00  0.00    -0.227 A  
HETATM    8  C   UNL     1      -9.295  15.417  67.712  1.00  0.00    -0.195 A  
HETATM    9  I   UNL     1     -10.236  17.328  67.296  1.00  0.00    -0.294 I  
HETATM   10  I   UNL     1     -10.952  11.376  68.477  1.00  0.00    -0.375 I  
HETATM   11  C   UNL     1      -7.895  15.251  67.606  1.00  0.00    -0.177 A  
HETATM   12  I   UNL     1      -5.193  13.780  68.113  1.00  0.00    -0.055 I  
HETATM   13  C   UNL     1      -8.178  12.824  68.079  1.00  0.00    -0.168 A  
BRANCH  11  14
HETATM   14  C   UNL     1      -7.034  16.451  67.382  1.00  0.00    -0.165 C  
HETATM   15  O   UNL     1      -6.552  16.671  66.276  1.00  0.00    -0.170 OA 
HETATM   16  N   UNL     1      -6.820  17.276  68.463  1.00  0.00    -0.188 N  
HETATM   17  H   UNL     1      -7.264  17.058  69.356  1.00  0.00     0.000 HD 
BRANCH  16  18
HETATM   18  C   UNL     1      -5.966  18.459  68.355  1.00  0.00    -0.185 C  
BRANCH  18  19
HETATM   19  C   UNL     1      -6.728  19.746  68.690  1.00  0.00    -0.306 C  
HETATM   20  H   UNL     1      -6.401  21.350  69.776  1.00  0.00     0.000 HD 
HETATM   21  O   UNL     1      -5.929  20.553  69.569  1.00  0.00    -0.339 OA 
BRANCH  19  22
HETATM   22  C   UNL     1      -7.094  20.529  67.420  1.00  0.00    -0.323 C  
HETATM   23  O   UNL     1      -7.027  19.701  66.260  1.00  0.00    -0.212 OA 
HETATM   24  H   UNL     1      -7.253  20.185  65.475  1.00  0.00     0.000 HD 
ENDBRANCH  19  22
ENDBRANCH  18  19
ENDBRANCH  16  18
ENDBRANCH  11  14
BRANCH  13  25
HETATM   25  C   UNL     1      -7.556  11.458  68.119  1.00  0.00    -0.114 C  
HETATM   26  O   UNL     1      -7.188  10.997  69.194  1.00  0.00    -0.101 OA 
HETATM   27  H   UNL     1      -7.772  11.146  66.063  1.00  0.00     0.000 HD 
HETATM   28  N   UNL     1      -7.409  10.759  66.934  1.00  0.00    -0.112 N  
BRANCH  28  29
HETATM   29  C   UNL     1      -6.734   9.466  66.937  1.00  0.00    -0.076 C  
BRANCH  29  30
HETATM   30  C   UNL     1      -7.665   8.309  66.549  1.00  0.00    -0.092 C  
HETATM   31  H   UNL     1      -9.479   7.716  67.027  1.00  0.00     0.000 HD 
HETATM   32  O   UNL     1      -8.904   8.432  67.268  1.00  0.00    -0.128 OA 
BRANCH  30  33
HETATM   33  C   UNL     1      -7.934   8.299  65.034  1.00  0.00    -0.141 C  
HETATM   34  O   UNL     1      -8.499   7.059  64.613  1.00  0.00    -0.334 OA 
HETATM   35  H   UNL     1      -8.665   7.052  63.677  1.00  0.00     0.000 HD 
ENDBRANCH  30  33
ENDBRANCH  29  30
ENDBRANCH  28  29
ENDBRANCH  13  25
ENDBRANCH   4   5
BRANCH   4  36
HETATM   36  C   UNL     1     -12.509  14.370  67.307  1.00  0.00     0.154 C  
BRANCH  36  37
HETATM   37  C   UNL     1     -12.021  13.743  65.973  1.00  0.00    -0.414 C  
HETATM   38  O   UNL     1     -12.879  12.691  65.508  1.00  0.00    -0.513 OA 
HETATM   39  H   UNL     1     -12.580  12.308  64.692  1.00  0.00     0.000 HD 
BRANCH  37  40
HETATM   40  C   UNL     1     -11.909  14.754  64.827  1.00  0.00    -0.423 C  
HETATM   41  O   UNL     1     -12.369  14.151  63.613  1.00  0.00    -0.998 OA 
HETATM   42  H   UNL     1     -12.300  14.778  62.902  1.00  0.00     0.000 HD 
ENDBRANCH  37  40
ENDBRANCH  36  37
ENDBRANCH   4  36
TORSDOF 12
ENDMDL
MODEL       44
REMARK 921   NORMALIZED FREE ENERGY PREDICTED BY IDOCK:   -4.57 KCAL/MOL
REMARK 922        TOTAL FREE ENERGY PREDICTED BY IDOCK:   -8.98 KCAL/MOL
REMARK 923 INTER-LIGAND FREE ENERGY PREDICTED BY IDOCK:   -8.21 KCAL/MOL
REMARK 924 INTRA-LIGAND FREE ENERGY PREDICTED BY IDOCK:   -0.78 KCAL/MOL
REMARK 927      BINDING AFFINITY PREDICTED BY RF-SCORE:    0.00 PKD
ROOT
HETATM    1  C   UNL     1      -5.125  10.346  69.187  1.00  0.00    -0.038 C  
HETATM    2  C   UNL     1      -6.570  10.208  69.580  1.00  0.00    -0.069 C  
HETATM    3  O   UNL     1      -6.888  10.254  70.772  1.00  0.00    -0.334 OA 
HETATM    4  N   UNL     1      -7.502  10.015  68.556  1.00  0.00    -0.084 N  
ENDROOT
BRANCH   4   5
HETATM    5  C   UNL     1      -8.879   9.954  68.949  1.00  0.00    -0.145 A  
HETATM    6  C   UNL     1     -11.447   9.906  70.082  1.00  0.00    -0.248 A  
HETATM    7  C   UNL     1      -9.657  11.142  68.975  1.00  0.00    -0.083 A  
HETATM    8  C   UNL     1      -9.444   8.721  69.364  1.00  0.00    -0.161 A  
HETATM    9  I   UNL     1      -8.298   6.904  69.054  1.00  0.00    -0.124 I  
HETATM   10  I   UNL     1      -8.806  12.911  68.060  1.00  0.00    -0.170 I  
HETATM   11  C   UNL     1     -10.730   8.686  69.948  1.00  0.00    -0.227 A  
HETATM   12  I   UNL     1     -13.215   9.943  71.350  1.00  0.00    -0.356 I  
HETATM   13  C   UNL     1     -10.948  11.132  69.541  1.00  0.00    -0.276 A  
BRANCH  11  14
HETATM   14  C   UNL     1     -11.233   7.403  70.527  1.00  0.00    -0.274 C  
HETATM   15  O   UNL     1     -11.880   6.623  69.837  1.00  0.00    -0.340 OA 
HETATM   16  N   UNL     1     -10.933   7.155  71.847  1.00  0.00    -0.228 N  
HETATM   17  H   UNL     1     -10.372   7.828  72.369  1.00  0.00     0.000 HD 
BRANCH  16  18
HETATM   18  C   UNL     1     -11.406   5.942  72.515  1.00  0.00    -0.304 C  
BRANCH  18  19
HETATM   19  C   UNL     1     -10.500   5.543  73.684  1.00  0.00    -0.262 C  
HETATM   20  H   UNL     1      -9.818   3.866  74.448  1.00  0.00     0.000 HD 
HETATM   21  O   UNL     1     -10.380   4.113  73.723  1.00  0.00    -0.144 OA 
BRANCH  19  22
HETATM   22  C   UNL     1      -9.115   6.199  73.572  1.00  0.00    -0.127 C  
HETATM   23  O   UNL     1      -8.284   5.504  72.643  1.00  0.00    -0.112 OA 
HETATM   24  H   UNL     1      -7.427   5.910  72.574  1.00  0.00     0.000 HD 
ENDBRANCH  19  22
ENDBRANCH  18  19
ENDBRANCH  16  18
ENDBRANCH  11  14
BRANCH  13  25
HETATM   25  C   UNL     1     -11.837  12.341  69.526  1.00  0.00    -0.315 C  
HETATM   26  O   UNL     1     -12.409  12.654  68.487  1.00  0.00    -0.036 OA 
HETATM   27  H   UNL     1     -11.534  12.763  71.551  1.00  0.00     0.000 HD 
HETATM   28  N   UNL     1     -11.980  13.076  70.689  1.00  0.00    -0.241 N  
BRANCH  28  29
HETATM   29  C   UNL     1     -12.773  14.300  70.678  1.00  0.00    -0.343 C  
BRANCH  29  30
HETATM   30  C   UNL     1     -13.904  14.286  71.715  1.00  0.00    -0.430 C  
HETATM   31  H   UNL     1     -14.235  13.423  73.452  1.00  0.00     0.000 HD 
HETATM   32  O   UNL     1     -13.535  13.432  72.810  1.00  0.00    -0.607 OA 
BRANCH  30  33
HETATM   33  C   UNL     1     -14.202  15.704  72.230  1.00  0.00    -0.448 C  
HETATM   34  O   UNL     1     -13.558  15.953  73.478  1.00  0.00    -0.708 OA 
HETATM   35  H   UNL     1     -13.742  16.829  73.796  1.00  0.00     0.000 HD 
ENDBRANCH  30  33
ENDBRANCH  29  30
ENDBRANCH  28  29
ENDBRANCH  13  25
ENDBRANCH   4   5
BRANCH   4  36
HETATM   36  C   UNL     1      -7.174   9.922  67.106  1.00  0.00    -0.086 C  
BRANCH  36  37
HETATM   37  C   UNL     1      -8.362   9.847  66.110  1.00  0.00    -0.122 C  
HETATM   38  O   UNL     1      -8.305  10.866  65.101  1.00  0.00    -0.332 OA 
HETATM   39  H   UNL     1      -9.032  10.820  64.491  1.00  0.00     0.000 HD 
BRANCH  37  40
HETATM   40  C   UNL     1      -8.459   8.508  65.372  1.00  0.00    -0.173 C  
HETATM   41  O   UNL     1      -9.778   7.972  65.526  1.00  0.00    -0.258 OA 
HETATM   42  H   UNL     1      -9.838   7.142  65.069  1.00  0.00     0.000 HD 
ENDBRANCH  37  40
ENDBRANCH  36  37
ENDBRANCH   4  36
TORSDOF 12
ENDMDL
MODEL       45
REMARK 921   NORMALIZED FREE ENERGY PREDICTED BY IDOCK:   -4.56 KCAL/MOL
REMARK 922        TOTAL FREE ENERGY PREDICTED BY IDOCK:   -8.96 KCAL/MOL
REMARK 923 INTER-LIGAND FREE ENERGY PREDICTED BY IDOCK:   -8.96 KCAL/MOL
REMARK 924 INTRA-LIGAND FREE ENERGY PREDICTED BY IDOCK:    0.00 KCAL/MOL
REMARK 927      BINDING AFFINITY PREDICTED BY RF-SCORE:    0.00 PKD
ROOT
HETATM    1  C   UNL     1     -12.420  14.211  64.455  1.00  0.00    -0.350 C  
HETATM    2  C   UNL     1     -11.973  12.921  65.086  1.00  0.00    -0.414 C  
HETATM    3  O   UNL     1     -12.762  11.976  65.174  1.00  0.00    -0.335 OA 
HETATM    4  N   UNL     1     -10.662  12.857  65.565  1.00  0.00    -0.275 N  
ENDROOT
BRANCH   4   5
HETATM    5  C   UNL     1     -10.238  11.596  66.100  1.00  0.00    -0.226 A  
HETATM    6  C   UNL     1      -9.066   9.304  67.220  1.00  0.00    -0.126 A  
HETATM    7  C   UNL     1     -10.406  11.327  67.484  1.00  0.00    -0.194 A  
HETATM    8  C   UNL     1      -9.603  10.647  65.260  1.00  0.00    -0.241 A  
HETATM    9  I   UNL     1      -9.610  10.995  63.118  1.00  0.00    -0.382 I  
HETATM   10  I   UNL     1     -11.634  12.699  68.625  1.00  0.00    -0.364 I  
HETATM   11  C   UNL     1      -8.997   9.496  65.813  1.00  0.00    -0.219 A  
HETATM   12  I   UNL     1      -7.791   7.794  68.130  1.00  0.00    -0.124 I  
HETATM   13  C   UNL     1      -9.823  10.179  68.060  1.00  0.00    -0.169 A  
BRANCH  11  14
HETATM   14  C   UNL     1      -8.193   8.599  64.929  1.00  0.00    -0.157 C  
HETATM   15  O   UNL     1      -7.121   8.978  64.471  1.00  0.00    -0.088 OA 
HETATM   16  N   UNL     1      -8.715   7.353  64.666  1.00  0.00    -0.315 N  
HETATM   17  H   UNL     1      -9.601   7.080  65.091  1.00  0.00     0.000 HD 
BRANCH  16  18
HETATM   18  C   UNL     1      -8.020   6.412  63.786  1.00  0.00    -0.086 C  
BRANCH  18  19
HETATM   19  C   UNL     1      -8.616   5.003  63.873  1.00  0.00    -0.113 C  
HETATM   20  H   UNL     1      -9.208   3.629  62.599  1.00  0.00     0.000 HD 
HETATM   21  O   UNL     1      -8.839   4.502  62.546  1.00  0.00    -0.112 OA 
BRANCH  19  22
HETATM   22  C   UNL     1      -7.703   4.054  64.663  1.00  0.00    -0.081 C  
HETATM   23  O   UNL     1      -7.092   4.719  65.768  1.00  0.00    -0.064 OA 
HETATM   24  H   UNL     1      -6.527   4.132  66.257  1.00  0.00     0.000 HD 
ENDBRANCH  19  22
ENDBRANCH  18  19
ENDBRANCH  16  18
ENDBRANCH  11  14
BRANCH  13  25
HETATM   25  C   UNL     1     -10.034   9.812  69.500  1.00  0.00    -0.214 C  
HETATM   26  O   UNL     1      -9.080   9.830  70.270  1.00  0.00    -0.237 OA 
HETATM   27  H   UNL     1     -12.088   9.497  69.266  1.00  0.00     0.000 HD 
HETATM   28  N   UNL     1     -11.303   9.454  69.916  1.00  0.00    -0.155 N  
BRANCH  28  29
HETATM   29  C   UNL     1     -11.516   9.014  71.291  1.00  0.00    -0.320 C  
BRANCH  29  30
HETATM   30  C   UNL     1     -12.680   9.744  71.975  1.00  0.00    -0.376 C  
HETATM   31  H   UNL     1     -13.757  11.353  71.625  1.00  0.00     0.000 HD 
HETATM   32  O   UNL     1     -13.037  10.902  71.201  1.00  0.00    -0.355 OA 
BRANCH  30  33
HETATM   33  C   UNL     1     -13.899   8.819  72.131  1.00  0.00    -0.457 C  
HETATM   34  O   UNL     1     -14.373   8.803  73.477  1.00  0.00    -1.095 OA 
HETATM   35  H   UNL     1     -15.125   8.231  73.574  1.00  0.00     0.000 HD 
ENDBRANCH  30  33
ENDBRANCH  29  30
ENDBRANCH  28  29
ENDBRANCH  13  25
ENDBRANCH   4   5
BRANCH   4  36
HETATM   36  C   UNL     1      -9.675  13.971  65.513  1.00  0.00    -0.109 C  
BRANCH  36  37
HETATM   37  C   UNL     1      -9.129  14.505  66.865  1.00  0.00    -0.255 C  
HETATM   38  O   UNL     1      -7.842  13.962  67.195  1.00  0.00    -0.325 OA 
HETATM   39  H   UNL     1      -7.508  14.289  68.023  1.00  0.00     0.000 HD 
BRANCH  37  40
HETATM   40  C   UNL     1      -8.984  16.029  66.908  1.00  0.00    -0.227 C  
HETATM   41  O   UNL     1      -8.747  16.524  65.585  1.00  0.00    -0.401 OA 
HETATM   42  H   UNL     1      -8.656  17.469  65.612  1.00  0.00     0.000 HD 
ENDBRANCH  37  40
ENDBRANCH  36  37
ENDBRANCH   4  36
TORSDOF 12
ENDMDL
MODEL       46
REMARK 921   NORMALIZED FREE ENERGY PREDICTED BY IDOCK:   -4.53 KCAL/MOL
REMARK 922        TOTAL FREE ENERGY PREDICTED BY IDOCK:   -8.90 KCAL/MOL
REMARK 923 INTER-LIGAND FREE ENERGY PREDICTED BY IDOCK:   -7.75 KCAL/MOL
REMARK 924 INTRA-LIGAND FREE ENERGY PREDICTED BY IDOCK:   -1.16 KCAL/MOL
REMARK 927      BINDING AFFINITY PREDICTED BY RF-SCORE:    0.00 PKD
ROOT
HETATM    1  C   UNL     1     -11.895   7.054  72.350  1.00  0.00    -0.215 C  
HETATM    2  C   UNL     1     -11.551   7.373  70.921  1.00  0.00    -0.291 C  
HETATM    3  O   UNL     1     -12.225   6.890  70.007  1.00  0.00    -0.118 OA 
HETATM    4  N   UNL     1     -10.452   8.205  70.692  1.00  0.00    -0.207 N  
ENDROOT
BRANCH   4   5
HETATM    5  C   UNL     1     -10.184   8.548  69.326  1.00  0.00    -0.208 A  
HETATM    6  C   UNL     1      -9.330   9.383  66.785  1.00  0.00    -0.158 A  
HETATM    7  C   UNL     1      -9.433   7.660  68.511  1.00  0.00    -0.147 A  
HETATM    8  C   UNL     1     -10.620   9.795  68.810  1.00  0.00    -0.219 A  
HETATM    9  I   UNL     1     -11.982  10.989  70.006  1.00  0.00    -0.457 I  
HETATM   10  I   UNL     1      -9.060   5.672  69.286  1.00  0.00    -0.154 I  
HETATM   11  C   UNL     1     -10.186  10.232  67.538  1.00  0.00    -0.254 A  
HETATM   12  I   UNL     1      -8.314  10.203  65.045  1.00  0.00    -0.167 I  
HETATM   13  C   UNL     1      -8.998   8.066  67.233  1.00  0.00    -0.148 A  
BRANCH  11  14
HETATM   14  C   UNL     1     -10.523  11.617  67.089  1.00  0.00    -0.220 C  
HETATM   15  O   UNL     1      -9.851  12.572  67.462  1.00  0.00    -0.194 OA 
HETATM   16  N   UNL     1     -11.607  11.754  66.252  1.00  0.00    -0.248 N  
HETATM   17  H   UNL     1     -12.119  10.923  65.954  1.00  0.00     0.000 HD 
BRANCH  16  18
HETATM   18  C   UNL     1     -12.039  13.070  65.781  1.00  0.00    -0.454 C  
BRANCH  18  19
HETATM   19  C   UNL     1     -12.353  13.066  64.282  1.00  0.00    -0.366 C  
HETATM   20  H   UNL     1     -12.851  14.402  62.929  1.00  0.00     0.000 HD 
HETATM   21  O   UNL     1     -12.656  14.404  63.859  1.00  0.00    -0.814 OA 
BRANCH  19  22
HETATM   22  C   UNL     1     -11.187  12.491  63.464  1.00  0.00    -0.462 C  
HETATM   23  O   UNL     1     -11.440  11.143  63.072  1.00  0.00    -0.812 OA 
HETATM   24  H   UNL     1     -10.718  10.787  62.567  1.00  0.00     0.000 HD 
ENDBRANCH  19  22
ENDBRANCH  18  19
ENDBRANCH  16  18
ENDBRANCH  11  14
BRANCH  13  25
HETATM   25  C   UNL     1      -8.266   7.140  66.306  1.00  0.00    -0.124 C  
HETATM   26  O   UNL     1      -8.906   6.436  65.531  1.00  0.00    -0.119 OA 
HETATM   27  H   UNL     1      -6.377   7.735  66.976  1.00  0.00     0.000 HD 
HETATM   28  N   UNL     1      -6.884   7.101  66.358  1.00  0.00    -0.060 N  
BRANCH  28  29
HETATM   29  C   UNL     1      -6.156   6.150  65.526  1.00  0.00    -0.030 C  
BRANCH  29  30
HETATM   30  C   UNL     1      -5.692   4.912  66.305  1.00  0.00    -0.018 C  
HETATM   31  H   UNL     1      -5.240   4.489  68.172  1.00  0.00     0.000 HD 
HETATM   32  O   UNL     1      -5.528   5.255  67.691  1.00  0.00    -0.011 OA 
BRANCH  30  33
HETATM   33  C   UNL     1      -6.700   3.759  66.164  1.00  0.00    -0.049 C  
HETATM   34  O   UNL     1      -6.075   2.492  66.360  1.00  0.00    -0.023 OA 
HETATM   35  H   UNL     1      -6.697   1.779  66.273  1.00  0.00     0.000 HD 
ENDBRANCH  30  33
ENDBRANCH  29  30
ENDBRANCH  28  29
ENDBRANCH  13  25
ENDBRANCH   4   5
BRANCH   4  36
HETATM   36  C   UNL     1      -9.586   8.792  71.752  1.00  0.00    -0.301 C  
BRANCH  36  37
HETATM   37  C   UNL     1      -8.220   8.104  72.019  1.00  0.00    -0.149 C  
HETATM   38  O   UNL     1      -7.144   9.044  72.157  1.00  0.00    -0.320 OA 
HETATM   39  H   UNL     1      -6.308   8.622  72.321  1.00  0.00     0.000 HD 
BRANCH  37  40
HETATM   40  C   UNL     1      -8.208   7.238  73.283  1.00  0.00    -0.111 C  
HETATM   41  O   UNL     1      -8.808   5.970  72.999  1.00  0.00    -0.123 OA 
HETATM   42  H   UNL     1      -8.801   5.433  73.783  1.00  0.00     0.000 HD 
ENDBRANCH  37  40
ENDBRANCH  36  37
ENDBRANCH   4  36
TORSDOF 12
ENDMDL
MODEL       47
REMARK 921   NORMALIZED FREE ENERGY PREDICTED BY IDOCK:   -4.52 KCAL/MOL
REMARK 922        TOTAL FREE ENERGY PREDICTED BY IDOCK:   -8.88 KCAL/MOL
REMARK 923 INTER-LIGAND FREE ENERGY PREDICTED BY IDOCK:   -7.90 KCAL/MOL
REMARK 924 INTRA-LIGAND FREE ENERGY PREDICTED BY IDOCK:   -0.99 KCAL/MOL
REMARK 927      BINDING AFFINITY PREDICTED BY RF-SCORE:    0.00 PKD
ROOT
HETATM    1  C   UNL     1     -11.230   6.218  71.781  1.00  0.00    -0.334 C  
HETATM    2  C   UNL     1     -10.968   6.623  70.356  1.00  0.00    -0.290 C  
HETATM    3  O   UNL     1     -11.873   6.544  69.521  1.00  0.00    -0.266 OA 
HETATM    4  N   UNL     1      -9.681   7.065  70.037  1.00  0.00    -0.170 N  
ENDROOT
BRANCH   4   5
HETATM    5  C   UNL     1      -9.474   7.510  68.690  1.00  0.00    -0.146 A  
HETATM    6  C   UNL     1      -8.716   8.496  66.174  1.00  0.00    -0.152 A  
HETATM    7  C   UNL     1      -8.877   6.635  67.744  1.00  0.00    -0.114 A  
HETATM    8  C   UNL     1      -9.814   8.836  68.321  1.00  0.00    -0.165 A  
HETATM    9  I   UNL     1     -10.960  10.036  69.720  1.00  0.00    -0.360 I  
HETATM   10  I   UNL     1      -8.657   4.556  68.310  1.00  0.00    -0.132 I  
HETATM   11  C   UNL     1      -9.426   9.349  67.063  1.00  0.00    -0.200 A  
HETATM   12  I   UNL     1      -7.743   9.377  64.438  1.00  0.00    -0.149 I  
HETATM   13  C   UNL     1      -8.491   7.117  66.477  1.00  0.00    -0.125 A  
BRANCH  11  14
HETATM   14  C   UNL     1      -9.649  10.795  66.765  1.00  0.00    -0.172 C  
HETATM   15  O   UNL     1      -8.878  11.645  67.198  1.00  0.00    -0.161 OA 
HETATM   16  N   UNL     1     -10.745  11.111  65.994  1.00  0.00    -0.243 N  
HETATM   17  H   UNL     1     -11.342  10.363  65.640  1.00  0.00     0.000 HD 
BRANCH  16  18
HETATM   18  C   UNL     1     -11.069  12.501  65.672  1.00  0.00    -0.303 C  
BRANCH  18  19
HETATM   19  C   UNL     1     -12.257  12.603  64.711  1.00  0.00    -0.465 C  
HETATM   20  H   UNL     1     -13.276  14.050  63.856  1.00  0.00     0.000 HD 
HETATM   21  O   UNL     1     -12.539  13.987  64.452  1.00  0.00    -0.651 OA 
BRANCH  19  22
HETATM   22  C   UNL     1     -11.986  11.852  63.399  1.00  0.00    -0.425 C  
HETATM   23  O   UNL     1     -10.644  12.048  62.954  1.00  0.00    -0.612 OA 
HETATM   24  H   UNL     1     -10.477  11.583  62.142  1.00  0.00     0.000 HD 
ENDBRANCH  19  22
ENDBRANCH  18  19
ENDBRANCH  16  18
ENDBRANCH  11  14
BRANCH  13  25
HETATM   25  C   UNL     1      -7.925   6.217  65.418  1.00  0.00    -0.118 C  
HETATM   26  O   UNL     1      -6.715   6.018  65.381  1.00  0.00    -0.045 OA 
HETATM   27  H   UNL     1      -9.794   5.784  64.587  1.00  0.00     0.000 HD 
HETATM   28  N   UNL     1      -8.788   5.642  64.502  1.00  0.00     0.054 N  
BRANCH  28  29
HETATM   29  C   UNL     1      -8.252   4.830  63.415  1.00  0.00    -0.107 C  
BRANCH  29  30
HETATM   30  C   UNL     1      -9.104   3.586  63.127  1.00  0.00    -0.096 C  
HETATM   31  H   UNL     1      -8.853   1.636  63.206  1.00  0.00     0.000 HD 
HETATM   32  O   UNL     1      -8.326   2.406  63.385  1.00  0.00    -0.082 OA 
BRANCH  30  33
HETATM   33  C   UNL     1     -10.378   3.575  63.987  1.00  0.00    -0.242 C  
HETATM   34  O   UNL     1     -11.197   2.445  63.694  1.00  0.00    -0.566 OA 
HETATM   35  H   UNL     1     -11.984   2.438  64.226  1.00  0.00     0.000 HD 
ENDBRANCH  30  33
ENDBRANCH  29  30
ENDBRANCH  28  29
ENDBRANCH  13  25
ENDBRANCH   4   5
BRANCH   4  36
HETATM   36  C   UNL     1      -8.544   7.155  70.995  1.00  0.00    -0.133 C  
BRANCH  36  37
HETATM   37  C   UNL     1      -8.129   8.570  71.480  1.00  0.00    -0.151 C  
HETATM   38  O   UNL     1      -7.939   8.635  72.901  1.00  0.00    -0.381 OA 
HETATM   39  H   UNL     1      -7.685   9.502  73.198  1.00  0.00     0.000 HD 
BRANCH  37  40
HETATM   40  C   UNL     1      -6.832   9.080  70.842  1.00  0.00    -0.088 C  
HETATM   41  O   UNL     1      -6.238  10.067  71.692  1.00  0.00    -0.306 OA 
HETATM   42  H   UNL     1      -5.435  10.383  71.296  1.00  0.00     0.000 HD 
ENDBRANCH  37  40
ENDBRANCH  36  37
ENDBRANCH   4  36
TORSDOF 12
ENDMDL
MODEL       48
REMARK 921   NORMALIZED FREE ENERGY PREDICTED BY IDOCK:   -4.49 KCAL/MOL
REMARK 922        TOTAL FREE ENERGY PREDICTED BY IDOCK:   -8.84 KCAL/MOL
REMARK 923 INTER-LIGAND FREE ENERGY PREDICTED BY IDOCK:   -8.93 KCAL/MOL
REMARK 924 INTRA-LIGAND FREE ENERGY PREDICTED BY IDOCK:    0.08 KCAL/MOL
REMARK 927      BINDING AFFINITY PREDICTED BY RF-SCORE:    0.00 PKD
ROOT
HETATM    1  C   UNL     1      -8.557   8.423  72.723  1.00  0.00    -0.240 C  
HETATM    2  C   UNL     1      -8.669   8.817  71.276  1.00  0.00    -0.215 C  
HETATM    3  O   UNL     1      -7.854   9.607  70.792  1.00  0.00    -0.292 OA 
HETATM    4  N   UNL     1      -9.721   8.268  70.537  1.00  0.00    -0.170 N  
ENDROOT
BRANCH   4   5
HETATM    5  C   UNL     1      -9.767   8.605  69.145  1.00  0.00    -0.173 A  
HETATM    6  C   UNL     1      -9.534   9.476  66.486  1.00  0.00    -0.182 A  
HETATM    7  C   UNL     1      -9.066   7.806  68.204  1.00  0.00    -0.129 A  
HETATM    8  C   UNL     1     -10.464   9.764  68.719  1.00  0.00    -0.218 A  
HETATM    9  I   UNL     1     -11.730  10.794  70.150  1.00  0.00    -0.465 I  
HETATM   10  I   UNL     1      -8.276   5.912  68.897  1.00  0.00    -0.101 I  
HETATM   11  C   UNL     1     -10.343  10.221  67.387  1.00  0.00    -0.282 A  
HETATM   12  I   UNL     1      -8.990  10.378  64.582  1.00  0.00    -0.282 I  
HETATM   13  C   UNL     1      -8.941   8.231  66.865  1.00  0.00    -0.169 A  
BRANCH  11  14
HETATM   14  C   UNL     1     -10.951  11.532  67.007  1.00  0.00    -0.294 C  
HETATM   15  O   UNL     1     -12.136  11.600  66.697  1.00  0.00    -0.441 OA 
HETATM   16  N   UNL     1     -10.123  12.632  67.025  1.00  0.00    -0.223 N  
HETATM   17  H   UNL     1      -9.150  12.522  67.313  1.00  0.00     0.000 HD 
BRANCH  16  18
HETATM   18  C   UNL     1     -10.614  13.955  66.640  1.00  0.00    -0.274 C  
BRANCH  18  19
HETATM   19  C   UNL     1     -10.300  15.013  67.703  1.00  0.00    -0.243 C  
HETATM   20  H   UNL     1     -10.365  16.973  67.821  1.00  0.00     0.000 HD 
HETATM   21  O   UNL     1     -10.560  16.317  67.163  1.00  0.00    -0.312 OA 
BRANCH  19  22
HETATM   22  C   UNL     1     -11.117  14.784  68.983  1.00  0.00    -0.256 C  
HETATM   23  O   UNL     1     -12.396  14.222  68.692  1.00  0.00    -0.566 OA 
HETATM   24  H   UNL     1     -12.901  14.081  69.484  1.00  0.00     0.000 HD 
ENDBRANCH  19  22
ENDBRANCH  18  19
ENDBRANCH  16  18
ENDBRANCH  11  14
BRANCH  13  25
HETATM   25  C   UNL     1      -8.274   7.388  65.817  1.00  0.00    -0.135 C  
HETATM   26  O   UNL     1      -7.128   7.654  65.471  1.00  0.00    -0.061 OA 
HETATM   27  H   UNL     1      -9.912   6.106  65.606  1.00  0.00     0.000 HD 
HETATM   28  N   UNL     1      -8.979   6.335  65.263  1.00  0.00     0.069 N  
BRANCH  28  29
HETATM   29  C   UNL     1      -8.383   5.554  64.185  1.00  0.00    -0.102 C  
BRANCH  29  30
HETATM   30  C   UNL     1      -9.317   4.455  63.660  1.00  0.00    -0.096 C  
HETATM   31  H   UNL     1      -9.124   2.793  62.625  1.00  0.00     0.000 HD 
HETATM   32  O   UNL     1      -8.546   3.473  62.950  1.00  0.00    -0.084 OA 
BRANCH  30  33
HETATM   33  C   UNL     1     -10.089   3.788  64.811  1.00  0.00    -0.170 C  
HETATM   34  O   UNL     1     -11.435   4.255  64.877  1.00  0.00    -1.029 OA 
HETATM   35  H   UNL     1     -11.913   3.842  65.588  1.00  0.00     0.000 HD 
ENDBRANCH  30  33
ENDBRANCH  29  30
ENDBRANCH  28  29
ENDBRANCH  13  25
ENDBRANCH   4   5
BRANCH   4  36
HETATM   36  C   UNL     1     -10.749   7.334  71.074  1.00  0.00    -0.231 C  
BRANCH  36  37
HETATM   37  C   UNL     1     -11.122   7.470  72.575  1.00  0.00    -0.321 C  
HETATM   38  O   UNL     1     -12.417   8.057  72.773  1.00  0.00    -0.599 OA 
HETATM   39  H   UNL     1     -12.645   8.140  73.692  1.00  0.00     0.000 HD 
BRANCH  37  40
HETATM   40  C   UNL     1     -11.129   6.135  73.327  1.00  0.00    -0.132 C  
HETATM   41  O   UNL     1     -12.313   5.403  72.992  1.00  0.00    -0.505 OA 
HETATM   42  H   UNL     1     -12.317   4.576  73.459  1.00  0.00     0.000 HD 
ENDBRANCH  37  40
ENDBRANCH  36  37
ENDBRANCH   4  36
TORSDOF 12
ENDMDL
MODEL       49
REMARK 921   NORMALIZED FREE ENERGY PREDICTED BY IDOCK:   -4.49 KCAL/MOL
REMARK 922        TOTAL FREE ENERGY PREDICTED BY IDOCK:   -8.84 KCAL/MOL
REMARK 923 INTER-LIGAND FREE ENERGY PREDICTED BY IDOCK:   -7.71 KCAL/MOL
REMARK 924 INTRA-LIGAND FREE ENERGY PREDICTED BY IDOCK:   -1.13 KCAL/MOL
REMARK 927      BINDING AFFINITY PREDICTED BY RF-SCORE:    0.00 PKD
ROOT
HETATM    1  C   UNL     1      -9.170  13.447  66.502  1.00  0.00    -0.182 C  
HETATM    2  C   UNL     1      -8.854  11.997  66.744  1.00  0.00    -0.198 C  
HETATM    3  O   UNL     1      -7.809  11.686  67.323  1.00  0.00    -0.140 OA 
HETATM    4  N   UNL     1      -9.771  11.050  66.280  1.00  0.00    -0.200 N  
ENDROOT
BRANCH   4   5
HETATM    5  C   UNL     1      -9.481   9.679  66.581  1.00  0.00    -0.170 A  
HETATM    6  C   UNL     1      -9.240   6.910  66.972  1.00  0.00    -0.142 A  
HETATM    7  C   UNL     1      -8.708   8.907  65.674  1.00  0.00    -0.182 A  
HETATM    8  C   UNL     1     -10.014   9.084  67.753  1.00  0.00    -0.187 A  
HETATM    9  I   UNL     1     -10.958  10.366  69.227  1.00  0.00    -0.336 I  
HETATM   10  I   UNL     1      -7.704   9.963  64.072  1.00  0.00    -0.121 I  
HETATM   11  C   UNL     1      -9.911   7.688  67.954  1.00  0.00    -0.208 A  
HETATM   12  I   UNL     1      -9.444   4.744  67.040  1.00  0.00    -0.223 I  
HETATM   13  C   UNL     1      -8.578   7.515  65.859  1.00  0.00    -0.165 A  
BRANCH  11  14
HETATM   14  C   UNL     1     -10.623   7.065  69.110  1.00  0.00    -0.219 C  
HETATM   15  O   UNL     1     -11.723   6.545  68.955  1.00  0.00    -0.133 OA 
HETATM   16  N   UNL     1      -9.986   7.107  70.330  1.00  0.00    -0.187 N  
HETATM   17  H   UNL     1      -9.062   7.532  70.399  1.00  0.00     0.000 HD 
BRANCH  16  18
HETATM   18  C   UNL     1     -10.613   6.552  71.530  1.00  0.00    -0.229 C  
BRANCH  18  19
HETATM   19  C   UNL     1     -10.957   7.642  72.551  1.00  0.00    -0.324 C  
HETATM   20  H   UNL     1     -10.172   9.348  73.129  1.00  0.00     0.000 HD 
HETATM   21  O   UNL     1      -9.959   8.673  72.496  1.00  0.00    -0.282 OA 
BRANCH  19  22
HETATM   22  C   UNL     1     -12.354   8.228  72.300  1.00  0.00    -0.356 C  
HETATM   23  O   UNL     1     -13.015   7.557  71.227  1.00  0.00    -0.448 OA 
HETATM   24  H   UNL     1     -13.879   7.920  71.071  1.00  0.00     0.000 HD 
ENDBRANCH  19  22
ENDBRANCH  18  19
ENDBRANCH  16  18
ENDBRANCH  11  14
BRANCH  13  25
HETATM   25  C   UNL     1      -7.713   6.668  64.972  1.00  0.00    -0.103 C  
HETATM   26  O   UNL     1      -6.549   6.455  65.294  1.00  0.00    -0.038 OA 
HETATM   27  H   UNL     1      -9.239   6.308  63.589  1.00  0.00     0.000 HD 
HETATM   28  N   UNL     1      -8.254   6.157  63.806  1.00  0.00    -0.058 N  
BRANCH  28  29
HETATM   29  C   UNL     1      -7.410   5.400  62.889  1.00  0.00    -0.048 C  
BRANCH  29  30
HETATM   30  C   UNL     1      -7.753   3.905  62.862  1.00  0.00    -0.062 C  
HETATM   31  H   UNL     1      -7.299   2.318  63.934  1.00  0.00     0.000 HD 
HETATM   32  O   UNL     1      -7.087   3.244  63.951  1.00  0.00    -0.047 OA 
BRANCH  30  33
HETATM   33  C   UNL     1      -9.272   3.682  62.962  1.00  0.00    -0.101 C  
HETATM   34  O   UNL     1      -9.584   2.576  63.805  1.00  0.00    -0.109 OA 
HETATM   35  H   UNL     1     -10.522   2.438  63.867  1.00  0.00     0.000 HD 
ENDBRANCH  30  33
ENDBRANCH  29  30
ENDBRANCH  28  29
ENDBRANCH  13  25
ENDBRANCH   4   5
BRANCH   4  36
HETATM   36  C   UNL     1     -11.032  11.364  65.551  1.00  0.00    -0.183 C  
BRANCH  36  37
HETATM   37  C   UNL     1     -10.901  11.964  64.125  1.00  0.00    -0.356 C  
HETATM   38  O   UNL     1     -10.949  10.964  63.097  1.00  0.00    -0.714 OA 
HETATM   39  H   UNL     1     -10.869  11.331  62.224  1.00  0.00     0.000 HD 
BRANCH  37  40
HETATM   40  C   UNL     1     -11.990  12.987  63.789  1.00  0.00    -0.518 C  
HETATM   41  O   UNL     1     -13.244  12.542  64.318  1.00  0.00    -0.738 OA 
HETATM   42  H   UNL     1     -13.919  13.177  64.109  1.00  0.00     0.000 HD 
ENDBRANCH  37  40
ENDBRANCH  36  37
ENDBRANCH   4  36
TORSDOF 12
ENDMDL
MODEL       50
REMARK 921   NORMALIZED FREE ENERGY PREDICTED BY IDOCK:   -4.47 KCAL/MOL
REMARK 922        TOTAL FREE ENERGY PREDICTED BY IDOCK:   -8.81 KCAL/MOL
REMARK 923 INTER-LIGAND FREE ENERGY PREDICTED BY IDOCK:   -7.84 KCAL/MOL
REMARK 924 INTRA-LIGAND FREE ENERGY PREDICTED BY IDOCK:   -0.97 KCAL/MOL
REMARK 927      BINDING AFFINITY PREDICTED BY RF-SCORE:    0.00 PKD
ROOT
HETATM    1  C   UNL     1      -7.431   7.630  70.577  1.00  0.00    -0.079 C  
HETATM    2  C   UNL     1      -7.956   8.924  70.018  1.00  0.00    -0.109 C  
HETATM    3  O   UNL     1      -8.908   9.486  70.566  1.00  0.00    -0.233 OA 
HETATM    4  N   UNL     1      -7.337   9.430  68.871  1.00  0.00    -0.072 N  
ENDROOT
BRANCH   4   5
HETATM    5  C   UNL     1      -7.810  10.697  68.397  1.00  0.00    -0.113 A  
HETATM    6  C   UNL     1      -8.954  13.188  67.793  1.00  0.00    -0.194 A  
HETATM    7  C   UNL     1      -7.143  11.888  68.787  1.00  0.00    -0.111 A  
HETATM    8  C   UNL     1      -8.972  10.761  67.587  1.00  0.00    -0.140 A  
HETATM    9  I   UNL     1      -9.792   8.910  66.805  1.00  0.00    -0.353 I  
HETATM   10  I   UNL     1      -5.228  11.680  69.777  1.00  0.00    -0.094 I  
HETATM   11  C   UNL     1      -9.566  12.009  67.288  1.00  0.00    -0.185 A  
HETATM   12  I   UNL     1     -10.068  15.056  67.715  1.00  0.00    -0.239 I  
HETATM   13  C   UNL     1      -7.707  13.147  68.491  1.00  0.00    -0.117 A  
BRANCH  11  14
HETATM   14  C   UNL     1     -10.878  12.039  66.575  1.00  0.00    -0.277 C  
HETATM   15  O   UNL     1     -11.921  11.827  67.184  1.00  0.00    -0.617 OA 
HETATM   16  N   UNL     1     -10.849  12.313  65.226  1.00  0.00    -0.284 N  
HETATM   17  H   UNL     1      -9.955  12.504  64.773  1.00  0.00     0.000 HD 
BRANCH  16  18
HETATM   18  C   UNL     1     -12.077  12.335  64.431  1.00  0.00    -0.399 C  
BRANCH  18  19
HETATM   19  C   UNL     1     -12.654  13.749  64.311  1.00  0.00    -0.135 C  
HETATM   20  H   UNL     1     -13.859  14.889  65.365  1.00  0.00     0.000 HD 
HETATM   21  O   UNL     1     -13.501  14.012  65.440  1.00  0.00    -0.679 OA 
BRANCH  19  22
HETATM   22  C   UNL     1     -11.543  14.804  64.211  1.00  0.00    -0.203 C  
HETATM   23  O   UNL     1     -12.052  16.057  63.755  1.00  0.00    -1.318 OA 
HETATM   24  H   UNL     1     -11.365  16.709  63.693  1.00  0.00     0.000 HD 
ENDBRANCH  19  22
ENDBRANCH  18  19
ENDBRANCH  16  18
ENDBRANCH  11  14
BRANCH  13  25
HETATM   25  C   UNL     1      -7.006  14.433  68.816  1.00  0.00    -0.100 C  
HETATM   26  O   UNL     1      -7.044  14.865  69.963  1.00  0.00    -0.176 OA 
HETATM   27  H   UNL     1      -6.282  14.694  66.872  1.00  0.00     0.000 HD 
HETATM   28  N   UNL     1      -6.341  15.103  67.805  1.00  0.00    -0.155 N  
BRANCH  28  29
HETATM   29  C   UNL     1      -5.723  16.395  68.079  1.00  0.00    -0.112 C  
BRANCH  29  30
HETATM   30  C   UNL     1      -6.647  17.577  67.755  1.00  0.00    -0.162 C  
HETATM   31  H   UNL     1      -6.538  19.539  67.842  1.00  0.00     0.000 HD 
HETATM   32  O   UNL     1      -5.965  18.809  68.042  1.00  0.00    -0.195 OA 
BRANCH  30  33
HETATM   33  C   UNL     1      -7.086  17.549  66.281  1.00  0.00    -0.305 C  
HETATM   34  O   UNL     1      -8.056  18.558  66.006  1.00  0.00    -0.458 OA 
HETATM   35  H   UNL     1      -8.327  18.541  65.095  1.00  0.00     0.000 HD 
ENDBRANCH  30  33
ENDBRANCH  29  30
ENDBRANCH  28  29
ENDBRANCH  13  25
ENDBRANCH   4   5
BRANCH   4  36
HETATM   36  C   UNL     1      -6.206   8.781  68.151  1.00  0.00    -0.051 C  
BRANCH  36  37
HETATM   37  C   UNL     1      -6.096   9.032  66.623  1.00  0.00    -0.060 C  
HETATM   38  O   UNL     1      -5.176  10.085  66.299  1.00  0.00    -0.041 OA 
HETATM   39  H   UNL     1      -5.109  10.238  65.363  1.00  0.00     0.000 HD 
BRANCH  37  40
HETATM   40  C   UNL     1      -5.644   7.800  65.832  1.00  0.00    -0.033 C  
HETATM   41  O   UNL     1      -6.469   6.682  66.177  1.00  0.00    -0.041 OA 
HETATM   42  H   UNL     1      -6.189   5.918  65.686  1.00  0.00     0.000 HD 
ENDBRANCH  37  40
ENDBRANCH  36  37
ENDBRANCH   4  36
TORSDOF 12
ENDMDL
MODEL       51
REMARK 921   NORMALIZED FREE ENERGY PREDICTED BY IDOCK:   -4.44 KCAL/MOL
REMARK 922        TOTAL FREE ENERGY PREDICTED BY IDOCK:   -8.75 KCAL/MOL
REMARK 923 INTER-LIGAND FREE ENERGY PREDICTED BY IDOCK:   -7.31 KCAL/MOL
REMARK 924 INTRA-LIGAND FREE ENERGY PREDICTED BY IDOCK:   -1.44 KCAL/MOL
REMARK 927      BINDING AFFINITY PREDICTED BY RF-SCORE:    0.00 PKD
ROOT
HETATM    1  C   UNL     1      -6.181  12.323  67.618  1.00  0.00    -0.120 C  
HETATM    2  C   UNL     1      -7.164  11.491  68.396  1.00  0.00    -0.089 C  
HETATM    3  O   UNL     1      -6.927  11.204  69.572  1.00  0.00    -0.121 OA 
HETATM    4  N   UNL     1      -8.315  11.061  67.730  1.00  0.00    -0.116 N  
ENDROOT
BRANCH   4   5
HETATM    5  C   UNL     1      -9.267  10.327  68.510  1.00  0.00    -0.144 A  
HETATM    6  C   UNL     1     -10.914   8.989  70.348  1.00  0.00    -0.247 A  
HETATM    7  C   UNL     1     -10.389  10.998  69.065  1.00  0.00    -0.209 A  
HETATM    8  C   UNL     1      -9.057   8.949  68.772  1.00  0.00    -0.134 A  
HETATM    9  I   UNL     1      -7.484   7.919  67.689  1.00  0.00    -0.100 I  
HETATM   10  I   UNL     1     -10.782  13.016  68.382  1.00  0.00    -0.283 I  
HETATM   11  C   UNL     1      -9.871   8.268  69.706  1.00  0.00    -0.187 A  
HETATM   12  I   UNL     1     -11.886   8.097  72.078  1.00  0.00    -0.481 I  
HETATM   13  C   UNL     1     -11.225  10.338  69.989  1.00  0.00    -0.376 A  
BRANCH  11  14
HETATM   14  C   UNL     1      -9.526   6.865  70.086  1.00  0.00    -0.162 C  
HETATM   15  O   UNL     1      -8.681   6.646  70.947  1.00  0.00    -0.137 OA 
HETATM   16  N   UNL     1     -10.196   5.858  69.429  1.00  0.00    -0.199 N  
HETATM   17  H   UNL     1     -10.906   6.097  68.736  1.00  0.00     0.000 HD 
BRANCH  16  18
HETATM   18  C   UNL     1      -9.908   4.451  69.707  1.00  0.00    -0.214 C  
BRANCH  18  19
HETATM   19  C   UNL     1      -9.343   3.730  68.478  1.00  0.00    -0.166 C  
HETATM   20  H   UNL     1      -9.343   4.019  66.534  1.00  0.00     0.000 HD 
HETATM   21  O   UNL     1      -9.693   4.466  67.296  1.00  0.00    -0.181 OA 
BRANCH  19  22
HETATM   22  C   UNL     1      -7.820   3.558  68.577  1.00  0.00    -0.055 C  
HETATM   23  O   UNL     1      -7.266   4.396  69.590  1.00  0.00    -0.049 OA 
HETATM   24  H   UNL     1      -6.324   4.290  69.651  1.00  0.00     0.000 HD 
ENDBRANCH  19  22
ENDBRANCH  18  19
ENDBRANCH  16  18
ENDBRANCH  11  14
BRANCH  13  25
HETATM   25  C   UNL     1     -12.463  10.978  70.547  1.00  0.00    -0.344 C  
HETATM   26  O   UNL     1     -13.559  10.654  70.102  1.00  0.00     0.292 OA 
HETATM   27  H   UNL     1     -11.409  12.138  71.931  1.00  0.00     0.000 HD 
HETATM   28  N   UNL     1     -12.330  11.926  71.545  1.00  0.00    -0.048 N  
BRANCH  28  29
HETATM   29  C   UNL     1     -13.511  12.620  72.045  1.00  0.00    -0.418 C  
BRANCH  29  30
HETATM   30  C   UNL     1     -13.257  14.110  72.309  1.00  0.00    -0.447 C  
HETATM   31  H   UNL     1     -11.704  15.319  72.283  1.00  0.00     0.000 HD 
HETATM   32  O   UNL     1     -11.861  14.397  72.119  1.00  0.00    -0.123 OA 
BRANCH  30  33
HETATM   33  C   UNL     1     -14.107  14.991  71.378  1.00  0.00    -0.487 C  
HETATM   34  O   UNL     1     -13.290  15.758  70.494  1.00  0.00    -0.767 OA 
HETATM   35  H   UNL     1     -13.815  16.302  69.919  1.00  0.00     0.000 HD 
ENDBRANCH  30  33
ENDBRANCH  29  30
ENDBRANCH  28  29
ENDBRANCH  13  25
ENDBRANCH   4   5
BRANCH   4  36
HETATM   36  C   UNL     1      -8.640  11.352  66.305  1.00  0.00    -0.156 C  
BRANCH  36  37
HETATM   37  C   UNL     1      -9.472  10.293  65.533  1.00  0.00    -0.223 C  
HETATM   38  O   UNL     1     -10.751  10.791  65.115  1.00  0.00    -0.215 OA 
HETATM   39  H   UNL     1     -11.261  10.143  64.642  1.00  0.00     0.000 HD 
BRANCH  37  40
HETATM   40  C   UNL     1      -8.776   9.766  64.274  1.00  0.00    -0.206 C  
HETATM   41  O   UNL     1      -8.850   8.336  64.250  1.00  0.00    -0.400 OA 
HETATM   42  H   UNL     1      -8.418   8.010  63.470  1.00  0.00     0.000 HD 
ENDBRANCH  37  40
ENDBRANCH  36  37
ENDBRANCH   4  36
TORSDOF 12
ENDMDL
MODEL       52
REMARK 921   NORMALIZED FREE ENERGY PREDICTED BY IDOCK:   -4.44 KCAL/MOL
REMARK 922        TOTAL FREE ENERGY PREDICTED BY IDOCK:   -8.75 KCAL/MOL
REMARK 923 INTER-LIGAND FREE ENERGY PREDICTED BY IDOCK:   -8.32 KCAL/MOL
REMARK 924 INTRA-LIGAND FREE ENERGY PREDICTED BY IDOCK:   -0.43 KCAL/MOL
REMARK 927      BINDING AFFINITY PREDICTED BY RF-SCORE:    0.00 PKD
ROOT
HETATM    1  C   UNL     1      -6.594  17.635  65.990  1.00  0.00    -0.280 C  
HETATM    2  C   UNL     1      -7.553  16.598  66.506  1.00  0.00    -0.292 C  
HETATM    3  O   UNL     1      -8.562  16.318  65.853  1.00  0.00    -0.364 OA 
HETATM    4  N   UNL     1      -7.258  15.999  67.734  1.00  0.00    -0.132 N  
ENDROOT
BRANCH   4   5
HETATM    5  C   UNL     1      -8.150  14.967  68.172  1.00  0.00    -0.137 A  
HETATM    6  C   UNL     1     -10.027  12.937  68.660  1.00  0.00    -0.092 A  
HETATM    7  C   UNL     1      -7.754  13.606  68.075  1.00  0.00    -0.143 A  
HETATM    8  C   UNL     1      -9.444  15.302  68.646  1.00  0.00    -0.204 A  
HETATM    9  I   UNL     1      -9.898  17.391  69.021  1.00  0.00    -0.019 I  
HETATM   10  I   UNL     1      -5.676  13.203  67.616  1.00  0.00     0.117 I  
HETATM   11  C   UNL     1     -10.402  14.290  68.881  1.00  0.00    -0.218 A  
HETATM   12  I   UNL     1     -11.586  11.420  68.597  1.00  0.00    -0.369 I  
HETATM   13  C   UNL     1      -8.687  12.577  68.318  1.00  0.00    -0.171 A  
BRANCH  11  14
HETATM   14  C   UNL     1     -11.804  14.679  69.220  1.00  0.00    -0.321 C  
HETATM   15  O   UNL     1     -12.602  14.963  68.332  1.00  0.00     0.183 OA 
HETATM   16  N   UNL     1     -12.141  14.700  70.555  1.00  0.00    -0.299 N  
HETATM   17  H   UNL     1     -11.444  14.434  71.251  1.00  0.00     0.000 HD 
BRANCH  16  18
HETATM   18  C   UNL     1     -13.479  15.098  70.992  1.00  0.00    -0.431 C  
BRANCH  18  19
HETATM   19  C   UNL     1     -13.693  14.837  72.486  1.00  0.00    -0.468 C  
HETATM   20  H   UNL     1     -14.054  13.273  73.620  1.00  0.00     0.000 HD 
HETATM   21  O   UNL     1     -13.921  13.435  72.694  1.00  0.00    -0.755 OA 
BRANCH  19  22
HETATM   22  C   UNL     1     -12.496  15.319  73.319  1.00  0.00    -0.486 C  
HETATM   23  O   UNL     1     -12.918  16.108  74.431  1.00  0.00    -0.930 OA 
HETATM   24  H   UNL     1     -12.177  16.407  74.945  1.00  0.00     0.000 HD 
ENDBRANCH  19  22
ENDBRANCH  18  19
ENDBRANCH  16  18
ENDBRANCH  11  14
BRANCH  13  25
HETATM   25  C   UNL     1      -8.299  11.127  68.301  1.00  0.00    -0.143 C  
HETATM   26  O   UNL     1      -8.386  10.493  67.254  1.00  0.00    -0.121 OA 
HETATM   27  H   UNL     1      -7.751  11.105  70.319  1.00  0.00     0.000 HD 
HETATM   28  N   UNL     1      -7.862  10.542  69.476  1.00  0.00    -0.151 N  
BRANCH  28  29
HETATM   29  C   UNL     1      -7.558   9.115  69.503  1.00  0.00    -0.079 C  
BRANCH  29  30
HETATM   30  C   UNL     1      -8.246   8.384  70.664  1.00  0.00    -0.116 C  
HETATM   31  H   UNL     1      -8.274   8.532  72.626  1.00  0.00     0.000 HD 
HETATM   32  O   UNL     1      -7.848   8.984  71.908  1.00  0.00    -0.345 OA 
BRANCH  30  33
HETATM   33  C   UNL     1      -9.776   8.433  70.521  1.00  0.00    -0.173 C  
HETATM   34  O   UNL     1     -10.379   9.150  71.597  1.00  0.00    -0.334 OA 
HETATM   35  H   UNL     1     -11.324   9.180  71.509  1.00  0.00     0.000 HD 
ENDBRANCH  30  33
ENDBRANCH  29  30
ENDBRANCH  28  29
ENDBRANCH  13  25
ENDBRANCH   4   5
BRANCH   4  36
HETATM   36  C   UNL     1      -6.073  16.317  68.579  1.00  0.00    -0.112 C  
BRANCH  36  37
HETATM   37  C   UNL     1      -6.254  17.390  69.686  1.00  0.00    -0.233 C  
HETATM   38  O   UNL     1      -5.502  17.095  70.872  1.00  0.00    -0.188 OA 
HETATM   39  H   UNL     1      -5.613  17.752  71.550  1.00  0.00     0.000 HD 
BRANCH  37  40
HETATM   40  C   UNL     1      -5.839  18.798  69.246  1.00  0.00    -0.226 C  
HETATM   41  O   UNL     1      -6.081  19.722  70.313  1.00  0.00    -0.288 OA 
HETATM   42  H   UNL     1      -5.825  20.595  70.041  1.00  0.00     0.000 HD 
ENDBRANCH  37  40
ENDBRANCH  36  37
ENDBRANCH   4  36
TORSDOF 12
ENDMDL
MODEL       53
REMARK 921   NORMALIZED FREE ENERGY PREDICTED BY IDOCK:   -4.38 KCAL/MOL
REMARK 922        TOTAL FREE ENERGY PREDICTED BY IDOCK:   -8.65 KCAL/MOL
REMARK 923 INTER-LIGAND FREE ENERGY PREDICTED BY IDOCK:   -7.44 KCAL/MOL
REMARK 924 INTRA-LIGAND FREE ENERGY PREDICTED BY IDOCK:   -1.21 KCAL/MOL
REMARK 927      BINDING AFFINITY PREDICTED BY RF-SCORE:    0.00 PKD
ROOT
HETATM    1  C   UNL     1     -10.346   5.625  73.807  1.00  0.00    -0.270 C  
HETATM    2  C   UNL     1     -10.130   6.946  73.120  1.00  0.00    -0.215 C  
HETATM    3  O   UNL     1      -9.694   7.905  73.762  1.00  0.00    -0.225 OA 
HETATM    4  N   UNL     1     -10.455   7.029  71.764  1.00  0.00    -0.202 N  
ENDROOT
BRANCH   4   5
HETATM    5  C   UNL     1     -10.178   8.277  71.116  1.00  0.00    -0.198 A  
HETATM    6  C   UNL     1      -9.733  10.540  69.515  1.00  0.00    -0.119 A  
HETATM    7  C   UNL     1     -11.225   9.218  70.923  1.00  0.00    -0.306 A  
HETATM    8  C   UNL     1      -8.877   8.545  70.620  1.00  0.00    -0.155 A  
HETATM    9  I   UNL     1      -7.264   7.201  71.171  1.00  0.00    -0.076 I  
HETATM   10  I   UNL     1     -13.093   8.855  71.956  1.00  0.00    -0.541 I  
HETATM   11  C   UNL     1      -8.643   9.673  69.801  1.00  0.00    -0.211 A  
HETATM   12  I   UNL     1      -9.503  12.015  67.931  1.00  0.00    -0.209 I  
HETATM   13  C   UNL     1     -11.015  10.358  70.122  1.00  0.00    -0.365 A  
BRANCH  11  14
HETATM   14  C   UNL     1      -7.306   9.842  69.158  1.00  0.00    -0.079 C  
HETATM   15  O   UNL     1      -6.502  10.655  69.601  1.00  0.00    -0.068 OA 
HETATM   16  N   UNL     1      -7.035   9.050  68.064  1.00  0.00    -0.076 N  
HETATM   17  H   UNL     1      -7.732   8.373  67.751  1.00  0.00     0.000 HD 
BRANCH  16  18
HETATM   18  C   UNL     1      -5.767   9.161  67.345  1.00  0.00    -0.042 C  
BRANCH  18  19
HETATM   19  C   UNL     1      -5.978   9.442  65.854  1.00  0.00    -0.055 C  
HETATM   20  H   UNL     1      -7.517   9.719  64.663  1.00  0.00     0.000 HD 
HETATM   21  O   UNL     1      -7.386   9.545  65.587  1.00  0.00    -0.090 OA 
BRANCH  19  22
HETATM   22  C   UNL     1      -5.250  10.721  65.413  1.00  0.00    -0.142 C  
HETATM   23  O   UNL     1      -5.852  11.885  65.978  1.00  0.00    -0.445 OA 
HETATM   24  H   UNL     1      -5.402  12.675  65.705  1.00  0.00     0.000 HD 
ENDBRANCH  19  22
ENDBRANCH  18  19
ENDBRANCH  16  18
ENDBRANCH  11  14
BRANCH  13  25
HETATM   25  C   UNL     1     -12.064  11.418  69.948  1.00  0.00    -0.330 C  
HETATM   26  O   UNL     1     -12.880  11.313  69.038  1.00  0.00     0.001 OA 
HETATM   27  H   UNL     1     -11.416  12.528  71.597  1.00  0.00     0.000 HD 
HETATM   28  N   UNL     1     -12.075  12.492  70.819  1.00  0.00    -0.261 N  
BRANCH  28  29
HETATM   29  C   UNL     1     -13.032  13.574  70.620  1.00  0.00    -0.026 C  
BRANCH  29  30
HETATM   30  C   UNL     1     -12.363  14.953  70.542  1.00  0.00    -0.342 C  
HETATM   31  H   UNL     1     -11.064  15.970  71.615  1.00  0.00     0.000 HD 
HETATM   32  O   UNL     1     -11.477  15.117  71.663  1.00  0.00    -0.377 OA 
BRANCH  30  33
HETATM   33  C   UNL     1     -11.583  15.118  69.227  1.00  0.00    -0.324 C  
HETATM   34  O   UNL     1     -12.317  14.605  68.117  1.00  0.00    -0.598 OA 
HETATM   35  H   UNL     1     -11.835  14.706  67.304  1.00  0.00     0.000 HD 
ENDBRANCH  30  33
ENDBRANCH  29  30
ENDBRANCH  28  29
ENDBRANCH  13  25
ENDBRANCH   4   5
BRANCH   4  36
HETATM   36  C   UNL     1     -11.011   5.915  70.946  1.00  0.00    -0.265 C  
BRANCH  36  37
HETATM   37  C   UNL     1     -10.341   5.633  69.575  1.00  0.00    -0.275 C  
HETATM   38  O   UNL     1     -10.049   4.241  69.376  1.00  0.00    -0.124 OA 
HETATM   39  H   UNL     1      -9.638   4.069  68.537  1.00  0.00     0.000 HD 
BRANCH  37  40
HETATM   40  C   UNL     1     -11.187   6.076  68.377  1.00  0.00    -0.021 C  
HETATM   41  O   UNL     1     -10.844   7.420  68.021  1.00  0.00    -0.410 OA 
HETATM   42  H   UNL     1     -11.369   7.695  67.279  1.00  0.00     0.000 HD 
ENDBRANCH  37  40
ENDBRANCH  36  37
ENDBRANCH   4  36
TORSDOF 12
ENDMDL
MODEL       54
REMARK 921   NORMALIZED FREE ENERGY PREDICTED BY IDOCK:   -4.37 KCAL/MOL
REMARK 922        TOTAL FREE ENERGY PREDICTED BY IDOCK:   -8.64 KCAL/MOL
REMARK 923 INTER-LIGAND FREE ENERGY PREDICTED BY IDOCK:   -6.80 KCAL/MOL
REMARK 924 INTRA-LIGAND FREE ENERGY PREDICTED BY IDOCK:   -1.83 KCAL/MOL
REMARK 927      BINDING AFFINITY PREDICTED BY RF-SCORE:    0.00 PKD
ROOT
HETATM    1  C   UNL     1     -11.437   7.124  72.733  1.00  0.00    -0.234 C  
HETATM    2  C   UNL     1     -11.314   7.384  71.257  1.00  0.00    -0.265 C  
HETATM    3  O   UNL     1     -12.181   6.963  70.487  1.00  0.00    -0.340 OA 
HETATM    4  N   UNL     1     -10.192   8.094  70.818  1.00  0.00    -0.193 N  
ENDROOT
BRANCH   4   5
HETATM    5  C   UNL     1     -10.131   8.388  69.417  1.00  0.00    -0.198 A  
HETATM    6  C   UNL     1      -9.666   9.132  66.750  1.00  0.00    -0.210 A  
HETATM    7  C   UNL     1      -9.503   7.472  68.532  1.00  0.00    -0.146 A  
HETATM    8  C   UNL     1     -10.646   9.615  68.927  1.00  0.00    -0.217 A  
HETATM    9  I   UNL     1     -11.824  10.850  70.268  1.00  0.00    -0.472 I  
HETATM   10  I   UNL     1      -9.007   5.514  69.313  1.00  0.00    -0.151 I  
HETATM   11  C   UNL     1     -10.406  10.007  67.591  1.00  0.00    -0.272 A  
HETATM   12  I   UNL     1      -8.923   9.891  64.851  1.00  0.00    -0.316 I  
HETATM   13  C   UNL     1      -9.263   7.833  67.190  1.00  0.00    -0.174 A  
BRANCH  11  14
HETATM   14  C   UNL     1     -10.815  11.374  67.148  1.00  0.00    -0.268 C  
HETATM   15  O   UNL     1     -11.935  11.569  66.689  1.00  0.00    -0.428 OA 
HETATM   16  N   UNL     1      -9.882  12.378  67.282  1.00  0.00    -0.205 N  
HETATM   17  H   UNL     1      -8.972  12.165  67.691  1.00  0.00     0.000 HD 
BRANCH  16  18
HETATM   18  C   UNL     1     -10.174  13.745  66.848  1.00  0.00    -0.261 C  
BRANCH  18  19
HETATM   19  C   UNL     1      -9.963  14.759  67.977  1.00  0.00    -0.218 C  
HETATM   20  H   UNL     1      -9.663  16.697  68.110  1.00  0.00     0.000 HD 
HETATM   21  O   UNL     1      -9.793  16.068  67.411  1.00  0.00    -0.232 OA 
BRANCH  19  22
HETATM   22  C   UNL     1     -11.135  14.748  68.970  1.00  0.00    -0.256 C  
HETATM   23  O   UNL     1     -12.326  14.248  68.364  1.00  0.00    -0.584 OA 
HETATM   24  H   UNL     1     -13.051  14.241  68.979  1.00  0.00     0.000 HD 
ENDBRANCH  19  22
ENDBRANCH  18  19
ENDBRANCH  16  18
ENDBRANCH  11  14
BRANCH  13  25
HETATM   25  C   UNL     1      -8.670   6.875  66.198  1.00  0.00    -0.145 C  
HETATM   26  O   UNL     1      -9.411   6.134  65.561  1.00  0.00     0.115 OA 
HETATM   27  H   UNL     1      -6.709   7.512  66.544  1.00  0.00     0.000 HD 
HETATM   28  N   UNL     1      -7.296   6.849  66.038  1.00  0.00    -0.074 N  
BRANCH  28  29
HETATM   29  C   UNL     1      -6.692   5.871  65.141  1.00  0.00    -0.044 C  
BRANCH  29  30
HETATM   30  C   UNL     1      -6.082   4.677  65.888  1.00  0.00    -0.027 C  
HETATM   31  H   UNL     1      -5.329   4.348  67.676  1.00  0.00     0.000 HD 
HETATM   32  O   UNL     1      -5.707   5.086  67.214  1.00  0.00    -0.013 OA 
BRANCH  30  33
HETATM   33  C   UNL     1      -7.072   3.503  65.960  1.00  0.00    -0.063 C  
HETATM   34  O   UNL     1      -8.067   3.596  64.942  1.00  0.00    -0.089 OA 
HETATM   35  H   UNL     1      -8.679   2.870  64.986  1.00  0.00     0.000 HD 
ENDBRANCH  30  33
ENDBRANCH  29  30
ENDBRANCH  28  29
ENDBRANCH  13  25
ENDBRANCH   4   5
BRANCH   4  36
HETATM   36  C   UNL     1      -9.101   8.601  71.697  1.00  0.00    -0.247 C  
BRANCH  36  37
HETATM   37  C   UNL     1      -7.659   8.583  71.125  1.00  0.00    -0.096 C  
HETATM   38  O   UNL     1      -7.064   9.889  71.079  1.00  0.00    -0.339 OA 
HETATM   39  H   UNL     1      -6.181   9.878  70.729  1.00  0.00     0.000 HD 
BRANCH  37  40
HETATM   40  C   UNL     1      -6.696   7.693  71.919  1.00  0.00    -0.054 C  
HETATM   41  O   UNL     1      -7.441   6.694  72.624  1.00  0.00    -0.091 OA 
HETATM   42  H   UNL     1      -6.844   6.143  73.116  1.00  0.00     0.000 HD 
ENDBRANCH  37  40
ENDBRANCH  36  37
ENDBRANCH   4  36
TORSDOF 12
ENDMDL
MODEL       55
REMARK 921   NORMALIZED FREE ENERGY PREDICTED BY IDOCK:   -4.31 KCAL/MOL
REMARK 922        TOTAL FREE ENERGY PREDICTED BY IDOCK:   -8.53 KCAL/MOL
REMARK 923 INTER-LIGAND FREE ENERGY PREDICTED BY IDOCK:   -7.74 KCAL/MOL
REMARK 924 INTRA-LIGAND FREE ENERGY PREDICTED BY IDOCK:   -0.78 KCAL/MOL
REMARK 927      BINDING AFFINITY PREDICTED BY RF-SCORE:    0.00 PKD
ROOT
HETATM    1  C   UNL     1      -5.712   4.063  64.929  1.00  0.00    -0.014 C  
HETATM    2  C   UNL     1      -6.563   5.068  65.654  1.00  0.00    -0.041 C  
HETATM    3  O   UNL     1      -6.132   5.615  66.673  1.00  0.00    -0.027 OA 
HETATM    4  N   UNL     1      -7.835   5.330  65.136  1.00  0.00    -0.089 N  
ENDROOT
BRANCH   4   5
HETATM    5  C   UNL     1      -8.601   6.340  65.804  1.00  0.00    -0.150 A  
HETATM    6  C   UNL     1      -9.775   8.395  67.315  1.00  0.00    -0.184 A  
HETATM    7  C   UNL     1      -8.614   7.666  65.296  1.00  0.00    -0.022 A  
HETATM    8  C   UNL     1      -9.296   6.027  67.000  1.00  0.00    -0.122 A  
HETATM    9  I   UNL     1      -9.462   3.944  67.584  1.00  0.00    -0.101 I  
HETATM   10  I   UNL     1      -7.770   7.986  63.327  1.00  0.00    -0.117 I  
HETATM   11  C   UNL     1      -9.879   7.054  67.777  1.00  0.00    -0.166 A  
HETATM   12  I   UNL     1     -10.274  10.011  68.685  1.00  0.00    -0.248 I  
HETATM   13  C   UNL     1      -9.200   8.708  66.044  1.00  0.00    -0.276 A  
BRANCH  11  14
HETATM   14  C   UNL     1     -10.460   6.718  69.112  1.00  0.00    -0.216 C  
HETATM   15  O   UNL     1     -11.659   6.493  69.228  1.00  0.00    -0.309 OA 
HETATM   16  N   UNL     1      -9.589   6.678  70.178  1.00  0.00    -0.161 N  
HETATM   17  H   UNL     1      -8.596   6.851  70.021  1.00  0.00     0.000 HD 
BRANCH  16  18
HETATM   18  C   UNL     1     -10.064   6.389  71.531  1.00  0.00    -0.192 C  
BRANCH  18  19
HETATM   19  C   UNL     1      -9.108   5.459  72.286  1.00  0.00    -0.142 C  
HETATM   20  H   UNL     1      -8.800   3.521  72.395  1.00  0.00     0.000 HD 
HETATM   21  O   UNL     1      -9.393   4.098  71.928  1.00  0.00    -0.121 OA 
BRANCH  19  22
HETATM   22  C   UNL     1      -7.640   5.800  71.990  1.00  0.00    -0.101 C  
HETATM   23  O   UNL     1      -7.337   7.149  72.345  1.00  0.00    -0.078 OA 
HETATM   24  H   UNL     1      -6.429   7.360  72.162  1.00  0.00     0.000 HD 
ENDBRANCH  19  22
ENDBRANCH  18  19
ENDBRANCH  16  18
ENDBRANCH  11  14
BRANCH  13  25
HETATM   25  C   UNL     1      -9.304  10.110  65.518  1.00  0.00    -0.207 C  
HETATM   26  O   UNL     1      -8.329  10.850  65.583  1.00  0.00    -0.160 OA 
HETATM   27  H   UNL     1     -11.286   9.877  64.892  1.00  0.00     0.000 HD 
HETATM   28  N   UNL     1     -10.507  10.530  64.980  1.00  0.00    -0.237 N  
BRANCH  28  29
HETATM   29  C   UNL     1     -10.657  11.912  64.538  1.00  0.00    -0.311 C  
BRANCH  29  30
HETATM   30  C   UNL     1     -12.025  12.506  64.900  1.00  0.00    -0.412 C  
HETATM   31  H   UNL     1     -13.107  12.705  66.532  1.00  0.00     0.000 HD 
HETATM   32  O   UNL     1     -12.261  12.337  66.308  1.00  0.00    -0.628 OA 
BRANCH  30  33
HETATM   33  C   UNL     1     -12.097  13.997  64.530  1.00  0.00    -0.459 C  
HETATM   34  O   UNL     1     -12.346  14.179  63.137  1.00  0.00    -1.125 OA 
HETATM   35  H   UNL     1     -12.390  15.099  62.908  1.00  0.00     0.000 HD 
ENDBRANCH  30  33
ENDBRANCH  29  30
ENDBRANCH  28  29
ENDBRANCH  13  25
ENDBRANCH   4   5
BRANCH   4  36
HETATM   36  C   UNL     1      -8.419   4.681  63.929  1.00  0.00    -0.126 C  
BRANCH  36  37
HETATM   37  C   UNL     1      -9.834   4.060  64.067  1.00  0.00    -0.160 C  
HETATM   38  O   UNL     1     -10.751   4.540  63.072  1.00  0.00    -0.411 OA 
HETATM   39  H   UNL     1     -11.617   4.159  63.157  1.00  0.00     0.000 HD 
BRANCH  37  40
HETATM   40  C   UNL     1      -9.844   2.531  63.968  1.00  0.00    -0.137 C  
HETATM   41  O   UNL     1     -11.172   2.079  63.683  1.00  0.00    -0.495 OA 
HETATM   42  H   UNL     1     -11.178   1.131  63.622  1.00  0.00     0.000 HD 
ENDBRANCH  37  40
ENDBRANCH  36  37
ENDBRANCH   4  36
TORSDOF 12
ENDMDL
MODEL       56
REMARK 921   NORMALIZED FREE ENERGY PREDICTED BY IDOCK:   -4.24 KCAL/MOL
REMARK 922        TOTAL FREE ENERGY PREDICTED BY IDOCK:   -8.42 KCAL/MOL
REMARK 923 INTER-LIGAND FREE ENERGY PREDICTED BY IDOCK:   -8.08 KCAL/MOL
REMARK 924 INTRA-LIGAND FREE ENERGY PREDICTED BY IDOCK:   -0.34 KCAL/MOL
REMARK 927      BINDING AFFINITY PREDICTED BY RF-SCORE:    0.00 PKD
ROOT
HETATM    1  C   UNL     1      -6.547  18.057  65.858  1.00  0.00    -0.319 C  
HETATM    2  C   UNL     1      -7.439  16.968  66.387  1.00  0.00    -0.301 C  
HETATM    3  O   UNL     1      -8.413  16.598  65.726  1.00  0.00    -0.433 OA 
HETATM    4  N   UNL     1      -7.123  16.424  67.636  1.00  0.00    -0.125 N  
ENDROOT
BRANCH   4   5
HETATM    5  C   UNL     1      -7.946  15.342  68.088  1.00  0.00    -0.128 A  
HETATM    6  C   UNL     1      -9.678  13.193  68.601  1.00  0.00    -0.057 A  
HETATM    7  C   UNL     1      -7.448  14.013  68.044  1.00  0.00    -0.141 A  
HETATM    8  C   UNL     1      -9.272  15.594  68.523  1.00  0.00    -0.197 A  
HETATM    9  I   UNL     1      -9.889  17.653  68.820  1.00  0.00    -0.217 I  
HETATM   10  I   UNL     1      -5.335  13.753  67.643  1.00  0.00     0.397 I  
HETATM   11  C   UNL     1     -10.158  14.521  68.771  1.00  0.00    -0.239 A  
HETATM   12  I   UNL     1     -11.118  11.562  68.555  1.00  0.00    -0.401 I  
HETATM   13  C   UNL     1      -8.307  12.924  68.300  1.00  0.00    -0.157 A  
BRANCH  11  14
HETATM   14  C   UNL     1     -11.593  14.813  69.066  1.00  0.00    -0.297 C  
HETATM   15  O   UNL     1     -12.377  15.056  68.155  1.00  0.00    -0.024 OA 
HETATM   16  N   UNL     1     -11.973  14.796  70.389  1.00  0.00    -0.288 N  
HETATM   17  H   UNL     1     -11.284  14.566  71.106  1.00  0.00     0.000 HD 
BRANCH  16  18
HETATM   18  C   UNL     1     -13.348  15.100  70.786  1.00  0.00    -0.341 C  
BRANCH  18  19
HETATM   19  C   UNL     1     -13.712  14.455  72.127  1.00  0.00    -0.463 C  
HETATM   20  H   UNL     1     -13.639  12.652  72.905  1.00  0.00     0.000 HD 
HETATM   21  O   UNL     1     -13.413  13.052  72.074  1.00  0.00    -0.481 OA 
BRANCH  19  22
HETATM   22  C   UNL     1     -12.968  15.123  73.293  1.00  0.00    -0.528 C  
HETATM   23  O   UNL     1     -13.706  16.227  73.817  1.00  0.00    -0.896 OA 
HETATM   24  H   UNL     1     -13.246  16.640  74.538  1.00  0.00     0.000 HD 
ENDBRANCH  19  22
ENDBRANCH  18  19
ENDBRANCH  16  18
ENDBRANCH  11  14
BRANCH  13  25
HETATM   25  C   UNL     1      -7.812  11.507  68.339  1.00  0.00    -0.136 C  
HETATM   26  O   UNL     1      -7.458  11.023  69.408  1.00  0.00    -0.126 OA 
HETATM   27  H   UNL     1      -8.112  11.199  66.292  1.00  0.00     0.000 HD 
HETATM   28  N   UNL     1      -7.763  10.788  67.158  1.00  0.00    -0.115 N  
BRANCH  28  29
HETATM   29  C   UNL     1      -7.210   9.438  67.157  1.00  0.00    -0.087 C  
BRANCH  29  30
HETATM   30  C   UNL     1      -7.716   8.589  65.983  1.00  0.00    -0.093 C  
HETATM   31  H   UNL     1      -8.721   6.912  65.765  1.00  0.00     0.000 HD 
HETATM   32  O   UNL     1      -8.409   7.437  66.491  1.00  0.00    -0.114 OA 
BRANCH  30  33
HETATM   33  C   UNL     1      -8.649   9.405  65.071  1.00  0.00    -0.172 C  
HETATM   34  O   UNL     1     -10.021   9.116  65.335  1.00  0.00    -0.428 OA 
HETATM   35  H   UNL     1     -10.597   9.619  64.772  1.00  0.00     0.000 HD 
ENDBRANCH  30  33
ENDBRANCH  29  30
ENDBRANCH  28  29
ENDBRANCH  13  25
ENDBRANCH   4   5
BRANCH   4  36
HETATM   36  C   UNL     1      -5.979  16.850  68.490  1.00  0.00    -0.143 C  
BRANCH  36  37
HETATM   37  C   UNL     1      -6.276  17.869  69.622  1.00  0.00    -0.209 C  
HETATM   38  O   UNL     1      -5.473  17.649  70.791  1.00  0.00    -0.248 OA 
HETATM   39  H   UNL     1      -5.654  18.273  71.484  1.00  0.00     0.000 HD 
BRANCH  37  40
HETATM   40  C   UNL     1      -6.051  19.327  69.207  1.00  0.00    -0.267 C  
HETATM   41  O   UNL     1      -6.677  20.196  70.158  1.00  0.00    -0.302 OA 
HETATM   42  H   UNL     1      -6.538  21.100  69.900  1.00  0.00     0.000 HD 
ENDBRANCH  37  40
ENDBRANCH  36  37
ENDBRANCH   4  36
TORSDOF 12
ENDMDL
MODEL       57
REMARK 921   NORMALIZED FREE ENERGY PREDICTED BY IDOCK:   -4.23 KCAL/MOL
REMARK 922        TOTAL FREE ENERGY PREDICTED BY IDOCK:   -8.41 KCAL/MOL
REMARK 923 INTER-LIGAND FREE ENERGY PREDICTED BY IDOCK:   -7.86 KCAL/MOL
REMARK 924 INTRA-LIGAND FREE ENERGY PREDICTED BY IDOCK:   -0.55 KCAL/MOL
REMARK 927      BINDING AFFINITY PREDICTED BY RF-SCORE:    0.00 PKD
ROOT
HETATM    1  C   UNL     1     -12.205   6.528  72.066  1.00  0.00    -0.343 C  
HETATM    2  C   UNL     1     -11.463   6.876  70.805  1.00  0.00    -0.335 C  
HETATM    3  O   UNL     1     -11.806   6.370  69.733  1.00  0.00    -0.357 OA 
HETATM    4  N   UNL     1     -10.388   7.762  70.912  1.00  0.00    -0.200 N  
ENDROOT
BRANCH   4   5
HETATM    5  C   UNL     1      -9.739   8.131  69.689  1.00  0.00    -0.170 A  
HETATM    6  C   UNL     1      -8.769   8.676  67.111  1.00  0.00    -0.128 A  
HETATM    7  C   UNL     1     -10.069   9.361  69.060  1.00  0.00    -0.194 A  
HETATM    8  C   UNL     1      -8.815   7.244  69.081  1.00  0.00    -0.136 A  
HETATM    9  I   UNL     1      -8.152   5.512  70.208  1.00  0.00    -0.106 I  
HETATM   10  I   UNL     1     -11.262  10.770  70.192  1.00  0.00    -0.092 I  
HETATM   11  C   UNL     1      -8.330   7.500  67.778  1.00  0.00    -0.119 A  
HETATM   12  I   UNL     1      -8.386   8.869  64.978  1.00  0.00    -0.180 I  
HETATM   13  C   UNL     1      -9.589   9.648  67.766  1.00  0.00    -0.161 A  
BRANCH  11  14
HETATM   14  C   UNL     1      -7.490   6.469  67.098  1.00  0.00    -0.088 C  
HETATM   15  O   UNL     1      -6.271   6.594  67.050  1.00  0.00    -0.036 OA 
HETATM   16  N   UNL     1      -8.149   5.396  66.540  1.00  0.00    -0.105 N  
HETATM   17  H   UNL     1      -9.163   5.330  66.628  1.00  0.00     0.000 HD 
BRANCH  16  18
HETATM   18  C   UNL     1      -7.420   4.349  65.824  1.00  0.00    -0.081 C  
BRANCH  18  19
HETATM   19  C   UNL     1      -8.341   3.203  65.396  1.00  0.00    -0.096 C  
HETATM   20  H   UNL     1      -9.523   1.915  66.294  1.00  0.00     0.000 HD 
HETATM   21  O   UNL     1      -8.952   2.626  66.560  1.00  0.00    -0.138 OA 
BRANCH  19  22
HETATM   22  C   UNL     1      -9.413   3.682  64.405  1.00  0.00    -0.154 C  
HETATM   23  O   UNL     1     -10.581   4.143  65.083  1.00  0.00    -0.440 OA 
HETATM   24  H   UNL     1     -11.243   4.440  64.470  1.00  0.00     0.000 HD 
ENDBRANCH  19  22
ENDBRANCH  18  19
ENDBRANCH  16  18
ENDBRANCH  11  14
BRANCH  13  25
HETATM   25  C   UNL     1      -9.847  10.963  67.090  1.00  0.00    -0.184 C  
HETATM   26  O   UNL     1      -9.023  11.865  67.193  1.00  0.00    -0.166 OA 
HETATM   27  H   UNL     1     -11.663  10.339  66.261  1.00  0.00     0.000 HD 
HETATM   28  N   UNL     1     -11.020  11.122  66.373  1.00  0.00    -0.233 N  
BRANCH  28  29
HETATM   29  C   UNL     1     -11.331  12.416  65.776  1.00  0.00    -0.352 C  
BRANCH  29  30
HETATM   30  C   UNL     1     -11.915  12.294  64.362  1.00  0.00    -0.394 C  
HETATM   31  H   UNL     1     -13.705  12.098  63.570  1.00  0.00     0.000 HD 
HETATM   32  O   UNL     1     -13.345  12.174  64.445  1.00  0.00    -0.740 OA 
BRANCH  30  33
HETATM   33  C   UNL     1     -11.537  13.509  63.499  1.00  0.00    -0.044 C  
HETATM   34  O   UNL     1     -11.088  14.600  64.301  1.00  0.00    -0.616 OA 
HETATM   35  H   UNL     1     -10.854  15.351  63.768  1.00  0.00     0.000 HD 
ENDBRANCH  30  33
ENDBRANCH  29  30
ENDBRANCH  28  29
ENDBRANCH  13  25
ENDBRANCH   4   5
BRANCH   4  36
HETATM   36  C   UNL     1      -9.910   8.380  72.181  1.00  0.00    -0.302 C  
BRANCH  36  37
HETATM   37  C   UNL     1      -8.650   7.763  72.844  1.00  0.00    -0.158 C  
HETATM   38  O   UNL     1      -7.600   8.722  73.037  1.00  0.00    -0.368 OA 
HETATM   39  H   UNL     1      -6.828   8.344  73.443  1.00  0.00     0.000 HD 
BRANCH  37  40
HETATM   40  C   UNL     1      -8.925   7.136  74.215  1.00  0.00    -0.214 C  
HETATM   41  O   UNL     1     -10.328   7.191  74.493  1.00  0.00    -0.427 OA 
HETATM   42  H   UNL     1     -10.498   6.802  75.343  1.00  0.00     0.000 HD 
ENDBRANCH  37  40
ENDBRANCH  36  37
ENDBRANCH   4  36
TORSDOF 12
ENDMDL
MODEL       58
REMARK 921   NORMALIZED FREE ENERGY PREDICTED BY IDOCK:   -4.21 KCAL/MOL
REMARK 922        TOTAL FREE ENERGY PREDICTED BY IDOCK:   -8.37 KCAL/MOL
REMARK 923 INTER-LIGAND FREE ENERGY PREDICTED BY IDOCK:   -7.09 KCAL/MOL
REMARK 924 INTRA-LIGAND FREE ENERGY PREDICTED BY IDOCK:   -1.28 KCAL/MOL
REMARK 927      BINDING AFFINITY PREDICTED BY RF-SCORE:    0.00 PKD
ROOT
HETATM    1  C   UNL     1      -7.876   5.097  71.525  1.00  0.00    -0.111 C  
HETATM    2  C   UNL     1      -7.631   5.917  70.289  1.00  0.00    -0.094 C  
HETATM    3  O   UNL     1      -6.502   6.357  70.059  1.00  0.00    -0.037 OA 
HETATM    4  N   UNL     1      -8.722   6.159  69.449  1.00  0.00    -0.122 N  
ENDROOT
BRANCH   4   5
HETATM    5  C   UNL     1      -8.451   6.885  68.243  1.00  0.00    -0.125 A  
HETATM    6  C   UNL     1      -8.301   8.269  65.805  1.00  0.00    -0.137 A  
HETATM    7  C   UNL     1      -8.573   8.299  68.231  1.00  0.00    -0.133 A  
HETATM    8  C   UNL     1      -8.117   6.186  67.055  1.00  0.00    -0.106 A  
HETATM    9  I   UNL     1      -7.686   4.063  67.190  1.00  0.00    -0.084 I  
HETATM   10  I   UNL     1      -8.802   9.297  70.139  1.00  0.00    -0.292 I  
HETATM   11  C   UNL     1      -8.053   6.869  65.819  1.00  0.00    -0.123 A  
HETATM   12  I   UNL     1      -8.632   9.250  63.891  1.00  0.00    -0.074 I  
HETATM   13  C   UNL     1      -8.500   9.007  67.013  1.00  0.00    -0.120 A  
BRANCH  11  14
HETATM   14  C   UNL     1      -7.864   6.085  64.562  1.00  0.00    -0.113 C  
HETATM   15  O   UNL     1      -6.760   6.018  64.032  1.00  0.00    -0.036 OA 
HETATM   16  N   UNL     1      -8.975   5.457  64.046  1.00  0.00    -0.347 N  
HETATM   17  H   UNL     1      -9.865   5.527  64.539  1.00  0.00     0.000 HD 
BRANCH  16  18
HETATM   18  C   UNL     1      -8.902   4.690  62.802  1.00  0.00    -0.127 C  
BRANCH  18  19
HETATM   19  C   UNL     1      -8.883   3.180  63.061  1.00  0.00    -0.092 C  
HETATM   20  H   UNL     1      -7.532   1.836  63.540  1.00  0.00     0.000 HD 
HETATM   21  O   UNL     1      -7.544   2.772  63.379  1.00  0.00    -0.060 OA 
BRANCH  19  22
HETATM   22  C   UNL     1      -9.849   2.791  64.189  1.00  0.00    -0.140 C  
HETATM   23  O   UNL     1     -11.147   3.348  63.979  1.00  0.00    -0.549 OA 
HETATM   24  H   UNL     1     -11.744   3.107  64.678  1.00  0.00     0.000 HD 
ENDBRANCH  19  22
ENDBRANCH  18  19
ENDBRANCH  16  18
ENDBRANCH  11  14
BRANCH  13  25
HETATM   25  C   UNL     1      -8.549  10.506  66.956  1.00  0.00    -0.127 C  
HETATM   26  O   UNL     1      -7.501  11.143  66.963  1.00  0.00    -0.117 OA 
HETATM   27  H   UNL     1     -10.636  10.574  66.847  1.00  0.00     0.000 HD 
HETATM   28  N   UNL     1      -9.783  11.130  66.904  1.00  0.00    -0.189 N  
BRANCH  28  29
HETATM   29  C   UNL     1      -9.858  12.586  66.930  1.00  0.00    -0.227 C  
BRANCH  29  30
HETATM   30  C   UNL     1     -11.097  13.103  67.674  1.00  0.00    -0.270 C  
HETATM   31  H   UNL     1     -12.866  13.808  67.179  1.00  0.00     0.000 HD 
HETATM   32  O   UNL     1     -12.100  13.488  66.718  1.00  0.00    -0.389 OA 
BRANCH  30  33
HETATM   33  C   UNL     1     -11.659  12.034  68.626  1.00  0.00    -0.319 C  
HETATM   34  O   UNL     1     -11.469  12.398  69.991  1.00  0.00    -0.506 OA 
HETATM   35  H   UNL     1     -11.815  11.738  70.580  1.00  0.00     0.000 HD 
ENDBRANCH  30  33
ENDBRANCH  29  30
ENDBRANCH  28  29
ENDBRANCH  13  25
ENDBRANCH   4   5
BRANCH   4  36
HETATM   36  C   UNL     1     -10.112   5.679  69.689  1.00  0.00    -0.222 C  
BRANCH  36  37
HETATM   37  C   UNL     1     -11.060   6.612  70.488  1.00  0.00    -0.307 C  
HETATM   38  O   UNL     1     -12.326   6.803  69.839  1.00  0.00    -0.581 OA 
HETATM   39  H   UNL     1     -12.907   7.375  70.328  1.00  0.00     0.000 HD 
BRANCH  37  40
HETATM   40  C   UNL     1     -11.366   6.109  71.902  1.00  0.00    -0.296 C  
HETATM   41  O   UNL     1     -11.710   7.218  72.740  1.00  0.00    -0.514 OA 
HETATM   42  H   UNL     1     -11.900   6.906  73.617  1.00  0.00     0.000 HD 
ENDBRANCH  37  40
ENDBRANCH  36  37
ENDBRANCH   4  36
TORSDOF 12
ENDMDL
MODEL       59
REMARK 921   NORMALIZED FREE ENERGY PREDICTED BY IDOCK:   -4.19 KCAL/MOL
REMARK 922        TOTAL FREE ENERGY PREDICTED BY IDOCK:   -8.32 KCAL/MOL
REMARK 923 INTER-LIGAND FREE ENERGY PREDICTED BY IDOCK:   -7.19 KCAL/MOL
REMARK 924 INTRA-LIGAND FREE ENERGY PREDICTED BY IDOCK:   -1.13 KCAL/MOL
REMARK 927      BINDING AFFINITY PREDICTED BY RF-SCORE:    0.00 PKD
ROOT
HETATM    1  C   UNL     1     -10.015   8.073  71.130  1.00  0.00    -0.206 C  
HETATM    2  C   UNL     1     -10.026   8.190  69.630  1.00  0.00    -0.193 C  
HETATM    3  O   UNL     1     -10.848   7.547  68.972  1.00  0.00    -0.172 OA 
HETATM    4  N   UNL     1      -9.075   9.028  69.041  1.00  0.00    -0.142 N  
ENDROOT
BRANCH   4   5
HETATM    5  C   UNL     1      -9.149   9.175  67.617  1.00  0.00    -0.122 A  
HETATM    6  C   UNL     1      -8.985   9.703  64.865  1.00  0.00    -0.217 A  
HETATM    7  C   UNL     1      -8.395   8.310  66.780  1.00  0.00    -0.107 A  
HETATM    8  C   UNL     1      -9.927  10.217  67.052  1.00  0.00    -0.201 A  
HETATM    9  I   UNL     1     -11.259  11.334  68.351  1.00  0.00    -0.412 I  
HETATM   10  I   UNL     1      -7.472   6.583  67.706  1.00  0.00    -0.101 I  
HETATM   11  C   UNL     1      -9.842  10.502  65.670  1.00  0.00    -0.311 A  
HETATM   12  I   UNL     1      -8.511  10.384  62.853  1.00  0.00    -0.228 I  
HETATM   13  C   UNL     1      -8.304   8.564  65.396  1.00  0.00    -0.164 A  
BRANCH  11  14
HETATM   14  C   UNL     1     -10.542  11.706  65.130  1.00  0.00    -0.290 C  
HETATM   15  O   UNL     1     -11.670  11.609  64.658  1.00  0.00    -0.213 OA 
HETATM   16  N   UNL     1      -9.863  12.902  65.190  1.00  0.00    -0.496 N  
HETATM   17  H   UNL     1      -8.935  12.930  65.613  1.00  0.00     0.000 HD 
BRANCH  16  18
HETATM   18  C   UNL     1     -10.449  14.133  64.659  1.00  0.00    -0.339 C  
BRANCH  18  19
HETATM   19  C   UNL     1     -10.394  15.277  65.677  1.00  0.00    -0.366 C  
HETATM   20  H   UNL     1     -10.657  17.224  65.644  1.00  0.00     0.000 HD 
HETATM   21  O   UNL     1     -10.691  16.515  65.013  1.00  0.00    -0.662 OA 
BRANCH  19  22
HETATM   22  C   UNL     1     -11.367  15.041  66.842  1.00  0.00    -0.302 C  
HETATM   23  O   UNL     1     -12.520  14.314  66.418  1.00  0.00    -0.489 OA 
HETATM   24  H   UNL     1     -13.122  14.169  67.139  1.00  0.00     0.000 HD 
ENDBRANCH  19  22
ENDBRANCH  18  19
ENDBRANCH  16  18
ENDBRANCH  11  14
BRANCH  13  25
HETATM   25  C   UNL     1      -7.582   7.639  64.460  1.00  0.00    -0.112 C  
HETATM   26  O   UNL     1      -6.404   7.852  64.194  1.00  0.00    -0.056 OA 
HETATM   27  H   UNL     1      -9.238   6.390  64.193  1.00  0.00     0.000 HD 
HETATM   28  N   UNL     1      -8.273   6.572  63.914  1.00  0.00    -0.017 N  
BRANCH  28  29
HETATM   29  C   UNL     1      -7.617   5.709  62.939  1.00  0.00    -0.072 C  
BRANCH  29  30
HETATM   30  C   UNL     1      -7.929   4.222  63.157  1.00  0.00    -0.080 C  
HETATM   31  H   UNL     1      -7.064   2.700  64.055  1.00  0.00     0.000 HD 
HETATM   32  O   UNL     1      -6.871   3.620  63.920  1.00  0.00    -0.042 OA 
BRANCH  30  33
HETATM   33  C   UNL     1      -9.272   4.038  63.882  1.00  0.00    -0.142 C  
HETATM   34  O   UNL     1     -10.370   4.102  62.974  1.00  0.00    -0.325 OA 
HETATM   35  H   UNL     1     -11.200   3.989  63.422  1.00  0.00     0.000 HD 
ENDBRANCH  30  33
ENDBRANCH  29  30
ENDBRANCH  28  29
ENDBRANCH  13  25
ENDBRANCH   4   5
BRANCH   4  36
HETATM   36  C   UNL     1      -8.042   9.805  69.781  1.00  0.00    -0.167 C  
BRANCH  36  37
HETATM   37  C   UNL     1      -6.583   9.278  69.732  1.00  0.00    -0.043 C  
HETATM   38  O   UNL     1      -5.805   9.897  68.696  1.00  0.00    -0.039 OA 
HETATM   39  H   UNL     1      -4.911   9.575  68.666  1.00  0.00     0.000 HD 
BRANCH  37  40
HETATM   40  C   UNL     1      -5.812   9.487  71.040  1.00  0.00    -0.069 C  
HETATM   41  O   UNL     1      -6.710   9.364  72.148  1.00  0.00    -0.292 OA 
HETATM   42  H   UNL     1      -6.232   9.494  72.959  1.00  0.00     0.000 HD 
ENDBRANCH  37  40
ENDBRANCH  36  37
ENDBRANCH   4  36
TORSDOF 12
ENDMDL
MODEL       60
REMARK 921   NORMALIZED FREE ENERGY PREDICTED BY IDOCK:   -4.14 KCAL/MOL
REMARK 922        TOTAL FREE ENERGY PREDICTED BY IDOCK:   -8.24 KCAL/MOL
REMARK 923 INTER-LIGAND FREE ENERGY PREDICTED BY IDOCK:   -7.36 KCAL/MOL
REMARK 924 INTRA-LIGAND FREE ENERGY PREDICTED BY IDOCK:   -0.88 KCAL/MOL
REMARK 927      BINDING AFFINITY PREDICTED BY RF-SCORE:    0.00 PKD
ROOT
HETATM    1  C   UNL     1      -7.068   1.962  68.572  1.00  0.00    -0.039 C  
HETATM    2  C   UNL     1      -7.042   3.451  68.785  1.00  0.00    -0.049 C  
HETATM    3  O   UNL     1      -6.091   3.969  69.376  1.00  0.00    -0.025 OA 
HETATM    4  N   UNL     1      -8.128   4.190  68.306  1.00  0.00    -0.081 N  
ENDROOT
BRANCH   4   5
HETATM    5  C   UNL     1      -8.049   5.613  68.461  1.00  0.00    -0.103 A  
HETATM    6  C   UNL     1      -8.215   8.414  68.538  1.00  0.00    -0.124 A  
HETATM    7  C   UNL     1      -8.752   6.245  69.521  1.00  0.00    -0.132 A  
HETATM    8  C   UNL     1      -7.319   6.388  67.525  1.00  0.00    -0.091 A  
HETATM    9  I   UNL     1      -6.056   5.359  66.092  1.00  0.00    -0.032 I  
HETATM   10  I   UNL     1      -9.596   4.972  71.056  1.00  0.00    -0.274 I  
HETATM   11  C   UNL     1      -7.406   7.799  67.545  1.00  0.00    -0.092 A  
HETATM   12  I   UNL     1      -8.704  10.524  68.325  1.00  0.00    -0.153 I  
HETATM   13  C   UNL     1      -8.843   7.651  69.572  1.00  0.00    -0.139 A  
BRANCH  11  14
HETATM   14  C   UNL     1      -6.762   8.584  66.449  1.00  0.00    -0.070 C  
HETATM   15  O   UNL     1      -5.736   9.221  66.662  1.00  0.00    -0.052 OA 
HETATM   16  N   UNL     1      -7.373   8.551  65.216  1.00  0.00    -0.083 N  
HETATM   17  H   UNL     1      -8.213   7.987  65.087  1.00  0.00     0.000 HD 
BRANCH  16  18
HETATM   18  C   UNL     1      -6.838   9.311  64.086  1.00  0.00    -0.091 C  
BRANCH  18  19
HETATM   19  C   UNL     1      -7.927   9.660  63.066  1.00  0.00    -0.134 C  
HETATM   20  H   UNL     1      -9.121   8.666  61.863  1.00  0.00     0.000 HD 
HETATM   21  O   UNL     1      -8.446   8.449  62.495  1.00  0.00    -0.186 OA 
BRANCH  19  22
HETATM   22  C   UNL     1      -9.055  10.483  63.706  1.00  0.00    -0.236 C  
HETATM   23  O   UNL     1     -10.028   9.641  64.324  1.00  0.00    -0.389 OA 
HETATM   24  H   UNL     1     -10.726  10.149  64.720  1.00  0.00     0.000 HD 
ENDBRANCH  19  22
ENDBRANCH  18  19
ENDBRANCH  16  18
ENDBRANCH  11  14
BRANCH  13  25
HETATM   25  C   UNL     1      -9.510   8.369  70.709  1.00  0.00    -0.169 C  
HETATM   26  O   UNL     1      -8.821   8.862  71.595  1.00  0.00    -0.264 OA 
HETATM   27  H   UNL     1     -11.436   8.070  69.952  1.00  0.00     0.000 HD 
HETATM   28  N   UNL     1     -10.891   8.445  70.729  1.00  0.00    -0.219 N  
BRANCH  28  29
HETATM   29  C   UNL     1     -11.565   9.065  71.864  1.00  0.00    -0.370 C  
BRANCH  29  30
HETATM   30  C   UNL     1     -12.916   9.687  71.487  1.00  0.00    -0.395 C  
HETATM   31  H   UNL     1     -14.726   9.740  72.256  1.00  0.00     0.000 HD 
HETATM   32  O   UNL     1     -13.891   9.355  72.490  1.00  0.00    -0.444 OA 
BRANCH  30  33
HETATM   33  C   UNL     1     -12.803  11.215  71.348  1.00  0.00    -0.439 C  
HETATM   34  O   UNL     1     -13.631  11.888  72.294  1.00  0.00    -0.550 OA 
HETATM   35  H   UNL     1     -13.562  12.832  72.208  1.00  0.00     0.000 HD 
ENDBRANCH  30  33
ENDBRANCH  29  30
ENDBRANCH  28  29
ENDBRANCH  13  25
ENDBRANCH   4   5
BRANCH   4  36
HETATM   36  C   UNL     1      -9.315   3.618  67.612  1.00  0.00    -0.200 C  
BRANCH  36  37
HETATM   37  C   UNL     1      -9.479   3.933  66.101  1.00  0.00    -0.184 C  
HETATM   38  O   UNL     1      -9.796   2.769  65.323  1.00  0.00    -0.363 OA 
HETATM   39  H   UNL     1      -9.896   2.963  64.398  1.00  0.00     0.000 HD 
BRANCH  37  40
HETATM   40  C   UNL     1     -10.571   4.966  65.806  1.00  0.00    -0.182 C  
HETATM   41  O   UNL     1     -11.464   4.448  64.814  1.00  0.00    -1.011 OA 
HETATM   42  H   UNL     1     -12.140   5.088  64.631  1.00  0.00     0.000 HD 
ENDBRANCH  37  40
ENDBRANCH  36  37
ENDBRANCH   4  36
TORSDOF 12
ENDMDL
MODEL       61
REMARK 921   NORMALIZED FREE ENERGY PREDICTED BY IDOCK:   -4.07 KCAL/MOL
REMARK 922        TOTAL FREE ENERGY PREDICTED BY IDOCK:   -8.13 KCAL/MOL
REMARK 923 INTER-LIGAND FREE ENERGY PREDICTED BY IDOCK:   -8.26 KCAL/MOL
REMARK 924 INTRA-LIGAND FREE ENERGY PREDICTED BY IDOCK:    0.13 KCAL/MOL
REMARK 927      BINDING AFFINITY PREDICTED BY RF-SCORE:    0.00 PKD
ROOT
HETATM    1  C   UNL     1     -11.201  15.471  64.354  1.00  0.00    -0.232 C  
HETATM    2  C   UNL     1     -11.540  14.363  65.313  1.00  0.00    -0.353 C  
HETATM    3  O   UNL     1     -12.640  13.809  65.243  1.00  0.00    -0.489 OA 
HETATM    4  N   UNL     1     -10.578  14.017  66.266  1.00  0.00    -0.279 N  
ENDROOT
BRANCH   4   5
HETATM    5  C   UNL     1     -10.897  12.914  67.124  1.00  0.00    -0.256 A  
HETATM    6  C   UNL     1     -11.171  10.816  68.969  1.00  0.00    -0.262 A  
HETATM    7  C   UNL     1     -11.540  13.153  68.367  1.00  0.00    -0.337 A  
HETATM    8  C   UNL     1     -10.519  11.598  66.756  1.00  0.00    -0.230 A  
HETATM    9  I   UNL     1      -9.784  11.258  64.742  1.00  0.00    -0.266 I  
HETATM   10  I   UNL     1     -12.331  15.139  68.715  1.00  0.00     0.580 I  
HETATM   11  C   UNL     1     -10.639  10.536  67.681  1.00  0.00    -0.295 A  
HETATM   12  I   UNL     1     -10.966   9.315  70.531  1.00  0.00    -0.382 I  
HETATM   13  C   UNL     1     -11.685  12.108  69.303  1.00  0.00    -0.386 A  
BRANCH  11  14
HETATM   14  C   UNL     1     -10.082   9.195  67.327  1.00  0.00    -0.233 C  
HETATM   15  O   UNL     1     -10.813   8.317  66.883  1.00  0.00    -0.228 OA 
HETATM   16  N   UNL     1      -8.733   9.009  67.526  1.00  0.00    -0.120 N  
HETATM   17  H   UNL     1      -8.166   9.781  67.877  1.00  0.00     0.000 HD 
BRANCH  16  18
HETATM   18  C   UNL     1      -8.096   7.723  67.241  1.00  0.00    -0.119 C  
BRANCH  18  19
HETATM   19  C   UNL     1      -7.182   7.797  66.013  1.00  0.00    -0.073 C  
HETATM   20  H   UNL     1      -7.371   7.502  64.079  1.00  0.00     0.000 HD 
HETATM   21  O   UNL     1      -7.937   7.456  64.840  1.00  0.00    -0.120 OA 
BRANCH  19  22
HETATM   22  C   UNL     1      -6.551   9.189  65.865  1.00  0.00    -0.071 C  
HETATM   23  O   UNL     1      -5.781   9.538  67.015  1.00  0.00    -0.049 OA 
HETATM   24  H   UNL     1      -5.391  10.399  66.923  1.00  0.00     0.000 HD 
ENDBRANCH  19  22
ENDBRANCH  18  19
ENDBRANCH  16  18
ENDBRANCH  11  14
BRANCH  13  25
HETATM   25  C   UNL     1     -12.422  12.291  70.598  1.00  0.00    -0.236 C  
HETATM   26  O   UNL     1     -13.115  11.376  71.029  1.00  0.00    -0.245 OA 
HETATM   27  H   UNL     1     -11.678  14.220  70.911  1.00  0.00     0.000 HD 
HETATM   28  N   UNL     1     -12.302  13.496  71.267  1.00  0.00    -0.304 N  
BRANCH  28  29
HETATM   29  C   UNL     1     -13.073  13.727  72.483  1.00  0.00    -0.419 C  
BRANCH  29  30
HETATM   30  C   UNL     1     -12.682  15.029  73.196  1.00  0.00    -0.486 C  
HETATM   31  H   UNL     1     -12.107  15.547  75.005  1.00  0.00     0.000 HD 
HETATM   32  O   UNL     1     -12.348  14.741  74.564  1.00  0.00    -0.447 OA 
BRANCH  30  33
HETATM   33  C   UNL     1     -11.494  15.709  72.495  1.00  0.00    -0.300 C  
HETATM   34  O   UNL     1     -11.664  17.124  72.435  1.00  0.00    -0.278 OA 
HETATM   35  H   UNL     1     -10.930  17.545  72.003  1.00  0.00     0.000 HD 
ENDBRANCH  30  33
ENDBRANCH  29  30
ENDBRANCH  28  29
ENDBRANCH  13  25
ENDBRANCH   4   5
BRANCH   4  36
HETATM   36  C   UNL     1      -9.247  14.669  66.415  1.00  0.00    -0.249 C  
BRANCH  36  37
HETATM   37  C   UNL     1      -9.146  15.865  67.399  1.00  0.00    -0.196 C  
HETATM   38  O   UNL     1      -8.429  15.537  68.599  1.00  0.00    -0.155 OA 
HETATM   39  H   UNL     1      -8.367  16.269  69.201  1.00  0.00     0.000 HD 
BRANCH  37  40
HETATM   40  C   UNL     1      -8.453  17.094  66.800  1.00  0.00    -0.235 C  
HETATM   41  O   UNL     1      -9.410  17.878  66.080  1.00  0.00    -0.508 OA 
HETATM   42  H   UNL     1      -8.981  18.639  65.708  1.00  0.00     0.000 HD 
ENDBRANCH  37  40
ENDBRANCH  36  37
ENDBRANCH   4  36
TORSDOF 12
ENDMDL
MODEL       62
REMARK 921   NORMALIZED FREE ENERGY PREDICTED BY IDOCK:   -4.07 KCAL/MOL
REMARK 922        TOTAL FREE ENERGY PREDICTED BY IDOCK:   -8.12 KCAL/MOL
REMARK 923 INTER-LIGAND FREE ENERGY PREDICTED BY IDOCK:   -7.67 KCAL/MOL
REMARK 924 INTRA-LIGAND FREE ENERGY PREDICTED BY IDOCK:   -0.45 KCAL/MOL
REMARK 927      BINDING AFFINITY PREDICTED BY RF-SCORE:    0.00 PKD
ROOT
HETATM    1  C   UNL     1     -10.050  12.443  64.033  1.00  0.00    -0.342 C  
HETATM    2  C   UNL     1     -10.255  11.789  65.372  1.00  0.00    -0.261 C  
HETATM    3  O   UNL     1     -10.888  10.734  65.448  1.00  0.00    -0.137 OA 
HETATM    4  N   UNL     1      -9.718  12.431  66.492  1.00  0.00    -0.235 N  
ENDROOT
BRANCH   4   5
HETATM    5  C   UNL     1      -9.867  11.756  67.747  1.00  0.00    -0.181 A  
HETATM    6  C   UNL     1     -10.387  10.181  70.012  1.00  0.00    -0.250 A  
HETATM    7  C   UNL     1      -8.974  10.707  68.092  1.00  0.00    -0.141 A  
HETATM    8  C   UNL     1     -10.936  12.098  68.614  1.00  0.00    -0.245 A  
HETATM    9  I   UNL     1     -12.102  13.873  68.165  1.00  0.00     0.148 I  
HETATM   10  I   UNL     1      -7.216  10.447  66.856  1.00  0.00    -0.115 I  
HETATM   11  C   UNL     1     -11.217  11.305  69.749  1.00  0.00    -0.294 A  
HETATM   12  I   UNL     1     -11.048   8.718  71.481  1.00  0.00    -0.458 I  
HETATM   13  C   UNL     1      -9.223   9.908  69.227  1.00  0.00    -0.207 A  
BRANCH  11  14
HETATM   14  C   UNL     1     -12.445  11.589  70.551  1.00  0.00    -0.280 C  
HETATM   15  O   UNL     1     -13.400  10.819  70.517  1.00  0.00    -0.089 OA 
HETATM   16  N   UNL     1     -12.443  12.737  71.311  1.00  0.00    -0.273 N  
HETATM   17  H   UNL     1     -11.613  13.330  71.319  1.00  0.00     0.000 HD 
BRANCH  16  18
HETATM   18  C   UNL     1     -13.609  13.120  72.106  1.00  0.00    -0.544 C  
BRANCH  18  19
HETATM   19  C   UNL     1     -13.414  14.478  72.788  1.00  0.00    -0.478 C  
HETATM   20  H   UNL     1     -12.237  15.216  74.178  1.00  0.00     0.000 HD 
HETATM   21  O   UNL     1     -12.358  14.374  73.755  1.00  0.00    -0.331 OA 
BRANCH  19  22
HETATM   22  C   UNL     1     -13.106  15.582  71.766  1.00  0.00    -0.466 C  
HETATM   23  O   UNL     1     -14.071  15.603  70.715  1.00  0.00    -0.828 OA 
HETATM   24  H   UNL     1     -13.879  16.286  70.083  1.00  0.00     0.000 HD 
ENDBRANCH  19  22
ENDBRANCH  18  19
ENDBRANCH  16  18
ENDBRANCH  11  14
BRANCH  13  25
HETATM   25  C   UNL     1      -8.273   8.837  69.675  1.00  0.00    -0.113 C  
HETATM   26  O   UNL     1      -7.427   9.099  70.524  1.00  0.00    -0.086 OA 
HETATM   27  H   UNL     1      -9.119   7.374  68.443  1.00  0.00     0.000 HD 
HETATM   28  N   UNL     1      -8.373   7.579  69.109  1.00  0.00    -0.133 N  
BRANCH  28  29
HETATM   29  C   UNL     1      -7.409   6.545  69.468  1.00  0.00    -0.091 C  
BRANCH  29  30
HETATM   30  C   UNL     1      -8.073   5.202  69.799  1.00  0.00    -0.082 C  
HETATM   31  H   UNL     1      -8.159   3.413  68.983  1.00  0.00     0.000 HD 
HETATM   32  O   UNL     1      -7.748   4.244  68.778  1.00  0.00    -0.065 OA 
BRANCH  30  33
HETATM   33  C   UNL     1      -7.618   4.682  71.173  1.00  0.00    -0.079 C  
HETATM   34  O   UNL     1      -6.399   5.297  71.586  1.00  0.00    -0.032 OA 
HETATM   35  H   UNL     1      -6.117   4.975  72.435  1.00  0.00     0.000 HD 
ENDBRANCH  30  33
ENDBRANCH  29  30
ENDBRANCH  28  29
ENDBRANCH  13  25
ENDBRANCH   4   5
BRANCH   4  36
HETATM   36  C   UNL     1      -8.970  13.720  66.465  1.00  0.00    -0.057 C  
BRANCH  36  37
HETATM   37  C   UNL     1      -7.990  14.000  67.635  1.00  0.00    -0.178 C  
HETATM   38  O   UNL     1      -6.663  14.311  67.185  1.00  0.00    -0.391 OA 
HETATM   39  H   UNL     1      -6.063  14.483  67.901  1.00  0.00     0.000 HD 
BRANCH  37  40
HETATM   40  C   UNL     1      -8.428  15.160  68.536  1.00  0.00    -0.160 C  
HETATM   41  O   UNL     1      -9.041  16.179  67.739  1.00  0.00    -0.196 OA 
HETATM   42  H   UNL     1      -9.312  16.898  68.297  1.00  0.00     0.000 HD 
ENDBRANCH  37  40
ENDBRANCH  36  37
ENDBRANCH   4  36
TORSDOF 12
ENDMDL
MODEL       63
REMARK 921   NORMALIZED FREE ENERGY PREDICTED BY IDOCK:   -4.06 KCAL/MOL
REMARK 922        TOTAL FREE ENERGY PREDICTED BY IDOCK:   -8.12 KCAL/MOL
REMARK 923 INTER-LIGAND FREE ENERGY PREDICTED BY IDOCK:   -7.79 KCAL/MOL
REMARK 924 INTRA-LIGAND FREE ENERGY PREDICTED BY IDOCK:   -0.33 KCAL/MOL
REMARK 927      BINDING AFFINITY PREDICTED BY RF-SCORE:    0.00 PKD
ROOT
HETATM    1  C   UNL     1      -6.420   7.328  68.603  1.00  0.00    -0.040 C  
HETATM    2  C   UNL     1      -6.608   8.724  68.076  1.00  0.00    -0.061 C  
HETATM    3  O   UNL     1      -5.907   9.126  67.143  1.00  0.00    -0.045 OA 
HETATM    4  N   UNL     1      -7.578   9.521  68.690  1.00  0.00    -0.079 N  
ENDROOT
BRANCH   4   5
HETATM    5  C   UNL     1      -7.786  10.823  68.127  1.00  0.00    -0.102 A  
HETATM    6  C   UNL     1      -8.493  13.402  67.273  1.00  0.00    -0.200 A  
HETATM    7  C   UNL     1      -7.164  11.953  68.720  1.00  0.00    -0.112 A  
HETATM    8  C   UNL     1      -8.654  10.985  67.017  1.00  0.00    -0.140 A  
HETATM    9  I   UNL     1      -9.362   9.208  65.992  1.00  0.00    -0.311 I  
HETATM   10  I   UNL     1      -5.643  11.583  70.217  1.00  0.00    -0.145 I  
HETATM   11  C   UNL     1      -9.028  12.278  66.587  1.00  0.00    -0.189 A  
HETATM   12  I   UNL     1      -9.376  15.358  66.918  1.00  0.00    -0.320 I  
HETATM   13  C   UNL     1      -7.510  13.254  68.301  1.00  0.00    -0.126 A  
BRANCH  11  14
HETATM   14  C   UNL     1     -10.070  12.419  65.526  1.00  0.00    -0.267 C  
HETATM   15  O   UNL     1      -9.751  12.439  64.342  1.00  0.00    -0.114 OA 
HETATM   16  N   UNL     1     -11.377  12.524  65.945  1.00  0.00    -0.323 N  
HETATM   17  H   UNL     1     -11.589  12.480  66.942  1.00  0.00     0.000 HD 
BRANCH  16  18
HETATM   18  C   UNL     1     -12.468  12.698  64.986  1.00  0.00    -0.487 C  
BRANCH  18  19
HETATM   19  C   UNL     1     -12.158  13.793  63.960  1.00  0.00    -0.403 C  
HETATM   20  H   UNL     1     -12.653  14.179  62.098  1.00  0.00     0.000 HD 
HETATM   21  O   UNL     1     -12.845  13.500  62.733  1.00  0.00    -0.304 OA 
BRANCH  19  22
HETATM   22  C   UNL     1     -12.552  15.182  64.483  1.00  0.00     0.073 C  
HETATM   23  O   UNL     1     -11.872  16.218  63.775  1.00  0.00    -1.445 OA 
HETATM   24  H   UNL     1     -12.116  17.077  64.099  1.00  0.00     0.000 HD 
ENDBRANCH  19  22
ENDBRANCH  18  19
ENDBRANCH  16  18
ENDBRANCH  11  14
BRANCH  13  25
HETATM   25  C   UNL     1      -6.829  14.477  68.844  1.00  0.00    -0.099 C  
HETATM   26  O   UNL     1      -7.128  14.886  69.961  1.00  0.00    -0.176 OA 
HETATM   27  H   UNL     1      -5.618  14.724  67.156  1.00  0.00     0.000 HD 
HETATM   28  N   UNL     1      -5.884  15.115  68.060  1.00  0.00    -0.134 N  
BRANCH  28  29
HETATM   29  C   UNL     1      -5.269  16.351  68.532  1.00  0.00    -0.105 C  
BRANCH  29  30
HETATM   30  C   UNL     1      -5.845  17.599  67.850  1.00  0.00    -0.149 C  
HETATM   31  H   UNL     1      -6.525  18.062  66.063  1.00  0.00     0.000 HD 
HETATM   32  O   UNL     1      -6.169  17.290  66.484  1.00  0.00    -0.192 OA 
BRANCH  30  33
HETATM   33  C   UNL     1      -7.097  18.105  68.586  1.00  0.00    -0.268 C  
HETATM   34  O   UNL     1      -7.154  19.530  68.603  1.00  0.00    -0.309 OA 
HETATM   35  H   UNL     1      -7.927  19.843  69.058  1.00  0.00     0.000 HD 
ENDBRANCH  30  33
ENDBRANCH  29  30
ENDBRANCH  28  29
ENDBRANCH  13  25
ENDBRANCH   4   5
BRANCH   4  36
HETATM   36  C   UNL     1      -8.433   9.100  69.836  1.00  0.00    -0.147 C  
BRANCH  36  37
HETATM   37  C   UNL     1      -9.958   8.976  69.580  1.00  0.00    -0.191 C  
HETATM   38  O   UNL     1     -10.517   7.773  70.129  1.00  0.00    -0.220 OA 
HETATM   39  H   UNL     1     -11.451   7.697  69.972  1.00  0.00     0.000 HD 
BRANCH  37  40
HETATM   40  C   UNL     1     -10.773  10.138  70.158  1.00  0.00    -0.300 C  
HETATM   41  O   UNL     1     -11.415   9.717  71.366  1.00  0.00    -0.356 OA 
HETATM   42  H   UNL     1     -11.921  10.437  71.724  1.00  0.00     0.000 HD 
ENDBRANCH  37  40
ENDBRANCH  36  37
ENDBRANCH   4  36
TORSDOF 12
ENDMDL
MODEL       64
REMARK 921   NORMALIZED FREE ENERGY PREDICTED BY IDOCK:   -4.05 KCAL/MOL
REMARK 922        TOTAL FREE ENERGY PREDICTED BY IDOCK:   -8.10 KCAL/MOL
REMARK 923 INTER-LIGAND FREE ENERGY PREDICTED BY IDOCK:   -7.29 KCAL/MOL
REMARK 924 INTRA-LIGAND FREE ENERGY PREDICTED BY IDOCK:   -0.81 KCAL/MOL
REMARK 927      BINDING AFFINITY PREDICTED BY RF-SCORE:    0.00 PKD
ROOT
HETATM    1  C   UNL     1      -8.341   5.400  72.024  1.00  0.00    -0.122 C  
HETATM    2  C   UNL     1      -8.127   5.969  70.648  1.00  0.00    -0.116 C  
HETATM    3  O   UNL     1      -7.005   6.358  70.314  1.00  0.00    -0.059 OA 
HETATM    4  N   UNL     1      -9.237   6.044  69.802  1.00  0.00    -0.142 N  
ENDROOT
BRANCH   4   5
HETATM    5  C   UNL     1      -8.995   6.527  68.474  1.00  0.00    -0.126 A  
HETATM    6  C   UNL     1      -8.145   7.488  65.977  1.00  0.00    -0.123 A  
HETATM    7  C   UNL     1      -8.685   5.608  67.437  1.00  0.00    -0.107 A  
HETATM    8  C   UNL     1      -9.011   7.921  68.213  1.00  0.00    -0.132 A  
HETATM    9  I   UNL     1      -9.746   9.254  69.759  1.00  0.00    -0.268 I  
HETATM   10  I   UNL     1      -8.964   3.501  67.855  1.00  0.00    -0.237 I  
HETATM   11  C   UNL     1      -8.572   8.418  66.965  1.00  0.00    -0.124 A  
HETATM   12  I   UNL     1      -7.073   8.235  64.237  1.00  0.00    -0.093 I  
HETATM   13  C   UNL     1      -8.257   6.077  66.178  1.00  0.00    -0.121 A  
BRANCH  11  14
HETATM   14  C   UNL     1      -8.441   9.894  66.773  1.00  0.00    -0.125 C  
HETATM   15  O   UNL     1      -7.451  10.488  67.185  1.00  0.00    -0.093 OA 
HETATM   16  N   UNL     1      -9.473  10.532  66.123  1.00  0.00    -0.173 N  
HETATM   17  H   UNL     1     -10.264   9.985  65.781  1.00  0.00     0.000 HD 
BRANCH  16  18
HETATM   18  C   UNL     1      -9.455  11.980  65.913  1.00  0.00    -0.197 C  
BRANCH  18  19
HETATM   19  C   UNL     1     -10.590  12.437  64.991  1.00  0.00    -0.298 C  
HETATM   20  H   UNL     1     -11.382  14.154  64.455  1.00  0.00     0.000 HD 
HETATM   21  O   UNL     1     -10.679  13.870  65.026  1.00  0.00    -0.338 OA 
BRANCH  19  22
HETATM   22  C   UNL     1     -10.380  11.943  63.552  1.00  0.00    -0.458 C  
HETATM   23  O   UNL     1      -8.994  11.781  63.254  1.00  0.00    -0.531 OA 
HETATM   24  H   UNL     1      -8.864  11.476  62.364  1.00  0.00     0.000 HD 
ENDBRANCH  19  22
ENDBRANCH  18  19
ENDBRANCH  16  18
ENDBRANCH  11  14
BRANCH  13  25
HETATM   25  C   UNL     1      -7.988   5.150  65.028  1.00  0.00    -0.104 C  
HETATM   26  O   UNL     1      -6.874   4.654  64.903  1.00  0.00    -0.050 OA 
HETATM   27  H   UNL     1      -9.941   5.275  64.290  1.00  0.00     0.000 HD 
HETATM   28  N   UNL     1      -9.010   4.888  64.132  1.00  0.00    -0.099 N  
BRANCH  28  29
HETATM   29  C   UNL     1      -8.750   4.057  62.963  1.00  0.00    -0.104 C  
BRANCH  29  30
HETATM   30  C   UNL     1      -9.434   2.686  63.045  1.00  0.00    -0.093 C  
HETATM   31  H   UNL     1      -9.261   1.069  64.152  1.00  0.00     0.000 HD 
HETATM   32  O   UNL     1      -8.837   1.917  64.102  1.00  0.00    -0.093 OA 
BRANCH  30  33
HETATM   33  C   UNL     1     -10.945   2.834  63.290  1.00  0.00    -0.183 C  
HETATM   34  O   UNL     1     -11.549   1.581  63.607  1.00  0.00    -0.525 OA 
HETATM   35  H   UNL     1     -12.482   1.673  63.759  1.00  0.00     0.000 HD 
ENDBRANCH  30  33
ENDBRANCH  29  30
ENDBRANCH  28  29
ENDBRANCH  13  25
ENDBRANCH   4   5
BRANCH   4  36
HETATM   36  C   UNL     1     -10.618   5.617  70.160  1.00  0.00    -0.309 C  
BRANCH  36  37
HETATM   37  C   UNL     1     -11.519   6.653  70.885  1.00  0.00    -0.347 C  
HETATM   38  O   UNL     1     -12.773   6.861  70.217  1.00  0.00    -0.539 OA 
HETATM   39  H   UNL     1     -13.324   7.495  70.661  1.00  0.00     0.000 HD 
BRANCH  37  40
HETATM   40  C   UNL     1     -11.854   6.268  72.330  1.00  0.00    -0.278 C  
HETATM   41  O   UNL     1     -11.741   7.422  73.170  1.00  0.00    -0.582 OA 
HETATM   42  H   UNL     1     -11.948   7.184  74.065  1.00  0.00     0.000 HD 
ENDBRANCH  37  40
ENDBRANCH  36  37
ENDBRANCH   4  36
TORSDOF 12
ENDMDL
MODEL       65
REMARK 921   NORMALIZED FREE ENERGY PREDICTED BY IDOCK:   -4.05 KCAL/MOL
REMARK 922        TOTAL FREE ENERGY PREDICTED BY IDOCK:   -8.10 KCAL/MOL
REMARK 923 INTER-LIGAND FREE ENERGY PREDICTED BY IDOCK:   -6.98 KCAL/MOL
REMARK 924 INTRA-LIGAND FREE ENERGY PREDICTED BY IDOCK:   -1.12 KCAL/MOL
REMARK 927      BINDING AFFINITY PREDICTED BY RF-SCORE:    0.00 PKD
ROOT
HETATM    1  C   UNL     1      -7.656   7.117  64.964  1.00  0.00    -0.104 C  
HETATM    2  C   UNL     1      -8.483   7.736  66.057  1.00  0.00    -0.139 C  
HETATM    3  O   UNL     1      -9.680   7.454  66.154  1.00  0.00    -0.070 OA 
HETATM    4  N   UNL     1      -7.846   8.632  66.920  1.00  0.00    -0.091 N  
ENDROOT
BRANCH   4   5
HETATM    5  C   UNL     1      -8.637   9.157  67.994  1.00  0.00    -0.125 A  
HETATM    6  C   UNL     1     -10.472   9.950  69.965  1.00  0.00    -0.284 A  
HETATM    7  C   UNL     1      -8.652   8.491  69.248  1.00  0.00    -0.129 A  
HETATM    8  C   UNL     1      -9.445  10.303  67.785  1.00  0.00    -0.148 A  
HETATM    9  I   UNL     1      -9.185  11.429  65.948  1.00  0.00    -0.141 I  
HETATM   10  I   UNL     1      -7.182   6.932  69.566  1.00  0.00    -0.086 I  
HETATM   11  C   UNL     1     -10.383  10.704  68.763  1.00  0.00    -0.210 A  
HETATM   12  I   UNL     1     -12.177  10.279  71.278  1.00  0.00    -0.432 I  
HETATM   13  C   UNL     1      -9.568   8.879  70.247  1.00  0.00    -0.212 A  
BRANCH  11  14
HETATM   14  C   UNL     1     -11.334  11.812  68.450  1.00  0.00    -0.270 C  
HETATM   15  O   UNL     1     -12.264  11.631  67.671  1.00  0.00    -0.544 OA 
HETATM   16  N   UNL     1     -11.111  13.020  69.071  1.00  0.00    -0.322 N  
HETATM   17  H   UNL     1     -10.335  13.111  69.728  1.00  0.00     0.000 HD 
BRANCH  16  18
HETATM   18  C   UNL     1     -11.968  14.177  68.807  1.00  0.00    -0.332 C  
BRANCH  18  19
HETATM   19  C   UNL     1     -12.227  14.997  70.075  1.00  0.00    -0.328 C  
HETATM   20  H   UNL     1     -13.553  14.995  71.525  1.00  0.00     0.000 HD 
HETATM   21  O   UNL     1     -13.393  14.486  70.739  1.00  0.00    -0.341 OA 
BRANCH  19  22
HETATM   22  C   UNL     1     -11.014  14.975  71.017  1.00  0.00    -0.092 C  
HETATM   23  O   UNL     1      -9.811  15.311  70.326  1.00  0.00    -0.468 OA 
HETATM   24  H   UNL     1      -9.061  15.297  70.909  1.00  0.00     0.000 HD 
ENDBRANCH  19  22
ENDBRANCH  18  19
ENDBRANCH  16  18
ENDBRANCH  11  14
BRANCH  13  25
HETATM   25  C   UNL     1      -9.573   8.257  71.613  1.00  0.00    -0.198 C  
HETATM   26  O   UNL     1      -9.024   8.841  72.542  1.00  0.00    -0.386 OA 
HETATM   27  H   UNL     1     -10.687   6.595  71.006  1.00  0.00     0.000 HD 
HETATM   28  N   UNL     1     -10.194   7.033  71.784  1.00  0.00    -0.193 N  
BRANCH  28  29
HETATM   29  C   UNL     1     -10.140   6.371  73.083  1.00  0.00    -0.189 C  
BRANCH  29  30
HETATM   30  C   UNL     1      -8.887   5.501  73.255  1.00  0.00    -0.121 C  
HETATM   31  H   UNL     1      -7.463   5.303  74.598  1.00  0.00     0.000 HD 
HETATM   32  O   UNL     1      -8.238   5.841  74.492  1.00  0.00    -0.109 OA 
BRANCH  30  33
HETATM   33  C   UNL     1      -9.244   4.005  73.242  1.00  0.00    -0.105 C  
HETATM   34  O   UNL     1      -9.166   3.461  71.926  1.00  0.00    -0.104 OA 
HETATM   35  H   UNL     1      -9.386   2.537  71.917  1.00  0.00     0.000 HD 
ENDBRANCH  30  33
ENDBRANCH  29  30
ENDBRANCH  28  29
ENDBRANCH  13  25
ENDBRANCH   4   5
BRANCH   4  36
HETATM   36  C   UNL     1      -6.414   9.033  66.835  1.00  0.00    -0.064 C  
BRANCH  36  37
HETATM   37  C   UNL     1      -6.008  10.375  67.500  1.00  0.00    -0.052 C  
HETATM   38  O   UNL     1      -5.250  10.189  68.705  1.00  0.00    -0.039 OA 
HETATM   39  H   UNL     1      -5.001  11.011  69.112  1.00  0.00     0.000 HD 
BRANCH  37  40
HETATM   40  C   UNL     1      -5.168  11.279  66.592  1.00  0.00    -0.114 C  
HETATM   41  O   UNL     1      -5.566  12.642  66.775  1.00  0.00    -0.441 OA 
HETATM   42  H   UNL     1      -5.046  13.203  66.212  1.00  0.00     0.000 HD 
ENDBRANCH  37  40
ENDBRANCH  36  37
ENDBRANCH   4  36
TORSDOF 12
ENDMDL
MODEL       66
REMARK 921   NORMALIZED FREE ENERGY PREDICTED BY IDOCK:   -4.02 KCAL/MOL
REMARK 922        TOTAL FREE ENERGY PREDICTED BY IDOCK:   -8.04 KCAL/MOL
REMARK 923 INTER-LIGAND FREE ENERGY PREDICTED BY IDOCK:   -7.18 KCAL/MOL
REMARK 924 INTRA-LIGAND FREE ENERGY PREDICTED BY IDOCK:   -0.86 KCAL/MOL
REMARK 927      BINDING AFFINITY PREDICTED BY RF-SCORE:    0.00 PKD
ROOT
HETATM    1  C   UNL     1     -10.302   5.522  73.262  1.00  0.00    -0.233 C  
HETATM    2  C   UNL     1     -10.404   5.963  71.828  1.00  0.00    -0.216 C  
HETATM    3  O   UNL     1     -11.457   5.794  71.209  1.00  0.00    -0.180 OA 
HETATM    4  N   UNL     1      -9.271   6.543  71.250  1.00  0.00    -0.155 N  
ENDROOT
BRANCH   4   5
HETATM    5  C   UNL     1      -9.413   7.016  69.904  1.00  0.00    -0.157 A  
HETATM    6  C   UNL     1      -9.345   8.120  67.324  1.00  0.00    -0.141 A  
HETATM    7  C   UNL     1      -8.872   6.260  68.831  1.00  0.00    -0.124 A  
HETATM    8  C   UNL     1     -10.041   8.263  69.654  1.00  0.00    -0.199 A  
HETATM    9  I   UNL     1     -11.078   9.244  71.288  1.00  0.00    -0.446 I  
HETATM   10  I   UNL     1      -8.192   4.251  69.271  1.00  0.00    -0.095 I  
HETATM   11  C   UNL     1     -10.001   8.835  68.363  1.00  0.00    -0.200 A  
HETATM   12  I   UNL     1      -8.898   9.158  65.464  1.00  0.00    -0.241 I  
HETATM   13  C   UNL     1      -8.831   6.802  67.530  1.00  0.00    -0.117 A  
BRANCH  11  14
HETATM   14  C   UNL     1     -10.524  10.221  68.163  1.00  0.00    -0.190 C  
HETATM   15  O   UNL     1     -11.648  10.401  67.707  1.00  0.00    -0.405 OA 
HETATM   16  N   UNL     1      -9.689  11.258  68.514  1.00  0.00    -0.194 N  
HETATM   17  H   UNL     1      -8.772  11.052  68.910  1.00  0.00     0.000 HD 
BRANCH  16  18
HETATM   18  C   UNL     1     -10.095  12.652  68.328  1.00  0.00    -0.233 C  
BRANCH  18  19
HETATM   19  C   UNL     1      -9.385  13.299  67.135  1.00  0.00    -0.240 C  
HETATM   20  H   UNL     1      -7.779  12.932  66.064  1.00  0.00     0.000 HD 
HETATM   21  O   UNL     1      -8.219  12.530  66.804  1.00  0.00    -0.116 OA 
BRANCH  19  22
HETATM   22  C   UNL     1     -10.319  13.415  65.920  1.00  0.00    -0.290 C  
HETATM   23  O   UNL     1      -9.754  12.791  64.768  1.00  0.00    -0.507 OA 
HETATM   24  H   UNL     1     -10.331  12.863  64.016  1.00  0.00     0.000 HD 
ENDBRANCH  19  22
ENDBRANCH  18  19
ENDBRANCH  16  18
ENDBRANCH  11  14
BRANCH  13  25
HETATM   25  C   UNL     1      -8.338   6.015  66.351  1.00  0.00    -0.118 C  
HETATM   26  O   UNL     1      -7.145   6.036  66.071  1.00  0.00    -0.070 OA 
HETATM   27  H   UNL     1     -10.230   5.252  65.891  1.00  0.00     0.000 HD 
HETATM   28  N   UNL     1      -9.252   5.292  65.605  1.00  0.00    -0.155 N  
BRANCH  28  29
HETATM   29  C   UNL     1      -8.810   4.587  64.407  1.00  0.00    -0.152 C  
BRANCH  29  30
HETATM   30  C   UNL     1      -9.407   3.178  64.293  1.00  0.00    -0.137 C  
HETATM   31  H   UNL     1      -9.895   1.731  65.534  1.00  0.00     0.000 HD 
HETATM   32  O   UNL     1      -9.526   2.603  65.605  1.00  0.00    -0.072 OA 
BRANCH  30  33
HETATM   33  C   UNL     1     -10.783   3.213  63.607  1.00  0.00    -0.234 C  
HETATM   34  O   UNL     1     -11.413   1.934  63.633  1.00  0.00    -0.597 OA 
HETATM   35  H   UNL     1     -12.263   1.955  63.210  1.00  0.00     0.000 HD 
ENDBRANCH  30  33
ENDBRANCH  29  30
ENDBRANCH  28  29
ENDBRANCH  13  25
ENDBRANCH   4   5
BRANCH   4  36
HETATM   36  C   UNL     1      -7.966   6.746  71.938  1.00  0.00    -0.101 C  
BRANCH  36  37
HETATM   37  C   UNL     1      -7.613   8.189  72.386  1.00  0.00    -0.119 C  
HETATM   38  O   UNL     1      -8.202   8.538  73.647  1.00  0.00    -0.383 OA 
HETATM   39  H   UNL     1      -7.986   9.422  73.922  1.00  0.00     0.000 HD 
BRANCH  37  40
HETATM   40  C   UNL     1      -6.107   8.436  72.526  1.00  0.00    -0.072 C  
HETATM   41  O   UNL     1      -5.874   9.819  72.816  1.00  0.00    -0.298 OA 
HETATM   42  H   UNL     1      -4.941   9.972  72.902  1.00  0.00     0.000 HD 
ENDBRANCH  37  40
ENDBRANCH  36  37
ENDBRANCH   4  36
TORSDOF 12
ENDMDL
MODEL       67
REMARK 921   NORMALIZED FREE ENERGY PREDICTED BY IDOCK:   -4.02 KCAL/MOL
REMARK 922        TOTAL FREE ENERGY PREDICTED BY IDOCK:   -8.04 KCAL/MOL
REMARK 923 INTER-LIGAND FREE ENERGY PREDICTED BY IDOCK:   -7.64 KCAL/MOL
REMARK 924 INTRA-LIGAND FREE ENERGY PREDICTED BY IDOCK:   -0.40 KCAL/MOL
REMARK 927      BINDING AFFINITY PREDICTED BY RF-SCORE:    0.00 PKD
ROOT
HETATM    1  C   UNL     1      -6.583   5.797  65.040  1.00  0.00    -0.043 C  
HETATM    2  C   UNL     1      -7.733   6.680  65.439  1.00  0.00    -0.100 C  
HETATM    3  O   UNL     1      -8.877   6.398  65.072  1.00  0.00     0.046 OA 
HETATM    4  N   UNL     1      -7.444   7.808  66.212  1.00  0.00    -0.078 N  
ENDROOT
BRANCH   4   5
HETATM    5  C   UNL     1      -8.564   8.596  66.636  1.00  0.00    -0.117 A  
HETATM    6  C   UNL     1     -10.492  10.398  67.592  1.00  0.00    -0.233 A  
HETATM    7  C   UNL     1      -9.119   9.561  65.755  1.00  0.00    -0.196 A  
HETATM    8  C   UNL     1      -9.076   8.449  67.950  1.00  0.00    -0.133 A  
HETATM    9  I   UNL     1      -8.370   6.788  69.155  1.00  0.00    -0.124 I  
HETATM   10  I   UNL     1      -8.469   9.517  63.690  1.00  0.00    -0.216 I  
HETATM   11  C   UNL     1     -10.036   9.359  68.448  1.00  0.00    -0.208 A  
HETATM   12  I   UNL     1     -11.624  12.042  68.459  1.00  0.00    -0.350 I  
HETATM   13  C   UNL     1     -10.089  10.473  66.222  1.00  0.00    -0.290 A  
BRANCH  11  14
HETATM   14  C   UNL     1     -10.436   9.283  69.885  1.00  0.00    -0.227 C  
HETATM   15  O   UNL     1      -9.676   9.680  70.763  1.00  0.00    -0.250 OA 
HETATM   16  N   UNL     1     -11.676   8.754  70.161  1.00  0.00    -0.453 N  
HETATM   17  H   UNL     1     -12.278   8.459  69.391  1.00  0.00     0.000 HD 
BRANCH  16  18
HETATM   18  C   UNL     1     -12.148   8.608  71.538  1.00  0.00    -0.316 C  
BRANCH  18  19
HETATM   19  C   UNL     1     -12.008   7.167  72.040  1.00  0.00    -0.295 C  
HETATM   20  H   UNL     1     -11.713   5.401  71.230  1.00  0.00     0.000 HD 
HETATM   21  O   UNL     1     -11.800   6.294  70.919  1.00  0.00    -0.308 OA 
BRANCH  19  22
HETATM   22  C   UNL     1     -10.860   7.032  73.051  1.00  0.00    -0.309 C  
HETATM   23  O   UNL     1      -9.966   8.143  72.976  1.00  0.00    -0.285 OA 
HETATM   24  H   UNL     1      -9.256   8.059  73.601  1.00  0.00     0.000 HD 
ENDBRANCH  19  22
ENDBRANCH  18  19
ENDBRANCH  16  18
ENDBRANCH  11  14
BRANCH  13  25
HETATM   25  C   UNL     1     -10.759  11.462  65.314  1.00  0.00    -0.265 C  
HETATM   26  O   UNL     1     -11.755  11.121  64.685  1.00  0.00     0.157 OA 
HETATM   27  H   UNL     1      -9.427  13.005  65.780  1.00  0.00     0.000 HD 
HETATM   28  N   UNL     1     -10.226  12.734  65.206  1.00  0.00    -0.288 N  
BRANCH  28  29
HETATM   29  C   UNL     1     -10.811  13.685  64.268  1.00  0.00    -0.280 C  
BRANCH  29  30
HETATM   30  C   UNL     1     -11.763  14.679  64.947  1.00  0.00    -0.403 C  
HETATM   31  H   UNL     1     -13.646  14.688  65.517  1.00  0.00     0.000 HD 
HETATM   32  O   UNL     1     -13.058  14.073  65.097  1.00  0.00    -0.776 OA 
BRANCH  30  33
HETATM   33  C   UNL     1     -11.224  15.114  66.321  1.00  0.00    -0.273 C  
HETATM   34  O   UNL     1     -10.404  16.277  66.216  1.00  0.00    -0.304 OA 
HETATM   35  H   UNL     1     -10.071  16.546  67.064  1.00  0.00     0.000 HD 
ENDBRANCH  30  33
ENDBRANCH  29  30
ENDBRANCH  28  29
ENDBRANCH  13  25
ENDBRANCH   4   5
BRANCH   4  36
HETATM   36  C   UNL     1      -6.082   8.214  66.660  1.00  0.00    -0.053 C  
BRANCH  36  37
HETATM   37  C   UNL     1      -5.263   9.129  65.711  1.00  0.00    -0.039 C  
HETATM   38  O   UNL     1      -5.592   8.931  64.328  1.00  0.00    -0.062 OA 
HETATM   39  H   UNL     1      -5.090   9.491  63.747  1.00  0.00     0.000 HD 
BRANCH  37  40
HETATM   40  C   UNL     1      -5.445  10.624  65.993  1.00  0.00    -0.106 C  
HETATM   41  O   UNL     1      -5.153  11.373  64.809  1.00  0.00    -0.464 OA 
HETATM   42  H   UNL     1      -5.266  12.299  64.984  1.00  0.00     0.000 HD 
ENDBRANCH  37  40
ENDBRANCH  36  37
ENDBRANCH   4  36
TORSDOF 12
ENDMDL
MODEL       68
REMARK 921   NORMALIZED FREE ENERGY PREDICTED BY IDOCK:   -3.99 KCAL/MOL
REMARK 922        TOTAL FREE ENERGY PREDICTED BY IDOCK:   -8.00 KCAL/MOL
REMARK 923 INTER-LIGAND FREE ENERGY PREDICTED BY IDOCK:   -7.15 KCAL/MOL
REMARK 924 INTRA-LIGAND FREE ENERGY PREDICTED BY IDOCK:   -0.85 KCAL/MOL
REMARK 927      BINDING AFFINITY PREDICTED BY RF-SCORE:    0.00 PKD
ROOT
HETATM    1  C   UNL     1      -5.134   9.378  68.232  1.00  0.00    -0.034 C  
HETATM    2  C   UNL     1      -6.516   9.435  68.824  1.00  0.00    -0.048 C  
HETATM    3  O   UNL     1      -6.661   9.728  70.013  1.00  0.00    -0.059 OA 
HETATM    4  N   UNL     1      -7.591   9.132  67.983  1.00  0.00    -0.084 N  
ENDROOT
BRANCH   4   5
HETATM    5  C   UNL     1      -8.901   9.258  68.551  1.00  0.00    -0.129 A  
HETATM    6  C   UNL     1     -11.285   9.639  69.983  1.00  0.00    -0.231 A  
HETATM    7  C   UNL     1      -9.608  10.483  68.424  1.00  0.00    -0.160 A  
HETATM    8  C   UNL     1      -9.462   8.183  69.284  1.00  0.00    -0.159 A  
HETATM    9  I   UNL     1      -8.462   6.257  69.223  1.00  0.00    -0.124 I  
HETATM   10  I   UNL     1      -8.807  11.959  67.056  1.00  0.00    -0.194 I  
HETATM   11  C   UNL     1     -10.654   8.366  70.021  1.00  0.00    -0.235 A  
HETATM   12  I   UNL     1     -12.854  10.069  71.429  1.00  0.00    -0.576 I  
HETATM   13  C   UNL     1     -10.806  10.688  69.137  1.00  0.00    -0.279 A  
BRANCH  11  14
HETATM   14  C   UNL     1     -11.133   7.270  70.916  1.00  0.00    -0.261 C  
HETATM   15  O   UNL     1     -12.047   6.533  70.561  1.00  0.00    -0.367 OA 
HETATM   16  N   UNL     1     -10.504   7.139  72.134  1.00  0.00    -0.203 N  
HETATM   17  H   UNL     1      -9.734   7.765  72.370  1.00  0.00     0.000 HD 
BRANCH  16  18
HETATM   18  C   UNL     1     -10.921   6.117  73.095  1.00  0.00    -0.231 C  
BRANCH  18  19
HETATM   19  C   UNL     1      -9.849   5.039  73.282  1.00  0.00    -0.152 C  
HETATM   20  H   UNL     1      -8.290   4.770  74.448  1.00  0.00     0.000 HD 
HETATM   21  O   UNL     1      -8.954   5.439  74.332  1.00  0.00    -0.117 OA 
BRANCH  19  22
HETATM   22  C   UNL     1     -10.476   3.672  73.597  1.00  0.00    -0.180 C  
HETATM   23  O   UNL     1     -10.495   2.830  72.445  1.00  0.00    -0.132 OA 
HETATM   24  H   UNL     1     -10.883   1.985  72.640  1.00  0.00     0.000 HD 
ENDBRANCH  19  22
ENDBRANCH  18  19
ENDBRANCH  16  18
ENDBRANCH  11  14
BRANCH  13  25
HETATM   25  C   UNL     1     -11.628  11.934  68.980  1.00  0.00    -0.317 C  
HETATM   26  O   UNL     1     -12.346  12.061  67.993  1.00  0.00    -0.329 OA 
HETATM   27  H   UNL     1     -10.980  12.759  70.789  1.00  0.00     0.000 HD 
HETATM   28  N   UNL     1     -11.545  12.913  69.954  1.00  0.00    -0.228 N  
BRANCH  28  29
HETATM   29  C   UNL     1     -12.271  14.167  69.782  1.00  0.00    -0.344 C  
BRANCH  29  30
HETATM   30  C   UNL     1     -11.340  15.363  69.543  1.00  0.00    -0.301 C  
HETATM   31  H   UNL     1      -9.837  16.212  70.487  1.00  0.00     0.000 HD 
HETATM   32  O   UNL     1     -10.412  15.472  70.635  1.00  0.00    -0.265 OA 
BRANCH  30  33
HETATM   33  C   UNL     1     -10.576  15.215  68.216  1.00  0.00    -0.243 C  
HETATM   34  O   UNL     1     -11.419  14.711  67.182  1.00  0.00    -0.344 OA 
HETATM   35  H   UNL     1     -10.947  14.619  66.362  1.00  0.00     0.000 HD 
ENDBRANCH  30  33
ENDBRANCH  29  30
ENDBRANCH  28  29
ENDBRANCH  13  25
ENDBRANCH   4   5
BRANCH   4  36
HETATM   36  C   UNL     1      -7.475   8.745  66.549  1.00  0.00    -0.085 C  
BRANCH  36  37
HETATM   37  C   UNL     1      -8.719   8.100  65.882  1.00  0.00    -0.156 C  
HETATM   38  O   UNL     1      -9.353   8.971  64.934  1.00  0.00    -0.446 OA 
HETATM   39  H   UNL     1     -10.115   8.576  64.525  1.00  0.00     0.000 HD 
BRANCH  37  40
HETATM   40  C   UNL     1      -8.408   6.797  65.137  1.00  0.00    -0.080 C  
HETATM   41  O   UNL     1      -7.081   6.858  64.602  1.00  0.00    -0.055 OA 
HETATM   42  H   UNL     1      -6.889   6.051  64.139  1.00  0.00     0.000 HD 
ENDBRANCH  37  40
ENDBRANCH  36  37
ENDBRANCH   4  36
TORSDOF 12
ENDMDL
MODEL       69
REMARK 921   NORMALIZED FREE ENERGY PREDICTED BY IDOCK:   -3.99 KCAL/MOL
REMARK 922        TOTAL FREE ENERGY PREDICTED BY IDOCK:   -7.98 KCAL/MOL
REMARK 923 INTER-LIGAND FREE ENERGY PREDICTED BY IDOCK:   -7.33 KCAL/MOL
REMARK 924 INTRA-LIGAND FREE ENERGY PREDICTED BY IDOCK:   -0.65 KCAL/MOL
REMARK 927      BINDING AFFINITY PREDICTED BY RF-SCORE:    0.00 PKD
ROOT
HETATM    1  C   UNL     1      -7.549   8.339  71.715  1.00  0.00    -0.119 C  
HETATM    2  C   UNL     1      -7.649   8.596  70.236  1.00  0.00    -0.074 C  
HETATM    3  O   UNL     1      -6.840   9.350  69.690  1.00  0.00    -0.051 OA 
HETATM    4  N   UNL     1      -8.686   7.968  69.540  1.00  0.00    -0.136 N  
ENDROOT
BRANCH   4   5
HETATM    5  C   UNL     1      -8.720   8.175  68.123  1.00  0.00    -0.136 A  
HETATM    6  C   UNL     1      -8.431   8.737  65.387  1.00  0.00    -0.170 A  
HETATM    7  C   UNL     1      -8.197   7.181  67.253  1.00  0.00    -0.119 A  
HETATM    8  C   UNL     1      -9.224   9.391  67.596  1.00  0.00    -0.127 A  
HETATM    9  I   UNL     1     -10.248  10.754  68.939  1.00  0.00    -0.221 I  
HETATM   10  I   UNL     1      -7.718   5.254  68.117  1.00  0.00    -0.083 I  
HETATM   11  C   UNL     1      -9.071   9.692  66.223  1.00  0.00    -0.197 A  
HETATM   12  I   UNL     1      -7.806   9.349  63.395  1.00  0.00    -0.168 I  
HETATM   13  C   UNL     1      -8.046   7.450  65.877  1.00  0.00    -0.128 A  
BRANCH  11  14
HETATM   14  C   UNL     1      -9.460  11.047  65.727  1.00  0.00    -0.210 C  
HETATM   15  O   UNL     1      -8.766  12.025  65.982  1.00  0.00    -0.050 OA 
HETATM   16  N   UNL     1     -10.616  11.130  64.983  1.00  0.00    -0.293 N  
HETATM   17  H   UNL     1     -11.144  10.281  64.781  1.00  0.00     0.000 HD 
BRANCH  16  18
HETATM   18  C   UNL     1     -11.099  12.415  64.477  1.00  0.00    -0.316 C  
BRANCH  18  19
HETATM   19  C   UNL     1     -12.433  12.815  65.116  1.00  0.00    -0.501 C  
HETATM   20  H   UNL     1     -13.237  12.726  66.907  1.00  0.00     0.000 HD 
HETATM   21  O   UNL     1     -12.410  12.478  66.511  1.00  0.00    -0.507 OA 
BRANCH  19  22
HETATM   22  C   UNL     1     -12.722  14.311  64.925  1.00  0.00    -0.225 C  
HETATM   23  O   UNL     1     -12.175  14.796  63.699  1.00  0.00    -0.969 OA 
HETATM   24  H   UNL     1     -12.353  15.721  63.582  1.00  0.00     0.000 HD 
ENDBRANCH  19  22
ENDBRANCH  18  19
ENDBRANCH  16  18
ENDBRANCH  11  14
BRANCH  13  25
HETATM   25  C   UNL     1      -7.568   6.410  64.907  1.00  0.00    -0.093 C  
HETATM   26  O   UNL     1      -6.365   6.197  64.798  1.00  0.00    -0.032 OA 
HETATM   27  H   UNL     1      -9.499   5.885  64.301  1.00  0.00     0.000 HD 
HETATM   28  N   UNL     1      -8.503   5.724  64.153  1.00  0.00    -0.046 N  
BRANCH  28  29
HETATM   29  C   UNL     1      -8.058   4.768  63.146  1.00  0.00    -0.091 C  
BRANCH  29  30
HETATM   30  C   UNL     1      -8.690   3.380  63.323  1.00  0.00    -0.093 C  
HETATM   31  H   UNL     1      -8.041   1.535  63.540  1.00  0.00     0.000 HD 
HETATM   32  O   UNL     1      -7.650   2.393  63.431  1.00  0.00    -0.056 OA 
BRANCH  30  33
HETATM   33  C   UNL     1      -9.588   3.336  64.570  1.00  0.00    -0.154 C  
HETATM   34  O   UNL     1     -10.754   2.545  64.346  1.00  0.00    -0.322 OA 
HETATM   35  H   UNL     1     -11.310   2.517  65.117  1.00  0.00     0.000 HD 
ENDBRANCH  30  33
ENDBRANCH  29  30
ENDBRANCH  28  29
ENDBRANCH  13  25
ENDBRANCH   4   5
BRANCH   4  36
HETATM   36  C   UNL     1      -9.708   7.072  70.150  1.00  0.00    -0.175 C  
BRANCH  36  37
HETATM   37  C   UNL     1     -11.191   7.310  69.756  1.00  0.00    -0.126 C  
HETATM   38  O   UNL     1     -11.650   6.396  68.750  1.00  0.00    -0.550 OA 
HETATM   39  H   UNL     1     -12.558   6.541  68.509  1.00  0.00     0.000 HD 
BRANCH  37  40
HETATM   40  C   UNL     1     -12.164   7.188  70.933  1.00  0.00    -0.312 C  
HETATM   41  O   UNL     1     -12.853   8.430  71.114  1.00  0.00    -0.477 OA 
HETATM   42  H   UNL     1     -13.456   8.355  71.844  1.00  0.00     0.000 HD 
ENDBRANCH  37  40
ENDBRANCH  36  37
ENDBRANCH   4  36
TORSDOF 12
ENDMDL
MODEL       70
REMARK 921   NORMALIZED FREE ENERGY PREDICTED BY IDOCK:   -3.94 KCAL/MOL
REMARK 922        TOTAL FREE ENERGY PREDICTED BY IDOCK:   -7.90 KCAL/MOL
REMARK 923 INTER-LIGAND FREE ENERGY PREDICTED BY IDOCK:   -7.11 KCAL/MOL
REMARK 924 INTRA-LIGAND FREE ENERGY PREDICTED BY IDOCK:   -0.79 KCAL/MOL
REMARK 927      BINDING AFFINITY PREDICTED BY RF-SCORE:    0.00 PKD
ROOT
HETATM    1  C   UNL     1      -6.791   8.405  69.364  1.00  0.00    -0.046 C  
HETATM    2  C   UNL     1      -7.414   9.774  69.366  1.00  0.00    -0.099 C  
HETATM    3  O   UNL     1      -7.585  10.368  70.434  1.00  0.00    -0.180 OA 
HETATM    4  N   UNL     1      -7.790  10.313  68.132  1.00  0.00    -0.102 N  
ENDROOT
BRANCH   4   5
HETATM    5  C   UNL     1      -8.319  11.645  68.153  1.00  0.00    -0.154 A  
HETATM    6  C   UNL     1      -9.280  14.249  68.577  1.00  0.00    -0.197 A  
HETATM    7  C   UNL     1      -7.446  12.752  67.983  1.00  0.00    -0.122 A  
HETATM    8  C   UNL     1      -9.700  11.856  68.397  1.00  0.00    -0.201 A  
HETATM    9  I   UNL     1     -11.026  10.138  68.384  1.00  0.00    -0.186 I  
HETATM   10  I   UNL     1      -5.422  12.334  67.334  1.00  0.00    -0.017 I  
HETATM   11  C   UNL     1     -10.193  13.160  68.627  1.00  0.00    -0.177 A  
HETATM   12  I   UNL     1      -9.920  16.183  69.341  1.00  0.00    -0.110 I  
HETATM   13  C   UNL     1      -7.915  14.065  68.193  1.00  0.00    -0.149 A  
BRANCH  11  14
HETATM   14  C   UNL     1     -11.617  13.338  69.045  1.00  0.00    -0.312 C  
HETATM   15  O   UNL     1     -12.453  13.745  68.246  1.00  0.00    -0.098 OA 
HETATM   16  N   UNL     1     -11.926  13.027  70.350  1.00  0.00    -0.517 N  
HETATM   17  H   UNL     1     -11.196  12.671  70.967  1.00  0.00     0.000 HD 
BRANCH  16  18
HETATM   18  C   UNL     1     -13.285  13.196  70.866  1.00  0.00     0.144 C  
BRANCH  18  19
HETATM   19  C   UNL     1     -13.335  14.198  72.025  1.00  0.00    -0.415 C  
HETATM   20  H   UNL     1     -12.572  14.322  73.832  1.00  0.00     0.000 HD 
HETATM   21  O   UNL     1     -12.542  13.701  73.114  1.00  0.00    -0.075 OA 
BRANCH  19  22
HETATM   22  C   UNL     1     -12.845  15.587  71.589  1.00  0.00    -0.446 C  
HETATM   23  O   UNL     1     -13.281  15.902  70.267  1.00  0.00    -0.708 OA 
HETATM   24  H   UNL     1     -12.978  16.761  69.998  1.00  0.00     0.000 HD 
ENDBRANCH  19  22
ENDBRANCH  18  19
ENDBRANCH  16  18
ENDBRANCH  11  14
BRANCH  13  25
HETATM   25  C   UNL     1      -7.053  15.270  67.955  1.00  0.00    -0.128 C  
HETATM   26  O   UNL     1      -6.338  15.686  68.861  1.00  0.00    -0.108 OA 
HETATM   27  H   UNL     1      -7.661  15.487  65.966  1.00  0.00     0.000 HD 
HETATM   28  N   UNL     1      -7.096  15.885  66.717  1.00  0.00    -0.092 N  
BRANCH  28  29
HETATM   29  C   UNL     1      -6.330  17.105  66.489  1.00  0.00    -0.218 C  
BRANCH  29  30
HETATM   30  C   UNL     1      -7.218  18.312  66.158  1.00  0.00    -0.266 C  
HETATM   31  H   UNL     1      -9.144  18.646  65.933  1.00  0.00     0.000 HD 
HETATM   32  O   UNL     1      -8.595  17.899  66.138  1.00  0.00    -0.449 OA 
BRANCH  30  33
HETATM   33  C   UNL     1      -7.022  19.442  67.182  1.00  0.00    -0.198 C  
HETATM   34  O   UNL     1      -7.827  19.242  68.342  1.00  0.00    -0.313 OA 
HETATM   35  H   UNL     1      -7.706  19.940  68.975  1.00  0.00     0.000 HD 
ENDBRANCH  30  33
ENDBRANCH  29  30
ENDBRANCH  28  29
ENDBRANCH  13  25
ENDBRANCH   4   5
BRANCH   4  36
HETATM   36  C   UNL     1      -7.635   9.633  66.816  1.00  0.00    -0.098 C  
BRANCH  36  37
HETATM   37  C   UNL     1      -8.785   8.698  66.357  1.00  0.00    -0.130 C  
HETATM   38  O   UNL     1      -9.449   9.174  65.177  1.00  0.00    -0.435 OA 
HETATM   39  H   UNL     1     -10.154   8.601  64.896  1.00  0.00     0.000 HD 
BRANCH  37  40
HETATM   40  C   UNL     1      -8.327   7.267  66.052  1.00  0.00    -0.140 C  
HETATM   41  O   UNL     1      -9.471   6.418  65.917  1.00  0.00    -0.366 OA 
HETATM   42  H   UNL     1      -9.187   5.531  65.728  1.00  0.00     0.000 HD 
ENDBRANCH  37  40
ENDBRANCH  36  37
ENDBRANCH   4  36
TORSDOF 12
ENDMDL
MODEL       71
REMARK 921   NORMALIZED FREE ENERGY PREDICTED BY IDOCK:   -3.93 KCAL/MOL
REMARK 922        TOTAL FREE ENERGY PREDICTED BY IDOCK:   -7.88 KCAL/MOL
REMARK 923 INTER-LIGAND FREE ENERGY PREDICTED BY IDOCK:   -6.42 KCAL/MOL
REMARK 924 INTRA-LIGAND FREE ENERGY PREDICTED BY IDOCK:   -1.46 KCAL/MOL
REMARK 927      BINDING AFFINITY PREDICTED BY RF-SCORE:    0.00 PKD
ROOT
HETATM    1  C   UNL     1     -13.668   8.576  71.469  1.00  0.00    -0.360 C  
HETATM    2  C   UNL     1     -12.293   9.173  71.348  1.00  0.00    -0.333 C  
HETATM    3  O   UNL     1     -12.067  10.290  71.822  1.00  0.00    -0.315 OA 
HETATM    4  N   UNL     1     -11.321   8.426  70.678  1.00  0.00    -0.261 N  
ENDROOT
BRANCH   4   5
HETATM    5  C   UNL     1     -10.003   8.986  70.634  1.00  0.00    -0.233 A  
HETATM    6  C   UNL     1      -7.327   9.776  70.324  1.00  0.00    -0.158 A  
HETATM    7  C   UNL     1      -9.652   9.880  69.588  1.00  0.00    -0.227 A  
HETATM    8  C   UNL     1      -9.038   8.603  71.600  1.00  0.00    -0.247 A  
HETATM    9  I   UNL     1      -9.696   7.451  73.318  1.00  0.00    -0.373 I  
HETATM   10  I   UNL     1     -11.253  10.626  68.336  1.00  0.00    -0.260 I  
HETATM   11  C   UNL     1      -7.685   8.983  71.448  1.00  0.00    -0.081 A  
HETATM   12  I   UNL     1      -5.218  10.005  69.839  1.00  0.00    -0.041 I  
HETATM   13  C   UNL     1      -8.312  10.285  69.421  1.00  0.00    -0.169 A  
BRANCH  11  14
HETATM   14  C   UNL     1      -6.663   8.430  72.386  1.00  0.00    -0.088 C  
HETATM   15  O   UNL     1      -6.247   9.107  73.321  1.00  0.00    -0.304 OA 
HETATM   16  N   UNL     1      -6.225   7.147  72.146  1.00  0.00    -0.041 N  
HETATM   17  H   UNL     1      -6.620   6.620  71.367  1.00  0.00     0.000 HD 
BRANCH  16  18
HETATM   18  C   UNL     1      -5.202   6.526  72.988  1.00  0.00    -0.036 C  
BRANCH  18  19
HETATM   19  C   UNL     1      -5.553   5.077  73.338  1.00  0.00    -0.018 C  
HETATM   20  H   UNL     1      -6.738   4.168  74.615  1.00  0.00     0.000 HD 
HETATM   21  O   UNL     1      -6.520   5.067  74.399  1.00  0.00    -0.061 OA 
BRANCH  19  22
HETATM   22  C   UNL     1      -6.084   4.315  72.114  1.00  0.00    -0.020 C  
HETATM   23  O   UNL     1      -7.404   4.735  71.772  1.00  0.00    -0.066 OA 
HETATM   24  H   UNL     1      -7.732   4.264  71.015  1.00  0.00     0.000 HD 
ENDBRANCH  19  22
ENDBRANCH  18  19
ENDBRANCH  16  18
ENDBRANCH  11  14
BRANCH  13  25
HETATM   25  C   UNL     1      -7.902  11.284  68.378  1.00  0.00    -0.136 C  
HETATM   26  O   UNL     1      -7.691  10.904  67.231  1.00  0.00    -0.105 OA 
HETATM   27  H   UNL     1      -7.998  12.907  69.694  1.00  0.00     0.000 HD 
HETATM   28  N   UNL     1      -7.766  12.611  68.745  1.00  0.00    -0.050 N  
BRANCH  28  29
HETATM   29  C   UNL     1      -7.291  13.586  67.770  1.00  0.00    -0.163 C  
BRANCH  29  30
HETATM   30  C   UNL     1      -8.385  14.569  67.331  1.00  0.00    -0.200 C  
HETATM   31  H   UNL     1     -10.235  14.443  66.675  1.00  0.00     0.000 HD 
HETATM   32  O   UNL     1      -9.559  13.834  66.947  1.00  0.00    -0.244 OA 
BRANCH  30  33
HETATM   33  C   UNL     1      -8.727  15.557  68.458  1.00  0.00    -0.184 C  
HETATM   34  O   UNL     1     -10.135  15.761  68.565  1.00  0.00    -0.210 OA 
HETATM   35  H   UNL     1     -10.346  16.371  69.261  1.00  0.00     0.000 HD 
ENDBRANCH  30  33
ENDBRANCH  29  30
ENDBRANCH  28  29
ENDBRANCH  13  25
ENDBRANCH   4   5
BRANCH   4  36
HETATM   36  C   UNL     1     -11.543   7.088  70.061  1.00  0.00    -0.178 C  
BRANCH  36  37
HETATM   37  C   UNL     1     -10.390   6.496  69.208  1.00  0.00    -0.202 C  
HETATM   38  O   UNL     1      -9.607   5.531  69.927  1.00  0.00    -0.149 OA 
HETATM   39  H   UNL     1      -8.901   5.169  69.404  1.00  0.00     0.000 HD 
BRANCH  37  40
HETATM   40  C   UNL     1     -10.869   5.802  67.928  1.00  0.00    -0.165 C  
HETATM   41  O   UNL     1     -11.482   6.765  67.064  1.00  0.00    -0.735 OA 
HETATM   42  H   UNL     1     -11.779   6.334  66.271  1.00  0.00     0.000 HD 
ENDBRANCH  37  40
ENDBRANCH  36  37
ENDBRANCH   4  36
TORSDOF 12
ENDMDL
MODEL       72
REMARK 921   NORMALIZED FREE ENERGY PREDICTED BY IDOCK:   -3.91 KCAL/MOL
REMARK 922        TOTAL FREE ENERGY PREDICTED BY IDOCK:   -7.85 KCAL/MOL
REMARK 923 INTER-LIGAND FREE ENERGY PREDICTED BY IDOCK:   -6.40 KCAL/MOL
REMARK 924 INTRA-LIGAND FREE ENERGY PREDICTED BY IDOCK:   -1.45 KCAL/MOL
REMARK 927      BINDING AFFINITY PREDICTED BY RF-SCORE:    0.00 PKD
ROOT
HETATM    1  C   UNL     1      -6.436   9.727  70.989  1.00  0.00    -0.017 C  
HETATM    2  C   UNL     1      -6.797   9.362  69.575  1.00  0.00    -0.049 C  
HETATM    3  O   UNL     1      -5.921   9.333  68.707  1.00  0.00    -0.043 OA 
HETATM    4  N   UNL     1      -8.140   9.083  69.303  1.00  0.00    -0.103 N  
ENDROOT
BRANCH   4   5
HETATM    5  C   UNL     1      -8.448   8.673  67.965  1.00  0.00    -0.127 A  
HETATM    6  C   UNL     1      -8.668   7.893  65.277  1.00  0.00     0.001 A  
HETATM    7  C   UNL     1      -8.436   7.292  67.632  1.00  0.00    -0.116 A  
HETATM    8  C   UNL     1      -8.709   9.646  66.968  1.00  0.00    -0.128 A  
HETATM    9  I   UNL     1      -8.976  11.710  67.583  1.00  0.00    -0.189 I  
HETATM   10  I   UNL     1      -8.313   5.874  69.263  1.00  0.00    -0.114 I  
HETATM   11  C   UNL     1      -8.807   9.268  65.610  1.00  0.00    -0.216 A  
HETATM   12  I   UNL     1      -8.386   7.348  63.189  1.00  0.00     0.516 I  
HETATM   13  C   UNL     1      -8.545   6.887  66.286  1.00  0.00    -0.138 A  
BRANCH  11  14
HETATM   14  C   UNL     1      -8.916  10.329  64.564  1.00  0.00    -0.219 C  
HETATM   15  O   UNL     1      -7.919  10.713  63.962  1.00  0.00    -0.051 OA 
HETATM   16  N   UNL     1     -10.172  10.839  64.321  1.00  0.00    -0.353 N  
HETATM   17  H   UNL     1     -10.972  10.469  64.836  1.00  0.00     0.000 HD 
BRANCH  16  18
HETATM   18  C   UNL     1     -10.380  11.904  63.339  1.00  0.00    -0.444 C  
BRANCH  18  19
HETATM   19  C   UNL     1     -11.576  12.790  63.702  1.00  0.00    -0.506 C  
HETATM   20  H   UNL     1     -13.364  12.522  64.473  1.00  0.00     0.000 HD 
HETATM   21  O   UNL     1     -12.622  11.972  64.248  1.00  0.00    -0.366 OA 
BRANCH  19  22
HETATM   22  C   UNL     1     -11.178  13.893  64.694  1.00  0.00    -0.378 C  
HETATM   23  O   UNL     1      -9.761  13.972  64.844  1.00  0.00    -0.564 OA 
HETATM   24  H   UNL     1      -9.515  14.655  65.458  1.00  0.00     0.000 HD 
ENDBRANCH  19  22
ENDBRANCH  18  19
ENDBRANCH  16  18
ENDBRANCH  11  14
BRANCH  13  25
HETATM   25  C   UNL     1      -8.611   5.441  65.889  1.00  0.00    -0.131 C  
HETATM   26  O   UNL     1      -9.705   4.911  65.727  1.00  0.00    -0.166 OA 
HETATM   27  H   UNL     1      -6.533   5.220  65.816  1.00  0.00     0.000 HD 
HETATM   28  N   UNL     1      -7.429   4.741  65.725  1.00  0.00    -0.080 N  
BRANCH  28  29
HETATM   29  C   UNL     1      -7.469   3.315  65.421  1.00  0.00    -0.076 C  
BRANCH  29  30
HETATM   30  C   UNL     1      -6.902   2.450  66.554  1.00  0.00    -0.044 C  
HETATM   31  H   UNL     1      -5.879   2.755  68.207  1.00  0.00     0.000 HD 
HETATM   32  O   UNL     1      -6.229   3.291  67.506  1.00  0.00    -0.031 OA 
BRANCH  30  33
HETATM   33  C   UNL     1      -8.017   1.652  67.252  1.00  0.00    -0.065 C  
HETATM   34  O   UNL     1      -9.298   2.234  67.023  1.00  0.00    -0.337 OA 
HETATM   35  H   UNL     1      -9.987   1.741  67.454  1.00  0.00     0.000 HD 
ENDBRANCH  30  33
ENDBRANCH  29  30
ENDBRANCH  28  29
ENDBRANCH  13  25
ENDBRANCH   4   5
BRANCH   4  36
HETATM   36  C   UNL     1      -9.244   9.131  70.302  1.00  0.00    -0.218 C  
BRANCH  36  37
HETATM   37  C   UNL     1     -10.697   9.069  69.762  1.00  0.00    -0.225 C  
HETATM   38  O   UNL     1     -11.344   7.820  70.050  1.00  0.00    -0.435 OA 
HETATM   39  H   UNL     1     -12.234   7.782  69.719  1.00  0.00     0.000 HD 
BRANCH  37  40
HETATM   40  C   UNL     1     -11.606  10.169  70.320  1.00  0.00    -0.302 C  
HETATM   41  O   UNL     1     -12.635  10.467  69.371  1.00  0.00    -0.687 OA 
HETATM   42  H   UNL     1     -13.198  11.149  69.717  1.00  0.00     0.000 HD 
ENDBRANCH  37  40
ENDBRANCH  36  37
ENDBRANCH   4  36
TORSDOF 12
ENDMDL
MODEL       73
REMARK 921   NORMALIZED FREE ENERGY PREDICTED BY IDOCK:   -3.88 KCAL/MOL
REMARK 922        TOTAL FREE ENERGY PREDICTED BY IDOCK:   -7.80 KCAL/MOL
REMARK 923 INTER-LIGAND FREE ENERGY PREDICTED BY IDOCK:   -6.65 KCAL/MOL
REMARK 924 INTRA-LIGAND FREE ENERGY PREDICTED BY IDOCK:   -1.16 KCAL/MOL
REMARK 927      BINDING AFFINITY PREDICTED BY RF-SCORE:    0.00 PKD
ROOT
HETATM    1  C   UNL     1      -6.313  11.180  70.117  1.00  0.00    -0.137 C  
HETATM    2  C   UNL     1      -6.736  10.780  68.731  1.00  0.00    -0.060 C  
HETATM    3  O   UNL     1      -6.030  11.079  67.764  1.00  0.00    -0.046 OA 
HETATM    4  N   UNL     1      -7.943  10.086  68.599  1.00  0.00    -0.093 N  
ENDROOT
BRANCH   4   5
HETATM    5  C   UNL     1      -8.292   9.657  67.277  1.00  0.00    -0.114 A  
HETATM    6  C   UNL     1      -8.628   8.959  64.579  1.00  0.00    -0.129 A  
HETATM    7  C   UNL     1      -7.910   8.362  66.834  1.00  0.00    -0.095 A  
HETATM    8  C   UNL     1      -8.965  10.543  66.399  1.00  0.00    -0.159 A  
HETATM    9  I   UNL     1      -9.755  12.396  67.205  1.00  0.00    -0.224 I  
HETATM   10  I   UNL     1      -7.147   6.985  68.321  1.00  0.00    -0.088 I  
HETATM   11  C   UNL     1      -9.128  10.209  65.035  1.00  0.00    -0.245 A  
HETATM   12  I   UNL     1      -8.480   8.615  62.435  1.00  0.00    -0.041 I  
HETATM   13  C   UNL     1      -8.073   7.999  65.482  1.00  0.00    -0.128 A  
BRANCH  11  14
HETATM   14  C   UNL     1      -9.691  11.227  64.098  1.00  0.00    -0.261 C  
HETATM   15  O   UNL     1      -8.947  11.912  63.405  1.00  0.00     0.107 OA 
HETATM   16  N   UNL     1     -11.062  11.348  64.060  1.00  0.00    -0.398 N  
HETATM   17  H   UNL     1     -11.636  10.737  64.642  1.00  0.00     0.000 HD 
BRANCH  16  18
HETATM   18  C   UNL     1     -11.711  12.337  63.198  1.00  0.00    -0.220 C  
BRANCH  18  19
HETATM   19  C   UNL     1     -12.655  13.250  63.987  1.00  0.00    -0.143 C  
HETATM   20  H   UNL     1     -13.834  13.069  65.549  1.00  0.00     0.000 HD 
HETATM   21  O   UNL     1     -13.249  12.503  65.060  1.00  0.00    -0.700 OA 
BRANCH  19  22
HETATM   22  C   UNL     1     -11.920  14.485  64.531  1.00  0.00    -0.468 C  
HETATM   23  O   UNL     1     -10.512  14.391  64.313  1.00  0.00    -0.510 OA 
HETATM   24  H   UNL     1     -10.058  15.155  64.649  1.00  0.00     0.000 HD 
ENDBRANCH  19  22
ENDBRANCH  18  19
ENDBRANCH  16  18
ENDBRANCH  11  14
BRANCH  13  25
HETATM   25  C   UNL     1      -7.754   6.621  64.980  1.00  0.00    -0.103 C  
HETATM   26  O   UNL     1      -6.598   6.342  64.680  1.00  0.00    -0.033 OA 
HETATM   27  H   UNL     1      -9.724   5.944  65.167  1.00  0.00     0.000 HD 
HETATM   28  N   UNL     1      -8.782   5.702  64.862  1.00  0.00    -0.089 N  
BRANCH  28  29
HETATM   29  C   UNL     1      -8.511   4.383  64.300  1.00  0.00    -0.115 C  
BRANCH  29  30
HETATM   30  C   UNL     1      -9.715   3.437  64.398  1.00  0.00    -0.168 C  
HETATM   31  H   UNL     1     -11.662   3.624  64.618  1.00  0.00     0.000 HD 
HETATM   32  O   UNL     1     -10.917   4.210  64.558  1.00  0.00    -0.259 OA 
BRANCH  30  33
HETATM   33  C   UNL     1      -9.824   2.547  63.148  1.00  0.00    -0.103 C  
HETATM   34  O   UNL     1     -10.997   2.847  62.394  1.00  0.00    -0.167 OA 
HETATM   35  H   UNL     1     -11.064   2.297  61.622  1.00  0.00     0.000 HD 
ENDBRANCH  30  33
ENDBRANCH  29  30
ENDBRANCH  28  29
ENDBRANCH  13  25
ENDBRANCH   4   5
BRANCH   4  36
HETATM   36  C   UNL     1      -8.850   9.724  69.724  1.00  0.00    -0.224 C  
BRANCH  36  37
HETATM   37  C   UNL     1     -10.334   9.431  69.378  1.00  0.00    -0.212 C  
HETATM   38  O   UNL     1     -10.658   8.036  69.463  1.00  0.00    -0.227 OA 
HETATM   39  H   UNL     1     -11.567   7.856  69.251  1.00  0.00     0.000 HD 
BRANCH  37  40
HETATM   40  C   UNL     1     -11.330  10.166  70.281  1.00  0.00    -0.315 C  
HETATM   41  O   UNL     1     -12.534   9.399  70.389  1.00  0.00    -0.480 OA 
HETATM   42  H   UNL     1     -13.151   9.854  70.948  1.00  0.00     0.000 HD 
ENDBRANCH  37  40
ENDBRANCH  36  37
ENDBRANCH   4  36
TORSDOF 12
ENDMDL
MODEL       74
REMARK 921   NORMALIZED FREE ENERGY PREDICTED BY IDOCK:   -3.87 KCAL/MOL
REMARK 922        TOTAL FREE ENERGY PREDICTED BY IDOCK:   -7.79 KCAL/MOL
REMARK 923 INTER-LIGAND FREE ENERGY PREDICTED BY IDOCK:   -6.54 KCAL/MOL
REMARK 924 INTRA-LIGAND FREE ENERGY PREDICTED BY IDOCK:   -1.25 KCAL/MOL
REMARK 927      BINDING AFFINITY PREDICTED BY RF-SCORE:    0.00 PKD
ROOT
HETATM    1  C   UNL     1      -6.272  11.890  67.030  1.00  0.00    -0.145 C  
HETATM    2  C   UNL     1      -6.384  10.400  67.199  1.00  0.00    -0.067 C  
HETATM    3  O   UNL     1      -5.369   9.729  67.407  1.00  0.00    -0.036 OA 
HETATM    4  N   UNL     1      -7.657   9.832  67.095  1.00  0.00    -0.092 N  
ENDROOT
BRANCH   4   5
HETATM    5  C   UNL     1      -7.748   8.421  67.327  1.00  0.00    -0.098 A  
HETATM    6  C   UNL     1      -8.306   5.694  67.696  1.00  0.00    -0.100 A  
HETATM    7  C   UNL     1      -7.580   7.518  66.244  1.00  0.00    -0.088 A  
HETATM    8  C   UNL     1      -8.059   7.934  68.622  1.00  0.00    -0.126 A  
HETATM    9  I   UNL     1      -8.042   9.330  70.283  1.00  0.00    -0.210 I  
HETATM   10  I   UNL     1      -6.830   8.325  64.380  1.00  0.00    -0.072 I  
HETATM   11  C   UNL     1      -8.356   6.566  68.818  1.00  0.00    -0.122 A  
HETATM   12  I   UNL     1      -9.166   3.704  67.882  1.00  0.00    -0.205 I  
HETATM   13  C   UNL     1      -7.857   6.146  66.415  1.00  0.00    -0.104 A  
BRANCH  11  14
HETATM   14  C   UNL     1      -8.842   6.110  70.155  1.00  0.00    -0.144 C  
HETATM   15  O   UNL     1      -8.072   5.577  70.947  1.00  0.00    -0.108 OA 
HETATM   16  N   UNL     1     -10.173   6.317  70.439  1.00  0.00    -0.193 N  
HETATM   17  H   UNL     1     -10.765   6.785  69.752  1.00  0.00     0.000 HD 
BRANCH  16  18
HETATM   18  C   UNL     1     -10.753   5.878  71.708  1.00  0.00    -0.245 C  
BRANCH  18  19
HETATM   19  C   UNL     1     -11.333   7.049  72.507  1.00  0.00    -0.263 C  
HETATM   20  H   UNL     1     -10.620   8.506  73.617  1.00  0.00     0.000 HD 
HETATM   21  O   UNL     1     -10.260   7.779  73.122  1.00  0.00    -0.301 OA 
BRANCH  19  22
HETATM   22  C   UNL     1     -12.177   7.975  71.617  1.00  0.00    -0.307 C  
HETATM   23  O   UNL     1     -13.108   7.233  70.830  1.00  0.00    -0.603 OA 
HETATM   24  H   UNL     1     -13.629   7.806  70.279  1.00  0.00     0.000 HD 
ENDBRANCH  19  22
ENDBRANCH  18  19
ENDBRANCH  16  18
ENDBRANCH  11  14
BRANCH  13  25
HETATM   25  C   UNL     1      -7.625   5.141  65.325  1.00  0.00    -0.082 C  
HETATM   26  O   UNL     1      -6.559   4.537  65.280  1.00  0.00    -0.045 OA 
HETATM   27  H   UNL     1      -9.520   5.410  64.482  1.00  0.00     0.000 HD 
HETATM   28  N   UNL     1      -8.624   4.931  64.391  1.00  0.00    -0.140 N  
BRANCH  28  29
HETATM   29  C   UNL     1      -8.390   4.021  63.275  1.00  0.00    -0.093 C  
BRANCH  29  30
HETATM   30  C   UNL     1      -9.298   2.784  63.317  1.00  0.00    -0.094 C  
HETATM   31  H   UNL     1      -9.426   1.146  64.400  1.00  0.00     0.000 HD 
HETATM   32  O   UNL     1      -8.865   1.911  64.374  1.00  0.00    -0.093 OA 
BRANCH  30  33
HETATM   33  C   UNL     1     -10.768   3.182  63.533  1.00  0.00    -0.246 C  
HETATM   34  O   UNL     1     -11.614   2.036  63.607  1.00  0.00    -0.568 OA 
HETATM   35  H   UNL     1     -12.522   2.282  63.740  1.00  0.00     0.000 HD 
ENDBRANCH  30  33
ENDBRANCH  29  30
ENDBRANCH  28  29
ENDBRANCH  13  25
ENDBRANCH   4   5
BRANCH   4  36
HETATM   36  C   UNL     1      -8.911  10.586  66.817  1.00  0.00    -0.137 C  
BRANCH  36  37
HETATM   37  C   UNL     1      -9.297  10.806  65.330  1.00  0.00    -0.210 C  
HETATM   38  O   UNL     1     -10.228   9.825  64.848  1.00  0.00    -0.310 OA 
HETATM   39  H   UNL     1     -10.464   9.959  63.937  1.00  0.00     0.000 HD 
BRANCH  37  40
HETATM   40  C   UNL     1      -9.926  12.176  65.056  1.00  0.00    -0.220 C  
HETATM   41  O   UNL     1      -9.680  12.551  63.696  1.00  0.00    -0.672 OA 
HETATM   42  H   UNL     1     -10.070  13.400  63.526  1.00  0.00     0.000 HD 
ENDBRANCH  37  40
ENDBRANCH  36  37
ENDBRANCH   4  36
TORSDOF 12
ENDMDL
MODEL       75
REMARK 921   NORMALIZED FREE ENERGY PREDICTED BY IDOCK:   -3.87 KCAL/MOL
REMARK 922        TOTAL FREE ENERGY PREDICTED BY IDOCK:   -7.78 KCAL/MOL
REMARK 923 INTER-LIGAND FREE ENERGY PREDICTED BY IDOCK:   -7.57 KCAL/MOL
REMARK 924 INTRA-LIGAND FREE ENERGY PREDICTED BY IDOCK:   -0.21 KCAL/MOL
REMARK 927      BINDING AFFINITY PREDICTED BY RF-SCORE:    0.00 PKD
ROOT
HETATM    1  C   UNL     1      -8.618   2.612  65.315  1.00  0.00    -0.105 C  
HETATM    2  C   UNL     1      -9.092   4.002  65.640  1.00  0.00    -0.142 C  
HETATM    3  O   UNL     1     -10.298   4.260  65.611  1.00  0.00    -0.235 OA 
HETATM    4  N   UNL     1      -8.122   4.959  65.950  1.00  0.00    -0.107 N  
ENDROOT
BRANCH   4   5
HETATM    5  C   UNL     1      -8.601   6.258  66.321  1.00  0.00    -0.138 A  
HETATM    6  C   UNL     1      -9.178   8.867  67.181  1.00  0.00    -0.139 A  
HETATM    7  C   UNL     1      -8.475   7.341  65.411  1.00  0.00    -0.087 A  
HETATM    8  C   UNL     1      -9.146   6.470  67.613  1.00  0.00    -0.112 A  
HETATM    9  I   UNL     1      -9.558   4.740  68.857  1.00  0.00    -0.201 I  
HETATM   10  I   UNL     1      -7.902   6.871  63.376  1.00  0.00     0.045 I  
HETATM   11  C   UNL     1      -9.428   7.780  68.062  1.00  0.00    -0.153 A  
HETATM   12  I   UNL     1      -9.191  10.888  67.989  1.00  0.00    -0.181 I  
HETATM   13  C   UNL     1      -8.762   8.656  65.830  1.00  0.00    -0.212 A  
BRANCH  11  14
HETATM   14  C   UNL     1      -9.844   7.989  69.482  1.00  0.00    -0.181 C  
HETATM   15  O   UNL     1      -9.002   8.161  70.357  1.00  0.00    -0.142 OA 
HETATM   16  N   UNL     1     -11.195   7.978  69.744  1.00  0.00    -0.451 N  
HETATM   17  H   UNL     1     -11.854   7.852  68.975  1.00  0.00     0.000 HD 
BRANCH  16  18
HETATM   18  C   UNL     1     -11.704   8.142  71.106  1.00  0.00    -0.283 C  
BRANCH  18  19
HETATM   19  C   UNL     1     -12.920   9.072  71.153  1.00  0.00    -0.146 C  
HETATM   20  H   UNL     1     -14.152   9.735  72.533  1.00  0.00     0.000 HD 
HETATM   21  O   UNL     1     -13.398   9.158  72.504  1.00  0.00    -0.458 OA 
BRANCH  19  22
HETATM   22  C   UNL     1     -12.582  10.469  70.609  1.00  0.00    -0.369 C  
HETATM   23  O   UNL     1     -12.649  10.503  69.184  1.00  0.00    -0.740 OA 
HETATM   24  H   UNL     1     -12.440  11.367  68.848  1.00  0.00     0.000 HD 
ENDBRANCH  19  22
ENDBRANCH  18  19
ENDBRANCH  16  18
ENDBRANCH  11  14
BRANCH  13  25
HETATM   25  C   UNL     1      -8.716   9.823  64.887  1.00  0.00    -0.183 C  
HETATM   26  O   UNL     1      -7.652  10.404  64.701  1.00  0.00    -0.131 OA 
HETATM   27  H   UNL     1     -10.743   9.684  64.393  1.00  0.00     0.000 HD 
HETATM   28  N   UNL     1      -9.883  10.217  64.259  1.00  0.00    -0.324 N  
BRANCH  28  29
HETATM   29  C   UNL     1      -9.880  11.398  63.403  1.00  0.00    -0.396 C  
BRANCH  29  30
HETATM   30  C   UNL     1     -11.092  12.309  63.643  1.00  0.00    -0.469 C  
HETATM   31  H   UNL     1     -13.045  12.163  63.458  1.00  0.00     0.000 HD 
HETATM   32  O   UNL     1     -12.296  11.599  63.309  1.00  0.00    -0.452 OA 
BRANCH  30  33
HETATM   33  C   UNL     1     -11.148  12.783  65.105  1.00  0.00    -0.291 C  
HETATM   34  O   UNL     1     -12.349  12.358  65.746  1.00  0.00    -0.644 OA 
HETATM   35  H   UNL     1     -12.384  12.650  66.650  1.00  0.00     0.000 HD 
ENDBRANCH  30  33
ENDBRANCH  29  30
ENDBRANCH  28  29
ENDBRANCH  13  25
ENDBRANCH   4   5
BRANCH   4  36
HETATM   36  C   UNL     1      -6.653   4.713  65.972  1.00  0.00    -0.045 C  
BRANCH  36  37
HETATM   37  C   UNL     1      -5.989   4.483  67.356  1.00  0.00    -0.023 C  
HETATM   38  O   UNL     1      -6.117   5.616  68.228  1.00  0.00    -0.020 OA 
HETATM   39  H   UNL     1      -5.710   5.475  69.076  1.00  0.00     0.000 HD 
BRANCH  37  40
HETATM   40  C   UNL     1      -6.560   3.281  68.117  1.00  0.00    -0.037 C  
HETATM   41  O   UNL     1      -5.593   2.226  68.139  1.00  0.00    -0.017 OA 
HETATM   42  H   UNL     1      -5.948   1.481  68.610  1.00  0.00     0.000 HD 
ENDBRANCH  37  40
ENDBRANCH  36  37
ENDBRANCH   4  36
TORSDOF 12
ENDMDL
MODEL       76
REMARK 921   NORMALIZED FREE ENERGY PREDICTED BY IDOCK:   -3.83 KCAL/MOL
REMARK 922        TOTAL FREE ENERGY PREDICTED BY IDOCK:   -7.71 KCAL/MOL
REMARK 923 INTER-LIGAND FREE ENERGY PREDICTED BY IDOCK:   -6.81 KCAL/MOL
REMARK 924 INTRA-LIGAND FREE ENERGY PREDICTED BY IDOCK:   -0.90 KCAL/MOL
REMARK 927      BINDING AFFINITY PREDICTED BY RF-SCORE:    0.00 PKD
ROOT
HETATM    1  C   UNL     1      -9.140  13.327  66.935  1.00  0.00    -0.235 C  
HETATM    2  C   UNL     1      -8.869  11.884  67.263  1.00  0.00    -0.179 C  
HETATM    3  O   UNL     1      -7.887  11.585  67.947  1.00  0.00    -0.112 OA 
HETATM    4  N   UNL     1      -9.754  10.930  66.753  1.00  0.00    -0.186 N  
ENDROOT
BRANCH   4   5
HETATM    5  C   UNL     1      -9.515   9.569  67.134  1.00  0.00    -0.149 A  
HETATM    6  C   UNL     1      -9.370   6.818  67.676  1.00  0.00    -0.120 A  
HETATM    7  C   UNL     1      -8.742   8.728  66.291  1.00  0.00    -0.147 A  
HETATM    8  C   UNL     1     -10.097   9.052  68.319  1.00  0.00    -0.192 A  
HETATM    9  I   UNL     1     -11.041  10.438  69.697  1.00  0.00    -0.382 I  
HETATM   10  I   UNL     1      -7.663   9.667  64.664  1.00  0.00    -0.152 I  
HETATM   11  C   UNL     1     -10.043   7.667  68.596  1.00  0.00    -0.201 A  
HETATM   12  I   UNL     1      -9.642   4.666  67.852  1.00  0.00    -0.153 I  
HETATM   13  C   UNL     1      -8.660   7.344  66.552  1.00  0.00    -0.134 A  
BRANCH  11  14
HETATM   14  C   UNL     1     -10.804   7.127  69.763  1.00  0.00    -0.240 C  
HETATM   15  O   UNL     1     -11.973   6.782  69.635  1.00  0.00    -0.128 OA 
HETATM   16  N   UNL     1     -10.130   7.041  70.961  1.00  0.00    -0.196 N  
HETATM   17  H   UNL     1      -9.150   7.321  71.006  1.00  0.00     0.000 HD 
BRANCH  16  18
HETATM   18  C   UNL     1     -10.796   6.555  72.169  1.00  0.00    -0.232 C  
BRANCH  18  19
HETATM   19  C   UNL     1     -10.173   5.252  72.680  1.00  0.00    -0.184 C  
HETATM   20  H   UNL     1      -9.356   3.655  71.876  1.00  0.00     0.000 HD 
HETATM   21  O   UNL     1      -9.743   4.463  71.560  1.00  0.00    -0.155 OA 
BRANCH  19  22
HETATM   22  C   UNL     1      -8.999   5.524  73.632  1.00  0.00    -0.124 C  
HETATM   23  O   UNL     1      -8.174   6.585  73.152  1.00  0.00    -0.113 OA 
HETATM   24  H   UNL     1      -7.448   6.753  73.741  1.00  0.00     0.000 HD 
ENDBRANCH  19  22
ENDBRANCH  18  19
ENDBRANCH  16  18
ENDBRANCH  11  14
BRANCH  13  25
HETATM   25  C   UNL     1      -7.797   6.426  65.735  1.00  0.00    -0.104 C  
HETATM   26  O   UNL     1      -6.633   6.239  66.071  1.00  0.00    -0.045 OA 
HETATM   27  H   UNL     1      -9.328   5.955  64.391  1.00  0.00     0.000 HD 
HETATM   28  N   UNL     1      -8.342   5.821  64.617  1.00  0.00    -0.128 N  
BRANCH  28  29
HETATM   29  C   UNL     1      -7.501   4.991  63.762  1.00  0.00    -0.060 C  
BRANCH  29  30
HETATM   30  C   UNL     1      -7.950   3.523  63.733  1.00  0.00    -0.085 C  
HETATM   31  H   UNL     1      -7.751   1.947  64.893  1.00  0.00     0.000 HD 
HETATM   32  O   UNL     1      -7.473   2.855  64.912  1.00  0.00    -0.072 OA 
BRANCH  30  33
HETATM   33  C   UNL     1      -9.482   3.414  63.648  1.00  0.00    -0.122 C  
HETATM   34  O   UNL     1      -9.974   2.341  64.449  1.00  0.00    -0.306 OA 
HETATM   35  H   UNL     1     -10.920   2.273  64.397  1.00  0.00     0.000 HD 
ENDBRANCH  30  33
ENDBRANCH  29  30
ENDBRANCH  28  29
ENDBRANCH  13  25
ENDBRANCH   4   5
BRANCH   4  36
HETATM   36  C   UNL     1     -10.938  11.229  65.898  1.00  0.00    -0.157 C  
BRANCH  36  37
HETATM   37  C   UNL     1     -10.671  11.867  64.509  1.00  0.00    -0.312 C  
HETATM   38  O   UNL     1     -10.812  10.930  63.431  1.00  0.00    -0.605 OA 
HETATM   39  H   UNL     1     -10.649  11.321  62.581  1.00  0.00     0.000 HD 
BRANCH  37  40
HETATM   40  C   UNL     1     -11.599  13.044  64.188  1.00  0.00    -0.407 C  
HETATM   41  O   UNL     1     -12.065  12.930  62.839  1.00  0.00    -0.692 OA 
HETATM   42  H   UNL     1     -12.640  13.659  62.640  1.00  0.00     0.000 HD 
ENDBRANCH  37  40
ENDBRANCH  36  37
ENDBRANCH   4  36
TORSDOF 12
ENDMDL
MODEL       77
REMARK 921   NORMALIZED FREE ENERGY PREDICTED BY IDOCK:   -3.82 KCAL/MOL
REMARK 922        TOTAL FREE ENERGY PREDICTED BY IDOCK:   -7.70 KCAL/MOL
REMARK 923 INTER-LIGAND FREE ENERGY PREDICTED BY IDOCK:   -9.23 KCAL/MOL
REMARK 924 INTRA-LIGAND FREE ENERGY PREDICTED BY IDOCK:    1.54 KCAL/MOL
REMARK 927      BINDING AFFINITY PREDICTED BY RF-SCORE:    0.00 PKD
ROOT
HETATM    1  C   UNL     1     -10.722  13.342  64.722  1.00  0.00    -0.393 C  
HETATM    2  C   UNL     1     -10.962  12.535  65.968  1.00  0.00    -0.283 C  
HETATM    3  O   UNL     1     -11.929  11.771  66.027  1.00  0.00    -0.435 OA 
HETATM    4  N   UNL     1     -10.067  12.704  67.029  1.00  0.00    -0.223 N  
ENDROOT
BRANCH   4   5
HETATM    5  C   UNL     1     -10.277  11.875  68.180  1.00  0.00    -0.199 A  
HETATM    6  C   UNL     1     -10.973  10.083  70.225  1.00  0.00    -0.316 A  
HETATM    7  C   UNL     1      -9.599  10.631  68.284  1.00  0.00    -0.162 A  
HETATM    8  C   UNL     1     -11.200  12.272  69.180  1.00  0.00    -0.242 A  
HETATM    9  I   UNL     1     -12.002  14.287  69.105  1.00  0.00    -0.250 I  
HETATM   10  I   UNL     1      -8.007  10.242  66.868  1.00  0.00    -0.119 I  
HETATM   11  C   UNL     1     -11.569  11.374  70.207  1.00  0.00    -0.334 A  
HETATM   12  I   UNL     1     -11.832   8.556  71.516  1.00  0.00    -0.428 I  
HETATM   13  C   UNL     1      -9.939   9.722  69.307  1.00  0.00    -0.201 A  
BRANCH  11  14
HETATM   14  C   UNL     1     -12.664  11.755  71.149  1.00  0.00    -0.305 C  
HETATM   15  O   UNL     1     -13.475  10.917  71.531  1.00  0.00    -0.243 OA 
HETATM   16  N   UNL     1     -12.709  13.070  71.554  1.00  0.00    -0.301 N  
HETATM   17  H   UNL     1     -11.996  13.721  71.224  1.00  0.00     0.000 HD 
BRANCH  16  18
HETATM   18  C   UNL     1     -13.760  13.550  72.451  1.00  0.00    -0.602 C  
BRANCH  18  19
HETATM   19  C   UNL     1     -13.311  14.775  73.254  1.00  0.00    -0.227 C  
HETATM   20  H   UNL     1     -11.892  15.184  74.550  1.00  0.00     0.000 HD 
HETATM   21  O   UNL     1     -12.171  14.425  74.053  1.00  0.00    -0.277 OA 
BRANCH  19  22
HETATM   22  C   UNL     1     -12.983  15.961  72.335  1.00  0.00    -0.433 C  
HETATM   23  O   UNL     1     -11.843  16.683  72.801  1.00  0.00    -0.519 OA 
HETATM   24  H   UNL     1     -11.641  17.416  72.232  1.00  0.00     0.000 HD 
ENDBRANCH  19  22
ENDBRANCH  18  19
ENDBRANCH  16  18
ENDBRANCH  11  14
BRANCH  13  25
HETATM   25  C   UNL     1      -9.203   8.429  69.504  1.00  0.00    -0.154 C  
HETATM   26  O   UNL     1      -8.181   8.416  70.183  1.00  0.00    -0.111 OA 
HETATM   27  H   UNL     1     -10.576   7.315  68.388  1.00  0.00     0.000 HD 
HETATM   28  N   UNL     1      -9.697   7.284  68.904  1.00  0.00    -0.147 N  
BRANCH  28  29
HETATM   29  C   UNL     1      -8.955   6.033  69.013  1.00  0.00    -0.124 C  
BRANCH  29  30
HETATM   30  C   UNL     1      -9.111   5.140  67.776  1.00  0.00    -0.111 C  
HETATM   31  H   UNL     1     -10.119   3.516  67.307  1.00  0.00     0.000 HD 
HETATM   32  O   UNL     1     -10.023   4.069  68.073  1.00  0.00    -0.056 OA 
BRANCH  30  33
HETATM   33  C   UNL     1      -9.622   5.947  66.570  1.00  0.00    -0.156 C  
HETATM   34  O   UNL     1     -10.923   5.521  66.170  1.00  0.00    -0.698 OA 
HETATM   35  H   UNL     1     -11.239   6.019  65.425  1.00  0.00     0.000 HD 
ENDBRANCH  30  33
ENDBRANCH  29  30
ENDBRANCH  28  29
ENDBRANCH  13  25
ENDBRANCH   4   5
BRANCH   4  36
HETATM   36  C   UNL     1      -8.901  13.631  67.027  1.00  0.00    -0.223 C  
BRANCH  36  37
HETATM   37  C   UNL     1      -9.181  15.130  67.317  1.00  0.00    -0.198 C  
HETATM   38  O   UNL     1      -8.458  15.619  68.456  1.00  0.00    -0.161 OA 
HETATM   39  H   UNL     1      -8.629  16.536  68.634  1.00  0.00     0.000 HD 
BRANCH  37  40
HETATM   40  C   UNL     1      -8.831  16.056  66.148  1.00  0.00    -0.331 C  
HETATM   41  O   UNL     1      -7.529  16.615  66.354  1.00  0.00    -0.272 OA 
HETATM   42  H   UNL     1      -7.313  17.189  65.630  1.00  0.00     0.000 HD 
ENDBRANCH  37  40
ENDBRANCH  36  37
ENDBRANCH   4  36
TORSDOF 12
ENDMDL
MODEL       78
REMARK 921   NORMALIZED FREE ENERGY PREDICTED BY IDOCK:   -3.78 KCAL/MOL
REMARK 922        TOTAL FREE ENERGY PREDICTED BY IDOCK:   -7.64 KCAL/MOL
REMARK 923 INTER-LIGAND FREE ENERGY PREDICTED BY IDOCK:   -7.16 KCAL/MOL
REMARK 924 INTRA-LIGAND FREE ENERGY PREDICTED BY IDOCK:   -0.47 KCAL/MOL
REMARK 927      BINDING AFFINITY PREDICTED BY RF-SCORE:    0.00 PKD
ROOT
HETATM    1  C   UNL     1      -6.934  12.214  67.163  1.00  0.00    -0.117 C  
HETATM    2  C   UNL     1      -7.310  10.761  67.264  1.00  0.00    -0.097 C  
HETATM    3  O   UNL     1      -6.641  10.004  67.972  1.00  0.00    -0.062 OA 
HETATM    4  N   UNL     1      -8.414  10.327  66.525  1.00  0.00    -0.124 N  
ENDROOT
BRANCH   4   5
HETATM    5  C   UNL     1      -8.794   8.955  66.691  1.00  0.00    -0.129 A  
HETATM    6  C   UNL     1      -9.199   6.226  67.206  1.00  0.00    -0.118 A  
HETATM    7  C   UNL     1      -9.512   8.559  67.850  1.00  0.00    -0.139 A  
HETATM    8  C   UNL     1      -8.405   7.991  65.727  1.00  0.00    -0.138 A  
HETATM    9  I   UNL     1      -7.548   8.685  63.858  1.00  0.00    -0.148 I  
HETATM   10  I   UNL     1     -10.308  10.127  69.115  1.00  0.00    -0.305 I  
HETATM   11  C   UNL     1      -8.590   6.613  65.981  1.00  0.00    -0.152 A  
HETATM   12  I   UNL     1      -9.102   4.135  67.803  1.00  0.00    -0.221 I  
HETATM   13  C   UNL     1      -9.722   7.191  68.121  1.00  0.00    -0.147 A  
BRANCH  11  14
HETATM   14  C   UNL     1      -8.022   5.613  65.027  1.00  0.00    -0.115 C  
HETATM   15  O   UNL     1      -6.902   5.149  65.207  1.00  0.00    -0.057 OA 
HETATM   16  N   UNL     1      -8.813   5.252  63.959  1.00  0.00    -0.341 N  
HETATM   17  H   UNL     1      -9.747   5.652  63.869  1.00  0.00     0.000 HD 
BRANCH  16  18
HETATM   18  C   UNL     1      -8.336   4.304  62.951  1.00  0.00    -0.088 C  
BRANCH  18  19
HETATM   19  C   UNL     1      -9.310   3.137  62.759  1.00  0.00    -0.090 C  
HETATM   20  H   UNL     1      -9.550   1.344  63.527  1.00  0.00     0.000 HD 
HETATM   21  O   UNL     1      -8.946   2.067  63.646  1.00  0.00    -0.088 OA 
BRANCH  19  22
HETATM   22  C   UNL     1     -10.763   3.570  63.002  1.00  0.00    -0.200 C  
HETATM   23  O   UNL     1     -11.182   3.265  64.332  1.00  0.00    -0.578 OA 
HETATM   24  H   UNL     1     -12.081   3.533  64.482  1.00  0.00     0.000 HD 
ENDBRANCH  19  22
ENDBRANCH  18  19
ENDBRANCH  16  18
ENDBRANCH  11  14
BRANCH  13  25
HETATM   25  C   UNL     1     -10.537   6.724  69.292  1.00  0.00    -0.231 C  
HETATM   26  O   UNL     1     -11.717   6.435  69.127  1.00  0.00    -0.217 OA 
HETATM   27  H   UNL     1      -8.934   6.839  70.631  1.00  0.00     0.000 HD 
HETATM   28  N   UNL     1      -9.930   6.641  70.533  1.00  0.00    -0.179 N  
BRANCH  28  29
HETATM   29  C   UNL     1     -10.722   6.269  71.701  1.00  0.00    -0.239 C  
BRANCH  29  30
HETATM   30  C   UNL     1     -10.418   7.141  72.927  1.00  0.00    -0.266 C  
HETATM   31  H   UNL     1      -9.370   6.959  74.582  1.00  0.00     0.000 HD 
HETATM   32  O   UNL     1      -9.557   6.419  73.823  1.00  0.00    -0.151 OA 
BRANCH  30  33
HETATM   33  C   UNL     1      -9.756   8.466  72.514  1.00  0.00    -0.289 C  
HETATM   34  O   UNL     1      -8.451   8.595  73.074  1.00  0.00    -0.398 OA 
HETATM   35  H   UNL     1      -8.042   9.414  72.819  1.00  0.00     0.000 HD 
ENDBRANCH  30  33
ENDBRANCH  29  30
ENDBRANCH  28  29
ENDBRANCH  13  25
ENDBRANCH   4   5
BRANCH   4  36
HETATM   36  C   UNL     1      -9.240  11.188  65.633  1.00  0.00    -0.218 C  
BRANCH  36  37
HETATM   37  C   UNL     1     -10.036  12.345  66.296  1.00  0.00    -0.240 C  
HETATM   38  O   UNL     1      -9.648  13.637  65.806  1.00  0.00    -0.476 OA 
HETATM   39  H   UNL     1     -10.136  14.345  66.211  1.00  0.00     0.000 HD 
BRANCH  37  40
HETATM   40  C   UNL     1     -11.552  12.239  66.094  1.00  0.00    -0.390 C  
HETATM   41  O   UNL     1     -12.164  13.495  66.403  1.00  0.00    -0.415 OA 
HETATM   42  H   UNL     1     -13.103  13.430  66.279  1.00  0.00     0.000 HD 
ENDBRANCH  37  40
ENDBRANCH  36  37
ENDBRANCH   4  36
TORSDOF 12
ENDMDL
MODEL       79
REMARK 921   NORMALIZED FREE ENERGY PREDICTED BY IDOCK:   -3.73 KCAL/MOL
REMARK 922        TOTAL FREE ENERGY PREDICTED BY IDOCK:   -7.55 KCAL/MOL
REMARK 923 INTER-LIGAND FREE ENERGY PREDICTED BY IDOCK:   -6.23 KCAL/MOL
REMARK 924 INTRA-LIGAND FREE ENERGY PREDICTED BY IDOCK:   -1.32 KCAL/MOL
REMARK 927      BINDING AFFINITY PREDICTED BY RF-SCORE:    0.00 PKD
ROOT
HETATM    1  C   UNL     1      -6.237  11.813  67.259  1.00  0.00    -0.130 C  
HETATM    2  C   UNL     1      -6.388  10.317  67.295  1.00  0.00    -0.066 C  
HETATM    3  O   UNL     1      -5.404   9.608  67.521  1.00  0.00    -0.036 OA 
HETATM    4  N   UNL     1      -7.659   9.791  67.051  1.00  0.00    -0.092 N  
ENDROOT
BRANCH   4   5
HETATM    5  C   UNL     1      -7.793   8.368  67.157  1.00  0.00    -0.100 A  
HETATM    6  C   UNL     1      -8.434   5.638  67.292  1.00  0.00    -0.106 A  
HETATM    7  C   UNL     1      -7.674   7.561  65.994  1.00  0.00    -0.094 A  
HETATM    8  C   UNL     1      -8.097   7.776  68.409  1.00  0.00    -0.124 A  
HETATM    9  I   UNL     1      -8.004   9.015  70.188  1.00  0.00    -0.182 I  
HETATM   10  I   UNL     1      -6.931   8.509  64.195  1.00  0.00    -0.082 I  
HETATM   11  C   UNL     1      -8.435   6.406  68.488  1.00  0.00    -0.119 A  
HETATM   12  I   UNL     1      -9.356   3.667  67.317  1.00  0.00    -0.128 I  
HETATM   13  C   UNL     1      -7.993   6.189  66.048  1.00  0.00    -0.110 A  
BRANCH  11  14
HETATM   14  C   UNL     1      -8.912   5.846  69.789  1.00  0.00    -0.131 C  
HETATM   15  O   UNL     1      -8.165   5.165  70.483  1.00  0.00    -0.098 OA 
HETATM   16  N   UNL     1     -10.208   6.133  70.153  1.00  0.00    -0.189 N  
HETATM   17  H   UNL     1     -10.780   6.723  69.549  1.00  0.00     0.000 HD 
BRANCH  16  18
HETATM   18  C   UNL     1     -10.780   5.606  71.392  1.00  0.00    -0.244 C  
BRANCH  18  19
HETATM   19  C   UNL     1     -11.006   6.709  72.432  1.00  0.00    -0.244 C  
HETATM   20  H   UNL     1      -9.883   7.771  73.646  1.00  0.00     0.000 HD 
HETATM   21  O   UNL     1      -9.743   7.088  73.002  1.00  0.00    -0.153 OA 
BRANCH  19  22
HETATM   22  C   UNL     1     -11.708   7.928  71.815  1.00  0.00    -0.287 C  
HETATM   23  O   UNL     1     -12.599   7.542  70.769  1.00  0.00    -0.541 OA 
HETATM   24  H   UNL     1     -13.033   8.296  70.388  1.00  0.00     0.000 HD 
ENDBRANCH  19  22
ENDBRANCH  18  19
ENDBRANCH  16  18
ENDBRANCH  11  14
BRANCH  13  25
HETATM   25  C   UNL     1      -7.814   5.280  64.867  1.00  0.00    -0.095 C  
HETATM   26  O   UNL     1      -6.753   4.683  64.722  1.00  0.00    -0.043 OA 
HETATM   27  H   UNL     1      -9.746   5.616  64.138  1.00  0.00     0.000 HD 
HETATM   28  N   UNL     1      -8.856   5.147  63.966  1.00  0.00    -0.057 N  
BRANCH  28  29
HETATM   29  C   UNL     1      -8.676   4.335  62.768  1.00  0.00    -0.108 C  
BRANCH  29  30
HETATM   30  C   UNL     1      -9.356   2.963  62.873  1.00  0.00    -0.093 C  
HETATM   31  H   UNL     1      -8.945   1.227  63.703  1.00  0.00     0.000 HD 
HETATM   32  O   UNL     1      -8.524   2.075  63.638  1.00  0.00    -0.080 OA 
BRANCH  30  33
HETATM   33  C   UNL     1     -10.743   3.081  63.529  1.00  0.00    -0.236 C  
HETATM   34  O   UNL     1     -11.425   1.828  63.538  1.00  0.00    -0.550 OA 
HETATM   35  H   UNL     1     -12.281   1.900  63.942  1.00  0.00     0.000 HD 
ENDBRANCH  30  33
ENDBRANCH  29  30
ENDBRANCH  28  29
ENDBRANCH  13  25
ENDBRANCH   4   5
BRANCH   4  36
HETATM   36  C   UNL     1      -8.875  10.595  66.744  1.00  0.00    -0.139 C  
BRANCH  36  37
HETATM   37  C   UNL     1      -9.829  10.923  67.924  1.00  0.00    -0.172 C  
HETATM   38  O   UNL     1      -9.495  12.155  68.581  1.00  0.00    -0.352 OA 
HETATM   39  H   UNL     1     -10.079  12.355  69.304  1.00  0.00     0.000 HD 
BRANCH  37  40
HETATM   40  C   UNL     1     -11.300  11.036  67.509  1.00  0.00    -0.257 C  
HETATM   41  O   UNL     1     -12.130  10.477  68.533  1.00  0.00    -0.793 OA 
HETATM   42  H   UNL     1     -13.041  10.546  68.275  1.00  0.00     0.000 HD 
ENDBRANCH  37  40
ENDBRANCH  36  37
ENDBRANCH   4  36
TORSDOF 12
ENDMDL
MODEL       80
REMARK 921   NORMALIZED FREE ENERGY PREDICTED BY IDOCK:   -3.67 KCAL/MOL
REMARK 922        TOTAL FREE ENERGY PREDICTED BY IDOCK:   -7.45 KCAL/MOL
REMARK 923 INTER-LIGAND FREE ENERGY PREDICTED BY IDOCK:   -7.17 KCAL/MOL
REMARK 924 INTRA-LIGAND FREE ENERGY PREDICTED BY IDOCK:   -0.28 KCAL/MOL
REMARK 927      BINDING AFFINITY PREDICTED BY RF-SCORE:    0.00 PKD
ROOT
HETATM    1  C   UNL     1      -8.982   7.311  71.472  1.00  0.00    -0.133 C  
HETATM    2  C   UNL     1      -9.083   8.606  70.714  1.00  0.00    -0.178 C  
HETATM    3  O   UNL     1      -9.878   9.473  71.085  1.00  0.00    -0.251 OA 
HETATM    4  N   UNL     1      -8.264   8.763  69.592  1.00  0.00    -0.110 N  
ENDROOT
BRANCH   4   5
HETATM    5  C   UNL     1      -8.329  10.030  68.926  1.00  0.00    -0.130 A  
HETATM    6  C   UNL     1      -8.656  12.636  67.935  1.00  0.00    -0.181 A  
HETATM    7  C   UNL     1      -7.323  11.004  69.166  1.00  0.00    -0.121 A  
HETATM    8  C   UNL     1      -9.424  10.329  68.075  1.00  0.00    -0.146 A  
HETATM    9  I   UNL     1     -10.782   8.724  67.537  1.00  0.00     0.224 I  
HETATM   10  I   UNL     1      -5.555  10.366  70.241  1.00  0.00    -0.099 I  
HETATM   11  C   UNL     1      -9.607  11.640  67.582  1.00  0.00    -0.184 A  
HETATM   12  I   UNL     1      -9.142  14.723  67.554  1.00  0.00    -0.230 I  
HETATM   13  C   UNL     1      -7.475  12.317  68.674  1.00  0.00    -0.100 A  
BRANCH  11  14
HETATM   14  C   UNL     1     -10.854  11.967  66.827  1.00  0.00    -0.266 C  
HETATM   15  O   UNL     1     -11.876  12.287  67.424  1.00  0.00    -0.480 OA 
HETATM   16  N   UNL     1     -10.790  11.889  65.454  1.00  0.00    -0.287 N  
HETATM   17  H   UNL     1      -9.908  11.639  65.006  1.00  0.00     0.000 HD 
BRANCH  16  18
HETATM   18  C   UNL     1     -11.965  12.159  64.625  1.00  0.00    -0.323 C  
BRANCH  18  19
HETATM   19  C   UNL     1     -11.782  13.413  63.764  1.00  0.00    -0.376 C  
HETATM   20  H   UNL     1     -12.639  14.184  62.172  1.00  0.00     0.000 HD 
HETATM   21  O   UNL     1     -12.753  13.406  62.706  1.00  0.00    -0.382 OA 
BRANCH  19  22
HETATM   22  C   UNL     1     -11.904  14.694  64.602  1.00  0.00    -0.452 C  
HETATM   23  O   UNL     1     -12.028  15.849  63.773  1.00  0.00    -1.238 OA 
HETATM   24  H   UNL     1     -12.103  16.641  64.292  1.00  0.00     0.000 HD 
ENDBRANCH  19  22
ENDBRANCH  18  19
ENDBRANCH  16  18
ENDBRANCH  11  14
BRANCH  13  25
HETATM   25  C   UNL     1      -6.408  13.360  68.837  1.00  0.00    -0.099 C  
HETATM   26  O   UNL     1      -5.693  13.644  67.882  1.00  0.00    -0.118 OA 
HETATM   27  H   UNL     1      -6.899  13.750  70.832  1.00  0.00     0.000 HD 
HETATM   28  N   UNL     1      -6.257  13.969  70.070  1.00  0.00    -0.145 N  
BRANCH  28  29
HETATM   29  C   UNL     1      -5.175  14.925  70.276  1.00  0.00    -0.112 C  
BRANCH  29  30
HETATM   30  C   UNL     1      -5.653  16.383  70.225  1.00  0.00    -0.176 C  
HETATM   31  H   UNL     1      -5.448  17.991  71.340  1.00  0.00     0.000 HD 
HETATM   32  O   UNL     1      -5.152  17.089  71.372  1.00  0.00    -0.388 OA 
BRANCH  30  33
HETATM   33  C   UNL     1      -5.185  17.075  68.934  1.00  0.00    -0.137 C  
HETATM   34  O   UNL     1      -5.171  16.170  67.831  1.00  0.00    -0.108 OA 
HETATM   35  H   UNL     1      -4.881  16.597  67.033  1.00  0.00     0.000 HD 
ENDBRANCH  30  33
ENDBRANCH  29  30
ENDBRANCH  28  29
ENDBRANCH  13  25
ENDBRANCH   4   5
BRANCH   4  36
HETATM   36  C   UNL     1      -7.307   7.742  69.080  1.00  0.00    -0.089 C  
BRANCH  36  37
HETATM   37  C   UNL     1      -7.496   7.259  67.617  1.00  0.00    -0.101 C  
HETATM   38  O   UNL     1      -6.253   6.940  66.974  1.00  0.00    -0.037 OA 
HETATM   39  H   UNL     1      -6.368   6.645  66.078  1.00  0.00     0.000 HD 
BRANCH  37  40
HETATM   40  C   UNL     1      -8.382   6.015  67.492  1.00  0.00    -0.108 C  
HETATM   41  O   UNL     1      -8.083   5.336  66.267  1.00  0.00    -0.107 OA 
HETATM   42  H   UNL     1      -8.633   4.566  66.190  1.00  0.00     0.000 HD 
ENDBRANCH  37  40
ENDBRANCH  36  37
ENDBRANCH   4  36
TORSDOF 12
ENDMDL
MODEL       81
REMARK 921   NORMALIZED FREE ENERGY PREDICTED BY IDOCK:   -3.64 KCAL/MOL
REMARK 922        TOTAL FREE ENERGY PREDICTED BY IDOCK:   -7.40 KCAL/MOL
REMARK 923 INTER-LIGAND FREE ENERGY PREDICTED BY IDOCK:   -6.89 KCAL/MOL
REMARK 924 INTRA-LIGAND FREE ENERGY PREDICTED BY IDOCK:   -0.51 KCAL/MOL
REMARK 927      BINDING AFFINITY PREDICTED BY RF-SCORE:    0.00 PKD
ROOT
HETATM    1  C   UNL     1      -5.192   4.301  64.835  1.00  0.00    -0.009 C  
HETATM    2  C   UNL     1      -5.814   5.546  65.407  1.00  0.00    -0.021 C  
HETATM    3  O   UNL     1      -5.165   6.595  65.441  1.00  0.00    -0.020 OA 
HETATM    4  N   UNL     1      -7.119   5.448  65.897  1.00  0.00    -0.066 N  
ENDROOT
BRANCH   4   5
HETATM    5  C   UNL     1      -7.714   6.661  66.375  1.00  0.00    -0.102 A  
HETATM    6  C   UNL     1      -8.514   9.179  67.326  1.00  0.00    -0.121 A  
HETATM    7  C   UNL     1      -8.086   7.674  65.452  1.00  0.00    -0.128 A  
HETATM    8  C   UNL     1      -7.878   6.870  67.768  1.00  0.00    -0.113 A  
HETATM    9  I   UNL     1      -7.543   5.197  69.110  1.00  0.00    -0.070 I  
HETATM   10  I   UNL     1      -8.068   7.160  63.348  1.00  0.00     0.253 I  
HETATM   11  C   UNL     1      -8.266   8.137  68.260  1.00  0.00    -0.129 A  
HETATM   12  I   UNL     1      -8.687  11.220  68.061  1.00  0.00    -0.160 I  
HETATM   13  C   UNL     1      -8.490   8.943  65.916  1.00  0.00    -0.147 A  
BRANCH  11  14
HETATM   14  C   UNL     1      -8.270   8.376  69.735  1.00  0.00    -0.119 C  
HETATM   15  O   UNL     1      -7.240   8.705  70.313  1.00  0.00    -0.045 OA 
HETATM   16  N   UNL     1      -9.469   8.211  70.390  1.00  0.00    -0.162 N  
HETATM   17  H   UNL     1     -10.301   7.958  69.857  1.00  0.00     0.000 HD 
BRANCH  16  18
HETATM   18  C   UNL     1      -9.571   8.391  71.838  1.00  0.00    -0.254 C  
BRANCH  18  19
HETATM   19  C   UNL     1      -9.668   7.051  72.575  1.00  0.00    -0.149 C  
HETATM   20  H   UNL     1      -9.848   6.464  74.442  1.00  0.00     0.000 HD 
HETATM   21  O   UNL     1      -9.787   7.295  73.985  1.00  0.00    -0.292 OA 
BRANCH  19  22
HETATM   22  C   UNL     1     -10.853   6.215  72.069  1.00  0.00    -0.247 C  
HETATM   23  O   UNL     1     -10.498   4.839  71.930  1.00  0.00    -0.192 OA 
HETATM   24  H   UNL     1     -11.230   4.322  71.616  1.00  0.00     0.000 HD 
ENDBRANCH  19  22
ENDBRANCH  18  19
ENDBRANCH  16  18
ENDBRANCH  11  14
BRANCH  13  25
HETATM   25  C   UNL     1      -8.962  10.022  64.984  1.00  0.00    -0.199 C  
HETATM   26  O   UNL     1      -8.137  10.701  64.384  1.00  0.00    -0.089 OA 
HETATM   27  H   UNL     1     -10.987   9.610  65.309  1.00  0.00     0.000 HD 
HETATM   28  N   UNL     1     -10.323  10.224  64.837  1.00  0.00    -0.200 N  
BRANCH  28  29
HETATM   29  C   UNL     1     -10.804  11.318  64.002  1.00  0.00    -0.344 C  
BRANCH  29  30
HETATM   30  C   UNL     1     -11.892  12.155  64.688  1.00  0.00    -0.328 C  
HETATM   31  H   UNL     1     -12.463  12.512  66.537  1.00  0.00     0.000 HD 
HETATM   32  O   UNL     1     -11.789  11.995  66.113  1.00  0.00    -0.546 OA 
BRANCH  30  33
HETATM   33  C   UNL     1     -11.766  13.642  64.315  1.00  0.00    -0.403 C  
HETATM   34  O   UNL     1     -12.451  13.936  63.099  1.00  0.00    -1.121 OA 
HETATM   35  H   UNL     1     -12.373  14.854  62.868  1.00  0.00     0.000 HD 
ENDBRANCH  30  33
ENDBRANCH  29  30
ENDBRANCH  28  29
ENDBRANCH  13  25
ENDBRANCH   4   5
BRANCH   4  36
HETATM   36  C   UNL     1      -7.939   4.204  65.910  1.00  0.00    -0.094 C  
BRANCH  36  37
HETATM   37  C   UNL     1      -9.376   4.292  65.329  1.00  0.00    -0.165 C  
HETATM   38  O   UNL     1      -9.805   3.063  64.724  1.00  0.00    -0.290 OA 
HETATM   39  H   UNL     1     -10.685   3.116  64.368  1.00  0.00     0.000 HD 
BRANCH  37  40
HETATM   40  C   UNL     1     -10.437   4.657  66.373  1.00  0.00    -0.163 C  
HETATM   41  O   UNL     1     -11.380   5.568  65.796  1.00  0.00    -0.649 OA 
HETATM   42  H   UNL     1     -12.037   5.795  66.443  1.00  0.00     0.000 HD 
ENDBRANCH  37  40
ENDBRANCH  36  37
ENDBRANCH   4  36
TORSDOF 12
ENDMDL
MODEL       82
REMARK 921   NORMALIZED FREE ENERGY PREDICTED BY IDOCK:   -3.62 KCAL/MOL
REMARK 922        TOTAL FREE ENERGY PREDICTED BY IDOCK:   -7.36 KCAL/MOL
REMARK 923 INTER-LIGAND FREE ENERGY PREDICTED BY IDOCK:   -7.38 KCAL/MOL
REMARK 924 INTRA-LIGAND FREE ENERGY PREDICTED BY IDOCK:    0.02 KCAL/MOL
REMARK 927      BINDING AFFINITY PREDICTED BY RF-SCORE:    0.00 PKD
ROOT
HETATM    1  C   UNL     1     -11.295  13.661  64.853  1.00  0.00    -0.353 C  
HETATM    2  C   UNL     1     -11.191  12.375  65.626  1.00  0.00    -0.322 C  
HETATM    3  O   UNL     1     -12.086  11.530  65.534  1.00  0.00    -0.059 OA 
HETATM    4  N   UNL     1     -10.067  12.201  66.440  1.00  0.00    -0.216 N  
ENDROOT
BRANCH   4   5
HETATM    5  C   UNL     1      -9.956  10.940  67.113  1.00  0.00    -0.189 A  
HETATM    6  C   UNL     1     -10.071   8.376  68.249  1.00  0.00    -0.199 A  
HETATM    7  C   UNL     1      -9.280   9.862  66.483  1.00  0.00    -0.155 A  
HETATM    8  C   UNL     1     -10.569  10.757  68.379  1.00  0.00    -0.197 A  
HETATM    9  I   UNL     1     -11.354  12.498  69.409  1.00  0.00    -0.098 I  
HETATM   10  I   UNL     1      -8.138  10.310  64.698  1.00  0.00    -0.025 I  
HETATM   11  C   UNL     1     -10.645   9.468  68.955  1.00  0.00    -0.239 A  
HETATM   12  I   UNL     1     -10.548   6.352  68.893  1.00  0.00    -0.413 I  
HETATM   13  C   UNL     1      -9.329   8.569  67.043  1.00  0.00    -0.204 A  
BRANCH  11  14
HETATM   14  C   UNL     1     -11.439   9.275  70.206  1.00  0.00    -0.162 C  
HETATM   15  O   UNL     1     -12.616   9.616  70.254  1.00  0.00     0.052 OA 
HETATM   16  N   UNL     1     -10.787   8.705  71.276  1.00  0.00    -0.242 N  
HETATM   17  H   UNL     1      -9.813   8.419  71.175  1.00  0.00     0.000 HD 
BRANCH  16  18
HETATM   18  C   UNL     1     -11.466   8.502  72.555  1.00  0.00    -0.298 C  
BRANCH  18  19
HETATM   19  C   UNL     1     -10.887   7.312  73.327  1.00  0.00    -0.358 C  
HETATM   20  H   UNL     1     -11.052   5.355  73.258  1.00  0.00     0.000 HD 
HETATM   21  O   UNL     1     -11.411   6.093  72.779  1.00  0.00    -0.254 OA 
BRANCH  19  22
HETATM   22  C   UNL     1      -9.352   7.308  73.286  1.00  0.00    -0.182 C  
HETATM   23  O   UNL     1      -8.835   8.610  73.012  1.00  0.00    -0.355 OA 
HETATM   24  H   UNL     1      -7.885   8.607  72.986  1.00  0.00     0.000 HD 
ENDBRANCH  19  22
ENDBRANCH  18  19
ENDBRANCH  16  18
ENDBRANCH  11  14
BRANCH  13  25
HETATM   25  C   UNL     1      -8.571   7.414  66.455  1.00  0.00    -0.132 C  
HETATM   26  O   UNL     1      -7.420   7.203  66.820  1.00  0.00    -0.085 OA 
HETATM   27  H   UNL     1     -10.171   6.790  65.262  1.00  0.00     0.000 HD 
HETATM   28  N   UNL     1      -9.195   6.622  65.508  1.00  0.00     0.177 N  
BRANCH  28  29
HETATM   29  C   UNL     1      -8.452   5.545  64.864  1.00  0.00    -0.139 C  
BRANCH  29  30
HETATM   30  C   UNL     1      -9.112   4.172  65.052  1.00  0.00    -0.143 C  
HETATM   31  H   UNL     1      -9.780   3.107  66.565  1.00  0.00     0.000 HD 
HETATM   32  O   UNL     1      -9.372   3.956  66.449  1.00  0.00    -0.159 OA 
BRANCH  30  33
HETATM   33  C   UNL     1     -10.421   4.072  64.251  1.00  0.00    -0.190 C  
HETATM   34  O   UNL     1     -11.549   4.435  65.046  1.00  0.00    -1.067 OA 
HETATM   35  H   UNL     1     -12.358   4.373  64.551  1.00  0.00     0.000 HD 
ENDBRANCH  30  33
ENDBRANCH  29  30
ENDBRANCH  28  29
ENDBRANCH  13  25
ENDBRANCH   4   5
BRANCH   4  36
HETATM   36  C   UNL     1      -8.972  13.195  66.612  1.00  0.00    -0.125 C  
BRANCH  36  37
HETATM   37  C   UNL     1      -7.824  12.829  67.591  1.00  0.00    -0.165 C  
HETATM   38  O   UNL     1      -6.567  12.637  66.924  1.00  0.00    -0.444 OA 
HETATM   39  H   UNL     1      -5.865  12.413  67.524  1.00  0.00     0.000 HD 
BRANCH  37  40
HETATM   40  C   UNL     1      -7.585  13.883  68.676  1.00  0.00    -0.130 C  
HETATM   41  O   UNL     1      -8.822  14.533  68.992  1.00  0.00    -0.310 OA 
HETATM   42  H   UNL     1      -8.673  15.187  69.664  1.00  0.00     0.000 HD 
ENDBRANCH  37  40
ENDBRANCH  36  37
ENDBRANCH   4  36
TORSDOF 12
ENDMDL
MODEL       83
REMARK 921   NORMALIZED FREE ENERGY PREDICTED BY IDOCK:   -3.60 KCAL/MOL
REMARK 922        TOTAL FREE ENERGY PREDICTED BY IDOCK:   -7.33 KCAL/MOL
REMARK 923 INTER-LIGAND FREE ENERGY PREDICTED BY IDOCK:   -6.40 KCAL/MOL
REMARK 924 INTRA-LIGAND FREE ENERGY PREDICTED BY IDOCK:   -0.93 KCAL/MOL
REMARK 927      BINDING AFFINITY PREDICTED BY RF-SCORE:    0.00 PKD
ROOT
HETATM    1  C   UNL     1      -6.831   1.686  68.444  1.00  0.00    -0.032 C  
HETATM    2  C   UNL     1      -7.022   3.133  68.805  1.00  0.00    -0.048 C  
HETATM    3  O   UNL     1      -6.147   3.727  69.441  1.00  0.00    -0.025 OA 
HETATM    4  N   UNL     1      -8.214   3.745  68.408  1.00  0.00    -0.078 N  
ENDROOT
BRANCH   4   5
HETATM    5  C   UNL     1      -8.344   5.142  68.703  1.00  0.00    -0.088 A  
HETATM    6  C   UNL     1      -8.920   7.867  69.058  1.00  0.00    -0.145 A  
HETATM    7  C   UNL     1      -9.122   5.556  69.817  1.00  0.00    -0.132 A  
HETATM    8  C   UNL     1      -7.745   6.105  67.853  1.00  0.00    -0.102 A  
HETATM    9  I   UNL     1      -6.357   5.420  66.332  1.00  0.00    -0.042 I  
HETATM   10  I   UNL     1      -9.756   4.027  71.213  1.00  0.00    -0.162 I  
HETATM   11  C   UNL     1      -8.038   7.479  68.012  1.00  0.00    -0.124 A  
HETATM   12  I   UNL     1      -9.716   9.892  69.053  1.00  0.00    -0.252 I  
HETATM   13  C   UNL     1      -9.419   6.921  70.007  1.00  0.00    -0.158 A  
BRANCH  11  14
HETATM   14  C   UNL     1      -7.526   8.455  67.004  1.00  0.00    -0.088 C  
HETATM   15  O   UNL     1      -8.074   8.564  65.912  1.00  0.00    -0.106 OA 
HETATM   16  N   UNL     1      -6.430   9.206  67.363  1.00  0.00    -0.063 N  
HETATM   17  H   UNL     1      -6.026   9.091  68.293  1.00  0.00     0.000 HD 
BRANCH  16  18
HETATM   18  C   UNL     1      -5.834  10.167  66.435  1.00  0.00    -0.062 C  
BRANCH  18  19
HETATM   19  C   UNL     1      -6.103  11.614  66.860  1.00  0.00    -0.148 C  
HETATM   20  H   UNL     1      -7.681  12.769  67.057  1.00  0.00     0.000 HD 
HETATM   21  O   UNL     1      -7.514  11.872  66.793  1.00  0.00    -0.113 OA 
BRANCH  19  22
HETATM   22  C   UNL     1      -5.568  11.895  68.272  1.00  0.00    -0.050 C  
HETATM   23  O   UNL     1      -6.555  11.623  69.267  1.00  0.00    -0.092 OA 
HETATM   24  H   UNL     1      -6.223  11.797  70.140  1.00  0.00     0.000 HD 
ENDBRANCH  19  22
ENDBRANCH  18  19
ENDBRANCH  16  18
ENDBRANCH  11  14
BRANCH  13  25
HETATM   25  C   UNL     1     -10.174   7.416  71.206  1.00  0.00    -0.188 C  
HETATM   26  O   UNL     1      -9.567   7.638  72.249  1.00  0.00    -0.152 OA 
HETATM   27  H   UNL     1     -12.011   7.456  70.209  1.00  0.00     0.000 HD 
HETATM   28  N   UNL     1     -11.541   7.600  71.103  1.00  0.00    -0.276 N  
BRANCH  28  29
HETATM   29  C   UNL     1     -12.307   8.001  72.277  1.00  0.00    -0.291 C  
BRANCH  29  30
HETATM   30  C   UNL     1     -13.423   9.001  71.945  1.00  0.00    -0.425 C  
HETATM   31  H   UNL     1     -15.037   9.685  72.839  1.00  0.00     0.000 HD 
HETATM   32  O   UNL     1     -14.347   9.067  73.044  1.00  0.00    -0.462 OA 
BRANCH  30  33
HETATM   33  C   UNL     1     -12.849  10.398  71.655  1.00  0.00    -0.474 C  
HETATM   34  O   UNL     1     -13.481  11.398  72.451  1.00  0.00    -0.585 OA 
HETATM   35  H   UNL     1     -13.127  12.261  72.273  1.00  0.00     0.000 HD 
ENDBRANCH  30  33
ENDBRANCH  29  30
ENDBRANCH  28  29
ENDBRANCH  13  25
ENDBRANCH   4   5
BRANCH   4  36
HETATM   36  C   UNL     1      -9.317   3.073  67.665  1.00  0.00    -0.195 C  
BRANCH  36  37
HETATM   37  C   UNL     1      -9.322   3.208  66.119  1.00  0.00    -0.095 C  
HETATM   38  O   UNL     1      -9.632   1.974  65.456  1.00  0.00    -0.343 OA 
HETATM   39  H   UNL     1      -9.635   2.057  64.509  1.00  0.00     0.000 HD 
BRANCH  37  40
HETATM   40  C   UNL     1     -10.323   4.246  65.599  1.00  0.00    -0.172 C  
HETATM   41  O   UNL     1     -11.077   3.683  64.520  1.00  0.00    -0.629 OA 
HETATM   42  H   UNL     1     -11.697   4.327  64.197  1.00  0.00     0.000 HD 
ENDBRANCH  37  40
ENDBRANCH  36  37
ENDBRANCH   4  36
TORSDOF 12
ENDMDL
MODEL       84
REMARK 921   NORMALIZED FREE ENERGY PREDICTED BY IDOCK:   -3.54 KCAL/MOL
REMARK 922        TOTAL FREE ENERGY PREDICTED BY IDOCK:   -7.23 KCAL/MOL
REMARK 923 INTER-LIGAND FREE ENERGY PREDICTED BY IDOCK:   -7.18 KCAL/MOL
REMARK 924 INTRA-LIGAND FREE ENERGY PREDICTED BY IDOCK:   -0.05 KCAL/MOL
REMARK 927      BINDING AFFINITY PREDICTED BY RF-SCORE:    0.00 PKD
ROOT
HETATM    1  C   UNL     1      -7.787   2.785  65.400  1.00  0.00    -0.081 C  
HETATM    2  C   UNL     1      -8.496   4.069  65.733  1.00  0.00    -0.109 C  
HETATM    3  O   UNL     1      -9.713   4.160  65.554  1.00  0.00    -0.174 OA 
HETATM    4  N   UNL     1      -7.723   5.123  66.227  1.00  0.00    -0.088 N  
ENDROOT
BRANCH   4   5
HETATM    5  C   UNL     1      -8.430   6.313  66.601  1.00  0.00    -0.114 A  
HETATM    6  C   UNL     1      -9.486   8.747  67.518  1.00  0.00    -0.141 A  
HETATM    7  C   UNL     1      -8.351   7.467  65.777  1.00  0.00    -0.139 A  
HETATM    8  C   UNL     1      -9.158   6.352  67.817  1.00  0.00    -0.111 A  
HETATM    9  I   UNL     1      -9.464   4.495  68.898  1.00  0.00    -0.202 I  
HETATM   10  I   UNL     1      -7.465   7.232  63.814  1.00  0.00    -0.103 I  
HETATM   11  C   UNL     1      -9.682   7.574  68.296  1.00  0.00    -0.163 A  
HETATM   12  I   UNL     1      -9.896  10.682  68.426  1.00  0.00    -0.205 I  
HETATM   13  C   UNL     1      -8.877   8.696  66.225  1.00  0.00    -0.187 A  
BRANCH  11  14
HETATM   14  C   UNL     1     -10.298   7.619  69.656  1.00  0.00    -0.213 C  
HETATM   15  O   UNL     1     -11.512   7.512  69.791  1.00  0.00    -0.061 OA 
HETATM   16  N   UNL     1      -9.444   7.783  70.723  1.00  0.00    -0.161 N  
HETATM   17  H   UNL     1      -8.439   7.844  70.556  1.00  0.00     0.000 HD 
BRANCH  16  18
HETATM   18  C   UNL     1      -9.951   7.871  72.093  1.00  0.00    -0.207 C  
BRANCH  18  19
HETATM   19  C   UNL     1      -9.697   6.582  72.880  1.00  0.00    -0.154 C  
HETATM   20  H   UNL     1      -9.458   6.092  74.768  1.00  0.00     0.000 HD 
HETATM   21  O   UNL     1      -9.616   6.891  74.280  1.00  0.00    -0.241 OA 
BRANCH  19  22
HETATM   22  C   UNL     1     -10.793   5.538  72.620  1.00  0.00    -0.257 C  
HETATM   23  O   UNL     1     -12.095   6.097  72.785  1.00  0.00    -0.514 OA 
HETATM   24  H   UNL     1     -12.773   5.451  72.625  1.00  0.00     0.000 HD 
ENDBRANCH  19  22
ENDBRANCH  18  19
ENDBRANCH  16  18
ENDBRANCH  11  14
BRANCH  13  25
HETATM   25  C   UNL     1      -8.885   9.924  65.363  1.00  0.00    -0.168 C  
HETATM   26  O   UNL     1      -7.906  10.664  65.361  1.00  0.00    -0.143 OA 
HETATM   27  H   UNL     1     -10.784   9.534  64.580  1.00  0.00     0.000 HD 
HETATM   28  N   UNL     1     -10.006  10.193  64.597  1.00  0.00    -0.305 N  
BRANCH  28  29
HETATM   29  C   UNL     1     -10.069  11.423  63.816  1.00  0.00    -0.362 C  
BRANCH  29  30
HETATM   30  C   UNL     1     -10.998  12.474  64.437  1.00  0.00    -0.340 C  
HETATM   31  H   UNL     1     -10.869  14.373  64.939  1.00  0.00     0.000 HD 
HETATM   32  O   UNL     1     -10.294  13.722  64.555  1.00  0.00    -0.437 OA 
BRANCH  30  33
HETATM   33  C   UNL     1     -12.267  12.664  63.588  1.00  0.00    -0.536 C  
HETATM   34  O   UNL     1     -12.454  14.030  63.225  1.00  0.00    -1.139 OA 
HETATM   35  H   UNL     1     -13.237  14.148  62.701  1.00  0.00     0.000 HD 
ENDBRANCH  30  33
ENDBRANCH  29  30
ENDBRANCH  28  29
ENDBRANCH  13  25
ENDBRANCH   4   5
BRANCH   4  36
HETATM   36  C   UNL     1      -6.248   5.081  66.436  1.00  0.00    -0.035 C  
BRANCH  36  37
HETATM   37  C   UNL     1      -5.739   4.912  67.892  1.00  0.00    -0.017 C  
HETATM   38  O   UNL     1      -6.127   6.000  68.745  1.00  0.00    -0.028 OA 
HETATM   39  H   UNL     1      -5.816   5.897  69.636  1.00  0.00     0.000 HD 
BRANCH  37  40
HETATM   40  C   UNL     1      -6.234   3.630  68.570  1.00  0.00    -0.032 C  
HETATM   41  O   UNL     1      -5.459   2.517  68.110  1.00  0.00    -0.016 OA 
HETATM   42  H   UNL     1      -5.767   1.722  68.530  1.00  0.00     0.000 HD 
ENDBRANCH  37  40
ENDBRANCH  36  37
ENDBRANCH   4  36
TORSDOF 12
ENDMDL
MODEL       85
REMARK 921   NORMALIZED FREE ENERGY PREDICTED BY IDOCK:   -3.50 KCAL/MOL
REMARK 922        TOTAL FREE ENERGY PREDICTED BY IDOCK:   -7.16 KCAL/MOL
REMARK 923 INTER-LIGAND FREE ENERGY PREDICTED BY IDOCK:   -6.20 KCAL/MOL
REMARK 924 INTRA-LIGAND FREE ENERGY PREDICTED BY IDOCK:   -0.96 KCAL/MOL
REMARK 927      BINDING AFFINITY PREDICTED BY RF-SCORE:    0.00 PKD
ROOT
HETATM    1  C   UNL     1     -10.714  12.352  67.877  1.00  0.00    -0.245 C  
HETATM    2  C   UNL     1     -10.509  10.862  67.906  1.00  0.00    -0.195 C  
HETATM    3  O   UNL     1     -11.484  10.109  67.851  1.00  0.00    -0.283 OA 
HETATM    4  N   UNL     1      -9.196  10.394  68.012  1.00  0.00    -0.138 N  
ENDROOT
BRANCH   4   5
HETATM    5  C   UNL     1      -9.020   8.972  67.970  1.00  0.00    -0.132 A  
HETATM    6  C   UNL     1      -8.295   6.260  67.946  1.00  0.00    -0.118 A  
HETATM    7  C   UNL     1      -9.074   8.220  69.174  1.00  0.00    -0.148 A  
HETATM    8  C   UNL     1      -8.738   8.329  66.739  1.00  0.00    -0.133 A  
HETATM    9  I   UNL     1      -8.928   9.476  64.906  1.00  0.00    -0.205 I  
HETATM   10  I   UNL     1      -9.790   9.233  70.950  1.00  0.00    -0.216 I  
HETATM   11  C   UNL     1      -8.358   6.968  66.715  1.00  0.00    -0.116 A  
HETATM   12  I   UNL     1      -7.311   4.320  67.985  1.00  0.00    -0.064 I  
HETATM   13  C   UNL     1      -8.713   6.858  69.176  1.00  0.00    -0.135 A  
BRANCH  11  14
HETATM   14  C   UNL     1      -7.906   6.360  65.427  1.00  0.00    -0.105 C  
HETATM   15  O   UNL     1      -6.762   6.540  65.023  1.00  0.00    -0.041 OA 
HETATM   16  N   UNL     1      -8.827   5.604  64.737  1.00  0.00    -0.358 N  
HETATM   17  H   UNL     1      -9.759   5.468  65.130  1.00  0.00     0.000 HD 
BRANCH  16  18
HETATM   18  C   UNL     1      -8.492   4.992  63.451  1.00  0.00    -0.123 C  
BRANCH  18  19
HETATM   19  C   UNL     1      -8.778   3.487  63.443  1.00  0.00    -0.094 C  
HETATM   20  H   UNL     1      -8.447   1.970  64.648  1.00  0.00     0.000 HD 
HETATM   21  O   UNL     1      -8.270   2.903  64.653  1.00  0.00    -0.085 OA 
BRANCH  19  22
HETATM   22  C   UNL     1     -10.279   3.200  63.292  1.00  0.00    -0.175 C  
HETATM   23  O   UNL     1     -11.068   4.287  63.774  1.00  0.00    -0.395 OA 
HETATM   24  H   UNL     1     -11.997   4.109  63.681  1.00  0.00     0.000 HD 
ENDBRANCH  19  22
ENDBRANCH  18  19
ENDBRANCH  16  18
ENDBRANCH  11  14
BRANCH  13  25
HETATM   25  C   UNL     1      -8.824   6.003  70.405  1.00  0.00    -0.148 C  
HETATM   26  O   UNL     1      -7.919   6.021  71.233  1.00  0.00    -0.109 OA 
HETATM   27  H   UNL     1     -10.705   5.253  69.885  1.00  0.00     0.000 HD 
HETATM   28  N   UNL     1      -9.945   5.209  70.564  1.00  0.00    -0.216 N  
BRANCH  28  29
HETATM   29  C   UNL     1     -10.037   4.309  71.708  1.00  0.00    -0.157 C  
BRANCH  29  30
HETATM   30  C   UNL     1     -11.094   4.753  72.729  1.00  0.00    -0.170 C  
HETATM   31  H   UNL     1     -12.171   3.891  74.132  1.00  0.00     0.000 HD 
HETATM   32  O   UNL     1     -11.518   3.616  73.501  1.00  0.00    -0.212 OA 
BRANCH  30  33
HETATM   33  C   UNL     1     -10.540   5.844  73.661  1.00  0.00    -0.272 C  
HETATM   34  O   UNL     1     -11.136   7.112  73.393  1.00  0.00    -0.540 OA 
HETATM   35  H   UNL     1     -10.794   7.786  73.968  1.00  0.00     0.000 HD 
ENDBRANCH  30  33
ENDBRANCH  29  30
ENDBRANCH  28  29
ENDBRANCH  13  25
ENDBRANCH   4   5
BRANCH   4  36
HETATM   36  C   UNL     1      -7.984  11.255  68.112  1.00  0.00    -0.131 C  
BRANCH  36  37
HETATM   37  C   UNL     1      -7.001  10.969  69.278  1.00  0.00    -0.116 C  
HETATM   38  O   UNL     1      -5.971  10.037  68.919  1.00  0.00    -0.035 OA 
HETATM   39  H   UNL     1      -5.368   9.862  69.633  1.00  0.00     0.000 HD 
BRANCH  37  40
HETATM   40  C   UNL     1      -6.291  12.223  69.802  1.00  0.00    -0.091 C  
HETATM   41  O   UNL     1      -5.912  12.022  71.168  1.00  0.00    -0.496 OA 
HETATM   42  H   UNL     1      -5.473  12.799  71.492  1.00  0.00     0.000 HD 
ENDBRANCH  37  40
ENDBRANCH  36  37
ENDBRANCH   4  36
TORSDOF 12
ENDMDL
MODEL       86
REMARK 921   NORMALIZED FREE ENERGY PREDICTED BY IDOCK:   -3.50 KCAL/MOL
REMARK 922        TOTAL FREE ENERGY PREDICTED BY IDOCK:   -7.15 KCAL/MOL
REMARK 923 INTER-LIGAND FREE ENERGY PREDICTED BY IDOCK:   -5.96 KCAL/MOL
REMARK 924 INTRA-LIGAND FREE ENERGY PREDICTED BY IDOCK:   -1.19 KCAL/MOL
REMARK 927      BINDING AFFINITY PREDICTED BY RF-SCORE:    0.00 PKD
ROOT
HETATM    1  C   UNL     1     -11.249  17.148  68.252  1.00  0.00     0.028 C  
HETATM    2  C   UNL     1     -11.518  15.683  68.045  1.00  0.00    -0.291 C  
HETATM    3  O   UNL     1     -12.471  15.327  67.346  1.00  0.00     0.521 OA 
HETATM    4  N   UNL     1     -10.665  14.774  68.679  1.00  0.00    -0.245 N  
ENDROOT
BRANCH   4   5
HETATM    5  C   UNL     1     -10.900  13.386  68.412  1.00  0.00    -0.264 A  
HETATM    6  C   UNL     1     -11.014  10.602  68.066  1.00  0.00    -0.282 A  
HETATM    7  C   UNL     1     -11.559  12.584  69.382  1.00  0.00    -0.305 A  
HETATM    8  C   UNL     1     -10.424  12.805  67.210  1.00  0.00    -0.232 A  
HETATM    9  I   UNL     1      -9.664  14.117  65.657  1.00  0.00     0.132 I  
HETATM   10  I   UNL     1     -12.498  13.604  71.046  1.00  0.00    -0.219 I  
HETATM   11  C   UNL     1     -10.463  11.403  67.030  1.00  0.00    -0.271 A  
HETATM   12  I   UNL     1     -10.696   8.450  68.002  1.00  0.00     0.198 I  
HETATM   13  C   UNL     1     -11.624  11.185  69.220  1.00  0.00    -0.388 A  
BRANCH  11  14
HETATM   14  C   UNL     1      -9.806  10.804  65.829  1.00  0.00    -0.240 C  
HETATM   15  O   UNL     1     -10.463  10.543  64.827  1.00  0.00    -0.304 OA 
HETATM   16  N   UNL     1      -8.452  10.568  65.912  1.00  0.00    -0.157 N  
HETATM   17  H   UNL     1      -7.949  10.825  66.761  1.00  0.00     0.000 HD 
BRANCH  16  18
HETATM   18  C   UNL     1      -7.722   9.955  64.802  1.00  0.00    -0.138 C  
BRANCH  18  19
HETATM   19  C   UNL     1      -6.209   9.956  65.044  1.00  0.00    -0.102 C  
HETATM   20  H   UNL     1      -4.619  10.635  64.109  1.00  0.00     0.000 HD 
HETATM   21  O   UNL     1      -5.557  10.635  63.959  1.00  0.00    -0.143 OA 
BRANCH  19  22
HETATM   22  C   UNL     1      -5.854  10.615  66.385  1.00  0.00    -0.092 C  
HETATM   23  O   UNL     1      -5.878  12.039  66.289  1.00  0.00    -0.488 OA 
HETATM   24  H   UNL     1      -5.658  12.446  67.119  1.00  0.00     0.000 HD 
ENDBRANCH  19  22
ENDBRANCH  18  19
ENDBRANCH  16  18
ENDBRANCH  11  14
BRANCH  13  25
HETATM   25  C   UNL     1     -12.373  10.304  70.177  1.00  0.00    -0.142 C  
HETATM   26  O   UNL     1     -13.552  10.046  69.961  1.00  0.00     0.288 OA 
HETATM   27  H   UNL     1     -10.714  10.001  71.415  1.00  0.00     0.000 HD 
HETATM   28  N   UNL     1     -11.709   9.812  71.287  1.00  0.00    -0.368 N  
BRANCH  28  29
HETATM   29  C   UNL     1     -12.437   9.022  72.273  1.00  0.00    -0.357 C  
BRANCH  29  30
HETATM   30  C   UNL     1     -11.801   7.647  72.519  1.00  0.00    -0.263 C  
HETATM   31  H   UNL     1     -11.634   5.955  71.528  1.00  0.00     0.000 HD 
HETATM   32  O   UNL     1     -12.027   6.805  71.376  1.00  0.00    -0.319 OA 
BRANCH  30  33
HETATM   33  C   UNL     1     -10.292   7.774  72.789  1.00  0.00    -0.313 C  
HETATM   34  O   UNL     1      -9.522   7.228  71.719  1.00  0.00    -0.150 OA 
HETATM   35  H   UNL     1      -8.590   7.306  71.885  1.00  0.00     0.000 HD 
ENDBRANCH  30  33
ENDBRANCH  29  30
ENDBRANCH  28  29
ENDBRANCH  13  25
ENDBRANCH   4   5
BRANCH   4  36
HETATM   36  C   UNL     1      -9.519  15.144  69.555  1.00  0.00    -0.145 C  
BRANCH  36  37
HETATM   37  C   UNL     1      -8.136  15.339  68.877  1.00  0.00    -0.180 C  
HETATM   38  O   UNL     1      -7.407  16.452  69.415  1.00  0.00    -0.233 OA 
HETATM   39  H   UNL     1      -6.561  16.572  68.999  1.00  0.00     0.000 HD 
BRANCH  37  40
HETATM   40  C   UNL     1      -7.218  14.118  68.994  1.00  0.00    -0.110 C  
HETATM   41  O   UNL     1      -6.903  13.888  70.372  1.00  0.00    -0.385 OA 
HETATM   42  H   UNL     1      -6.333  13.132  70.445  1.00  0.00     0.000 HD 
ENDBRANCH  37  40
ENDBRANCH  36  37
ENDBRANCH   4  36
TORSDOF 12
ENDMDL
MODEL       87
REMARK 921   NORMALIZED FREE ENERGY PREDICTED BY IDOCK:   -3.49 KCAL/MOL
REMARK 922        TOTAL FREE ENERGY PREDICTED BY IDOCK:   -7.14 KCAL/MOL
REMARK 923 INTER-LIGAND FREE ENERGY PREDICTED BY IDOCK:   -6.34 KCAL/MOL
REMARK 924 INTRA-LIGAND FREE ENERGY PREDICTED BY IDOCK:   -0.81 KCAL/MOL
REMARK 927      BINDING AFFINITY PREDICTED BY RF-SCORE:    0.00 PKD
ROOT
HETATM    1  C   UNL     1     -10.930   5.608  70.333  1.00  0.00    -0.278 C  
HETATM    2  C   UNL     1     -10.480   6.232  69.041  1.00  0.00    -0.237 C  
HETATM    3  O   UNL     1     -11.208   6.177  68.047  1.00  0.00    -0.310 OA 
HETATM    4  N   UNL     1      -9.223   6.845  69.024  1.00  0.00    -0.138 N  
ENDROOT
BRANCH   4   5
HETATM    5  C   UNL     1      -8.844   7.491  67.802  1.00  0.00    -0.132 A  
HETATM    6  C   UNL     1      -8.470   8.689  65.291  1.00  0.00    -0.179 A  
HETATM    7  C   UNL     1      -9.040   8.890  67.655  1.00  0.00    -0.134 A  
HETATM    8  C   UNL     1      -8.329   6.725  66.725  1.00  0.00    -0.115 A  
HETATM    9  I   UNL     1      -7.805   4.651  67.091  1.00  0.00    -0.094 I  
HETATM   10  I   UNL     1      -9.557  10.016  69.432  1.00  0.00    -0.224 I  
HETATM   11  C   UNL     1      -8.150   7.313  65.453  1.00  0.00    -0.133 A  
HETATM   12  I   UNL     1      -8.613   9.495  63.275  1.00  0.00    -0.188 I  
HETATM   13  C   UNL     1      -8.855   9.505  66.400  1.00  0.00    -0.164 A  
BRANCH  11  14
HETATM   14  C   UNL     1      -7.765   6.447  64.298  1.00  0.00    -0.108 C  
HETATM   15  O   UNL     1      -6.599   6.396  63.922  1.00  0.00    -0.032 OA 
HETATM   16  N   UNL     1      -8.772   5.728  63.695  1.00  0.00    -0.336 N  
HETATM   17  H   UNL     1      -9.722   5.790  64.062  1.00  0.00     0.000 HD 
BRANCH  16  18
HETATM   18  C   UNL     1      -8.504   4.875  62.537  1.00  0.00    -0.107 C  
BRANCH  18  19
HETATM   19  C   UNL     1      -8.738   3.394  62.851  1.00  0.00    -0.089 C  
HETATM   20  H   UNL     1      -7.695   1.925  63.636  1.00  0.00     0.000 HD 
HETATM   21  O   UNL     1      -7.550   2.843  63.441  1.00  0.00    -0.060 OA 
BRANCH  19  22
HETATM   22  C   UNL     1      -9.944   3.200  63.782  1.00  0.00    -0.165 C  
HETATM   23  O   UNL     1      -9.676   2.220  64.785  1.00  0.00    -0.310 OA 
HETATM   24  H   UNL     1     -10.422   2.100  65.360  1.00  0.00     0.000 HD 
ENDBRANCH  19  22
ENDBRANCH  18  19
ENDBRANCH  16  18
ENDBRANCH  11  14
BRANCH  13  25
HETATM   25  C   UNL     1      -8.978  10.988  66.210  1.00  0.00    -0.185 C  
HETATM   26  O   UNL     1      -7.991  11.699  66.373  1.00  0.00    -0.112 OA 
HETATM   27  H   UNL     1     -11.000  10.896  65.684  1.00  0.00     0.000 HD 
HETATM   28  N   UNL     1     -10.209  11.515  65.863  1.00  0.00    -0.235 N  
BRANCH  28  29
HETATM   29  C   UNL     1     -10.372  12.961  65.754  1.00  0.00    -0.284 C  
BRANCH  29  30
HETATM   30  C   UNL     1     -11.760  13.438  66.200  1.00  0.00    -0.368 C  
HETATM   31  H   UNL     1     -13.627  13.042  65.720  1.00  0.00     0.000 HD 
HETATM   32  O   UNL     1     -12.768  12.747  65.443  1.00  0.00    -0.621 OA 
BRANCH  30  33
HETATM   33  C   UNL     1     -11.973  13.195  67.704  1.00  0.00    -0.315 C  
HETATM   34  O   UNL     1     -10.974  13.849  68.485  1.00  0.00    -0.240 OA 
HETATM   35  H   UNL     1     -11.105  13.700  69.414  1.00  0.00     0.000 HD 
ENDBRANCH  30  33
ENDBRANCH  29  30
ENDBRANCH  28  29
ENDBRANCH  13  25
ENDBRANCH   4   5
BRANCH   4  36
HETATM   36  C   UNL     1      -8.289   6.917  70.182  1.00  0.00    -0.135 C  
BRANCH  36  37
HETATM   37  C   UNL     1      -7.567   5.608  70.598  1.00  0.00    -0.090 C  
HETATM   38  O   UNL     1      -6.157   5.644  70.330  1.00  0.00    -0.024 OA 
HETATM   39  H   UNL     1      -5.715   4.842  70.585  1.00  0.00     0.000 HD 
BRANCH  37  40
HETATM   40  C   UNL     1      -7.720   5.270  72.085  1.00  0.00    -0.100 C  
HETATM   41  O   UNL     1      -7.436   6.432  72.871  1.00  0.00    -0.093 OA 
HETATM   42  H   UNL     1      -7.530   6.222  73.792  1.00  0.00     0.000 HD 
ENDBRANCH  37  40
ENDBRANCH  36  37
ENDBRANCH   4  36
TORSDOF 12
ENDMDL
MODEL       88
REMARK 921   NORMALIZED FREE ENERGY PREDICTED BY IDOCK:   -3.48 KCAL/MOL
REMARK 922        TOTAL FREE ENERGY PREDICTED BY IDOCK:   -7.13 KCAL/MOL
REMARK 923 INTER-LIGAND FREE ENERGY PREDICTED BY IDOCK:   -6.19 KCAL/MOL
REMARK 924 INTRA-LIGAND FREE ENERGY PREDICTED BY IDOCK:   -0.94 KCAL/MOL
REMARK 927      BINDING AFFINITY PREDICTED BY RF-SCORE:    0.00 PKD
ROOT
HETATM    1  C   UNL     1     -13.278  14.490  70.201  1.00  0.00     0.259 C  
HETATM    2  C   UNL     1     -11.812  14.352  69.895  1.00  0.00    -0.323 C  
HETATM    3  O   UNL     1     -10.976  14.669  70.745  1.00  0.00    -0.050 OA 
HETATM    4  N   UNL     1     -11.460  13.873  68.629  1.00  0.00    -0.276 N  
ENDROOT
BRANCH   4   5
HETATM    5  C   UNL     1     -10.060  13.686  68.385  1.00  0.00    -0.241 A  
HETATM    6  C   UNL     1      -7.269  13.400  68.286  1.00  0.00    -0.111 A  
HETATM    7  C   UNL     1      -9.479  12.403  68.565  1.00  0.00    -0.098 A  
HETATM    8  C   UNL     1      -9.251  14.792  68.019  1.00  0.00    -0.194 A  
HETATM    9  I   UNL     1     -10.226  16.661  67.502  1.00  0.00    -0.295 I  
HETATM   10  I   UNL     1     -10.826  10.730  68.840  1.00  0.00    -0.363 I  
HETATM   11  C   UNL     1      -7.844  14.664  67.980  1.00  0.00    -0.136 A  
HETATM   12  I   UNL     1      -5.127  13.290  68.651  1.00  0.00    -0.088 I  
HETATM   13  C   UNL     1      -8.079  12.245  68.518  1.00  0.00    -0.101 A  
BRANCH  11  14
HETATM   14  C   UNL     1      -7.007  15.882  67.755  1.00  0.00    -0.149 C  
HETATM   15  O   UNL     1      -6.536  16.116  66.648  1.00  0.00    -0.250 OA 
HETATM   16  N   UNL     1      -6.802  16.705  68.839  1.00  0.00    -0.178 N  
HETATM   17  H   UNL     1      -7.235  16.475  69.733  1.00  0.00     0.000 HD 
BRANCH  16  18
HETATM   18  C   UNL     1      -5.971  17.905  68.731  1.00  0.00    -0.192 C  
BRANCH  18  19
HETATM   19  C   UNL     1      -6.802  19.187  68.850  1.00  0.00    -0.322 C  
HETATM   20  H   UNL     1      -6.654  20.893  69.814  1.00  0.00     0.000 HD 
HETATM   21  O   UNL     1      -6.139  20.099  69.740  1.00  0.00    -0.317 OA 
BRANCH  19  22
HETATM   22  C   UNL     1      -7.030  19.840  67.479  1.00  0.00    -0.233 C  
HETATM   23  O   UNL     1      -7.362  18.868  66.488  1.00  0.00    -0.218 OA 
HETATM   24  H   UNL     1      -7.503  19.272  65.640  1.00  0.00     0.000 HD 
ENDBRANCH  19  22
ENDBRANCH  18  19
ENDBRANCH  16  18
ENDBRANCH  11  14
BRANCH  13  25
HETATM   25  C   UNL     1      -7.422  10.900  68.628  1.00  0.00    -0.105 C  
HETATM   26  O   UNL     1      -7.010  10.347  67.614  1.00  0.00    -0.081 OA 
HETATM   27  H   UNL     1      -7.611  10.823  70.709  1.00  0.00     0.000 HD 
HETATM   28  N   UNL     1      -7.306  10.317  69.877  1.00  0.00    -0.157 N  
BRANCH  28  29
HETATM   29  C   UNL     1      -6.746   8.976  70.000  1.00  0.00    -0.044 C  
BRANCH  29  30
HETATM   30  C   UNL     1      -7.801   7.923  70.368  1.00  0.00    -0.089 C  
HETATM   31  H   UNL     1      -8.201   6.066  69.856  1.00  0.00     0.000 HD 
HETATM   32  O   UNL     1      -7.548   6.717  69.628  1.00  0.00    -0.093 OA 
BRANCH  30  33
HETATM   33  C   UNL     1      -7.785   7.628  71.877  1.00  0.00    -0.087 C  
HETATM   34  O   UNL     1      -7.656   8.824  72.643  1.00  0.00    -0.353 OA 
HETATM   35  H   UNL     1      -7.646   8.642  73.575  1.00  0.00     0.000 HD 
ENDBRANCH  30  33
ENDBRANCH  29  30
ENDBRANCH  28  29
ENDBRANCH  13  25
ENDBRANCH   4   5
BRANCH   4  36
HETATM   36  C   UNL     1     -12.423  13.502  67.555  1.00  0.00     0.183 C  
BRANCH  36  37
HETATM   37  C   UNL     1     -11.953  13.674  66.086  1.00  0.00    -0.416 C  
HETATM   38  O   UNL     1     -11.224  12.537  65.600  1.00  0.00    -0.295 OA 
HETATM   39  H   UNL     1     -10.936  12.643  64.700  1.00  0.00     0.000 HD 
BRANCH  37  40
HETATM   40  C   UNL     1     -13.101  13.910  65.099  1.00  0.00    -0.088 C  
HETATM   41  O   UNL     1     -12.726  13.426  63.805  1.00  0.00    -0.685 OA 
HETATM   42  H   UNL     1     -13.438  13.573  63.194  1.00  0.00     0.000 HD 
ENDBRANCH  37  40
ENDBRANCH  36  37
ENDBRANCH   4  36
TORSDOF 12
ENDMDL
MODEL       89
REMARK 921   NORMALIZED FREE ENERGY PREDICTED BY IDOCK:   -3.48 KCAL/MOL
REMARK 922        TOTAL FREE ENERGY PREDICTED BY IDOCK:   -7.12 KCAL/MOL
REMARK 923 INTER-LIGAND FREE ENERGY PREDICTED BY IDOCK:   -6.83 KCAL/MOL
REMARK 924 INTRA-LIGAND FREE ENERGY PREDICTED BY IDOCK:   -0.29 KCAL/MOL
REMARK 927      BINDING AFFINITY PREDICTED BY RF-SCORE:    0.00 PKD
ROOT
HETATM    1  C   UNL     1      -7.444   6.618  64.543  1.00  0.00    -0.094 C  
HETATM    2  C   UNL     1      -8.206   7.332  65.625  1.00  0.00    -0.138 C  
HETATM    3  O   UNL     1      -9.345   6.960  65.919  1.00  0.00    -0.049 OA 
HETATM    4  N   UNL     1      -7.581   8.416  66.248  1.00  0.00    -0.085 N  
ENDROOT
BRANCH   4   5
HETATM    5  C   UNL     1      -8.299   9.038  67.321  1.00  0.00    -0.111 A  
HETATM    6  C   UNL     1      -9.988   9.993  69.349  1.00  0.00    -0.223 A  
HETATM    7  C   UNL     1      -8.158   8.541  68.643  1.00  0.00    -0.121 A  
HETATM    8  C   UNL     1      -9.190  10.108  67.051  1.00  0.00    -0.146 A  
HETATM    9  I   UNL     1      -9.168  10.997  65.071  1.00  0.00    -0.109 I  
HETATM   10  I   UNL     1      -6.576   7.107  69.006  1.00  0.00    -0.047 I  
HETATM   11  C   UNL     1     -10.055  10.588  68.060  1.00  0.00    -0.190 A  
HETATM   12  I   UNL     1     -11.581  10.409  70.773  1.00  0.00    -0.238 I  
HETATM   13  C   UNL     1      -9.000   9.012  69.672  1.00  0.00    -0.153 A  
BRANCH  11  14
HETATM   14  C   UNL     1     -11.096  11.600  67.706  1.00  0.00    -0.249 C  
HETATM   15  O   UNL     1     -12.222  11.243  67.375  1.00  0.00    -0.217 OA 
HETATM   16  N   UNL     1     -10.726  12.924  67.773  1.00  0.00    -0.221 N  
HETATM   17  H   UNL     1      -9.783  13.167  68.076  1.00  0.00     0.000 HD 
BRANCH  16  18
HETATM   18  C   UNL     1     -11.663  13.990  67.416  1.00  0.00    -0.388 C  
BRANCH  18  19
HETATM   19  C   UNL     1     -10.936  15.267  66.982  1.00  0.00    -0.324 C  
HETATM   20  H   UNL     1      -9.173  16.077  67.293  1.00  0.00     0.000 HD 
HETATM   21  O   UNL     1      -9.623  15.285  67.563  1.00  0.00    -0.206 OA 
BRANCH  19  22
HETATM   22  C   UNL     1     -10.852  15.374  65.452  1.00  0.00    -0.391 C  
HETATM   23  O   UNL     1     -10.897  16.734  65.021  1.00  0.00    -0.653 OA 
HETATM   24  H   UNL     1     -10.845  16.799  64.075  1.00  0.00     0.000 HD 
ENDBRANCH  19  22
ENDBRANCH  18  19
ENDBRANCH  16  18
ENDBRANCH  11  14
BRANCH  13  25
HETATM   25  C   UNL     1      -8.842   8.573  71.099  1.00  0.00    -0.179 C  
HETATM   26  O   UNL     1      -8.273   9.312  71.895  1.00  0.00    -0.261 OA 
HETATM   27  H   UNL     1      -9.851   6.766  70.801  1.00  0.00     0.000 HD 
HETATM   28  N   UNL     1      -9.338   7.337  71.473  1.00  0.00    -0.149 N  
BRANCH  28  29
HETATM   29  C   UNL     1      -9.124   6.854  72.832  1.00  0.00    -0.130 C  
BRANCH  29  30
HETATM   30  C   UNL     1     -10.415   6.356  73.496  1.00  0.00    -0.282 C  
HETATM   31  H   UNL     1     -12.222   7.066  73.812  1.00  0.00     0.000 HD 
HETATM   32  O   UNL     1     -11.424   7.375  73.401  1.00  0.00    -0.123 OA 
BRANCH  30  33
HETATM   33  C   UNL     1     -10.913   5.059  72.835  1.00  0.00    -0.277 C  
HETATM   34  O   UNL     1     -12.256   4.762  73.214  1.00  0.00    -0.328 OA 
HETATM   35  H   UNL     1     -12.564   3.961  72.807  1.00  0.00     0.000 HD 
ENDBRANCH  30  33
ENDBRANCH  29  30
ENDBRANCH  28  29
ENDBRANCH  13  25
ENDBRANCH   4   5
BRANCH   4  36
HETATM   36  C   UNL     1      -6.222   8.928  65.915  1.00  0.00    -0.056 C  
BRANCH  36  37
HETATM   37  C   UNL     1      -6.122  10.028  64.824  1.00  0.00    -0.114 C  
HETATM   38  O   UNL     1      -5.377  11.175  65.260  1.00  0.00    -0.404 OA 
HETATM   39  H   UNL     1      -5.316  11.848  64.593  1.00  0.00     0.000 HD 
BRANCH  37  40
HETATM   40  C   UNL     1      -5.462   9.547  63.528  1.00  0.00    -0.072 C  
HETATM   41  O   UNL     1      -6.213  10.021  62.405  1.00  0.00    -0.103 OA 
HETATM   42  H   UNL     1      -5.804   9.722  61.601  1.00  0.00     0.000 HD 
ENDBRANCH  37  40
ENDBRANCH  36  37
ENDBRANCH   4  36
TORSDOF 12
ENDMDL
MODEL       90
REMARK 921   NORMALIZED FREE ENERGY PREDICTED BY IDOCK:   -3.47 KCAL/MOL
REMARK 922        TOTAL FREE ENERGY PREDICTED BY IDOCK:   -7.11 KCAL/MOL
REMARK 923 INTER-LIGAND FREE ENERGY PREDICTED BY IDOCK:   -7.19 KCAL/MOL
REMARK 924 INTRA-LIGAND FREE ENERGY PREDICTED BY IDOCK:    0.08 KCAL/MOL
REMARK 927      BINDING AFFINITY PREDICTED BY RF-SCORE:    0.00 PKD
ROOT
HETATM    1  C   UNL     1     -10.738  15.595  68.093  1.00  0.00    -0.287 C  
HETATM    2  C   UNL     1     -10.199  14.199  68.250  1.00  0.00    -0.243 C  
HETATM    3  O   UNL     1      -9.116  14.020  68.812  1.00  0.00    -0.144 OA 
HETATM    4  N   UNL     1     -10.962  13.151  67.725  1.00  0.00    -0.245 N  
ENDROOT
BRANCH   4   5
HETATM    5  C   UNL     1     -10.462  11.826  67.946  1.00  0.00    -0.196 A  
HETATM    6  C   UNL     1      -9.179   9.404  68.553  1.00  0.00    -0.131 A  
HETATM    7  C   UNL     1     -10.785  11.143  69.148  1.00  0.00    -0.221 A  
HETATM    8  C   UNL     1      -9.603  11.225  66.991  1.00  0.00    -0.178 A  
HETATM    9  I   UNL     1      -9.357  12.196  65.066  1.00  0.00     0.595 I  
HETATM   10  I   UNL     1     -12.320  12.010  70.405  1.00  0.00    -0.022 I  
HETATM   11  C   UNL     1      -8.940  10.013  67.291  1.00  0.00    -0.144 A  
HETATM   12  I   UNL     1      -7.863   7.797  69.201  1.00  0.00    -0.117 I  
HETATM   13  C   UNL     1     -10.148   9.926  69.465  1.00  0.00    -0.240 A  
BRANCH  11  14
HETATM   14  C   UNL     1      -7.916   9.488  66.338  1.00  0.00    -0.111 C  
HETATM   15  O   UNL     1      -6.758   9.890  66.387  1.00  0.00    -0.080 OA 
HETATM   16  N   UNL     1      -8.338   8.549  65.424  1.00  0.00    -0.148 N  
HETATM   17  H   UNL     1      -9.307   8.233  65.441  1.00  0.00     0.000 HD 
BRANCH  16  18
HETATM   18  C   UNL     1      -7.419   7.996  64.428  1.00  0.00    -0.104 C  
BRANCH  18  19
HETATM   19  C   UNL     1      -7.644   8.608  63.042  1.00  0.00    -0.111 C  
HETATM   20  H   UNL     1      -9.096   9.567  62.129  1.00  0.00     0.000 HD 
HETATM   21  O   UNL     1      -8.956   9.188  62.988  1.00  0.00    -0.174 OA 
BRANCH  19  22
HETATM   22  C   UNL     1      -6.574   9.658  62.709  1.00  0.00    -0.103 C  
HETATM   23  O   UNL     1      -7.096  10.983  62.808  1.00  0.00    -0.361 OA 
HETATM   24  H   UNL     1      -6.433  11.632  62.602  1.00  0.00     0.000 HD 
ENDBRANCH  19  22
ENDBRANCH  18  19
ENDBRANCH  16  18
ENDBRANCH  11  14
BRANCH  13  25
HETATM   25  C   UNL     1     -10.508   9.129  70.685  1.00  0.00    -0.245 C  
HETATM   26  O   UNL     1     -10.216   9.563  71.794  1.00  0.00    -0.099 OA 
HETATM   27  H   UNL     1     -11.432   7.606  69.590  1.00  0.00     0.000 HD 
HETATM   28  N   UNL     1     -11.156   7.917  70.522  1.00  0.00    -0.257 N  
BRANCH  28  29
HETATM   29  C   UNL     1     -11.442   7.088  71.687  1.00  0.00    -0.266 C  
BRANCH  29  30
HETATM   30  C   UNL     1     -10.221   6.288  72.161  1.00  0.00    -0.184 C  
HETATM   31  H   UNL     1      -9.362   5.885  73.885  1.00  0.00     0.000 HD 
HETATM   32  O   UNL     1     -10.117   6.380  73.592  1.00  0.00    -0.194 OA 
BRANCH  30  33
HETATM   33  C   UNL     1     -10.324   4.814  71.735  1.00  0.00    -0.160 C  
HETATM   34  O   UNL     1      -9.388   4.000  72.438  1.00  0.00    -0.116 OA 
HETATM   35  H   UNL     1      -9.451   3.089  72.174  1.00  0.00     0.000 HD 
ENDBRANCH  30  33
ENDBRANCH  29  30
ENDBRANCH  28  29
ENDBRANCH  13  25
ENDBRANCH   4   5
BRANCH   4  36
HETATM   36  C   UNL     1     -12.260  13.310  67.012  1.00  0.00    -0.253 C  
BRANCH  36  37
HETATM   37  C   UNL     1     -12.225  13.312  65.460  1.00  0.00    -0.457 C  
HETATM   38  O   UNL     1     -13.378  12.687  64.879  1.00  0.00    -0.741 OA 
HETATM   39  H   UNL     1     -13.357  12.688  63.929  1.00  0.00     0.000 HD 
BRANCH  37  40
HETATM   40  C   UNL     1     -12.137  14.716  64.852  1.00  0.00    -0.382 C  
HETATM   41  O   UNL     1     -12.472  14.656  63.461  1.00  0.00    -1.069 OA 
HETATM   42  H   UNL     1     -12.416  15.526  63.084  1.00  0.00     0.000 HD 
ENDBRANCH  37  40
ENDBRANCH  36  37
ENDBRANCH   4  36
TORSDOF 12
ENDMDL
MODEL       91
REMARK 921   NORMALIZED FREE ENERGY PREDICTED BY IDOCK:   -3.46 KCAL/MOL
REMARK 922        TOTAL FREE ENERGY PREDICTED BY IDOCK:   -7.09 KCAL/MOL
REMARK 923 INTER-LIGAND FREE ENERGY PREDICTED BY IDOCK:   -6.31 KCAL/MOL
REMARK 924 INTRA-LIGAND FREE ENERGY PREDICTED BY IDOCK:   -0.78 KCAL/MOL
REMARK 927      BINDING AFFINITY PREDICTED BY RF-SCORE:    0.00 PKD
ROOT
HETATM    1  C   UNL     1      -8.119   6.242  72.851  1.00  0.00    -0.108 C  
HETATM    2  C   UNL     1      -8.373   6.959  71.553  1.00  0.00    -0.114 C  
HETATM    3  O   UNL     1      -7.598   7.844  71.180  1.00  0.00    -0.075 OA 
HETATM    4  N   UNL     1      -9.507   6.591  70.824  1.00  0.00    -0.171 N  
ENDROOT
BRANCH   4   5
HETATM    5  C   UNL     1      -9.692   7.240  69.560  1.00  0.00    -0.158 A  
HETATM    6  C   UNL     1      -9.703   8.674  67.146  1.00  0.00    -0.190 A  
HETATM    7  C   UNL     1      -9.208   6.624  68.375  1.00  0.00    -0.122 A  
HETATM    8  C   UNL     1     -10.304   8.518  69.501  1.00  0.00    -0.218 A  
HETATM    9  I   UNL     1     -11.256   9.290  71.292  1.00  0.00    -0.470 I  
HETATM   10  I   UNL     1      -8.552   4.565  68.519  1.00  0.00    -0.133 I  
HETATM   11  C   UNL     1     -10.303   9.256  68.296  1.00  0.00    -0.257 A  
HETATM   12  I   UNL     1      -9.308   9.942  65.422  1.00  0.00    -0.354 I  
HETATM   13  C   UNL     1      -9.208   7.333  67.156  1.00  0.00    -0.156 A  
BRANCH  11  14
HETATM   14  C   UNL     1     -10.805  10.663  68.302  1.00  0.00    -0.241 C  
HETATM   15  O   UNL     1     -11.948  10.916  67.937  1.00  0.00    -0.585 OA 
HETATM   16  N   UNL     1      -9.930  11.635  68.730  1.00  0.00    -0.345 N  
HETATM   17  H   UNL     1      -8.997  11.367  69.044  1.00  0.00     0.000 HD 
BRANCH  16  18
HETATM   18  C   UNL     1     -10.314  13.047  68.744  1.00  0.00    -0.129 C  
BRANCH  18  19
HETATM   19  C   UNL     1      -9.544  13.859  67.698  1.00  0.00    -0.215 C  
HETATM   20  H   UNL     1      -7.990  13.566  66.531  1.00  0.00     0.000 HD 
HETATM   21  O   UNL     1      -8.467  13.063  67.180  1.00  0.00    -0.191 OA 
BRANCH  19  22
HETATM   22  C   UNL     1     -10.464  14.330  66.562  1.00  0.00    -0.287 C  
HETATM   23  O   UNL     1     -10.498  13.385  65.493  1.00  0.00    -0.279 OA 
HETATM   24  H   UNL     1     -11.067  13.676  64.791  1.00  0.00     0.000 HD 
ENDBRANCH  19  22
ENDBRANCH  18  19
ENDBRANCH  16  18
ENDBRANCH  11  14
BRANCH  13  25
HETATM   25  C   UNL     1      -8.777   6.701  65.864  1.00  0.00    -0.137 C  
HETATM   26  O   UNL     1      -9.619   6.183  65.138  1.00  0.00     0.513 OA 
HETATM   27  H   UNL     1      -6.763   7.198  66.131  1.00  0.00     0.000 HD 
HETATM   28  N   UNL     1      -7.434   6.715  65.533  1.00  0.00    -0.076 N  
BRANCH  28  29
HETATM   29  C   UNL     1      -6.981   6.036  64.324  1.00  0.00    -0.051 C  
BRANCH  29  30
HETATM   30  C   UNL     1      -6.295   4.695  64.617  1.00  0.00    -0.034 C  
HETATM   31  H   UNL     1      -5.236   3.926  66.086  1.00  0.00     0.000 HD 
HETATM   32  O   UNL     1      -5.661   4.756  65.905  1.00  0.00    -0.016 OA 
BRANCH  30  33
HETATM   33  C   UNL     1      -7.305   3.536  64.581  1.00  0.00    -0.071 C  
HETATM   34  O   UNL     1      -8.424   3.843  63.752  1.00  0.00    -0.090 OA 
HETATM   35  H   UNL     1      -9.049   3.128  63.730  1.00  0.00     0.000 HD 
ENDBRANCH  30  33
ENDBRANCH  29  30
ENDBRANCH  28  29
ENDBRANCH  13  25
ENDBRANCH   4   5
BRANCH   4  36
HETATM   36  C   UNL     1     -10.493   5.554  71.238  1.00  0.00    -0.239 C  
BRANCH  36  37
HETATM   37  C   UNL     1     -11.226   5.766  72.589  1.00  0.00    -0.301 C  
HETATM   38  O   UNL     1     -12.532   6.340  72.427  1.00  0.00    -0.546 OA 
HETATM   39  H   UNL     1     -12.981   6.470  73.255  1.00  0.00     0.000 HD 
BRANCH  37  40
HETATM   40  C   UNL     1     -11.414   4.475  73.393  1.00  0.00    -0.230 C  
HETATM   41  O   UNL     1     -10.421   4.404  74.422  1.00  0.00    -0.234 OA 
HETATM   42  H   UNL     1     -10.537   3.604  74.920  1.00  0.00     0.000 HD 
ENDBRANCH  37  40
ENDBRANCH  36  37
ENDBRANCH   4  36
TORSDOF 12
ENDMDL
MODEL       92
REMARK 921   NORMALIZED FREE ENERGY PREDICTED BY IDOCK:   -3.46 KCAL/MOL
REMARK 922        TOTAL FREE ENERGY PREDICTED BY IDOCK:   -7.09 KCAL/MOL
REMARK 923 INTER-LIGAND FREE ENERGY PREDICTED BY IDOCK:   -6.47 KCAL/MOL
REMARK 924 INTRA-LIGAND FREE ENERGY PREDICTED BY IDOCK:   -0.62 KCAL/MOL
REMARK 927      BINDING AFFINITY PREDICTED BY RF-SCORE:    0.00 PKD
ROOT
HETATM    1  C   UNL     1      -9.491  15.941  65.870  1.00  0.00    -0.372 C  
HETATM    2  C   UNL     1      -9.632  14.577  66.487  1.00  0.00    -0.293 C  
HETATM    3  O   UNL     1     -10.120  13.655  65.829  1.00  0.00    -0.295 OA 
HETATM    4  N   UNL     1      -9.208  14.420  67.810  1.00  0.00    -0.187 N  
ENDROOT
BRANCH   4   5
HETATM    5  C   UNL     1      -9.290  13.097  68.354  1.00  0.00    -0.154 A  
HETATM    6  C   UNL     1      -9.591  10.399  69.070  1.00  0.00    -0.204 A  
HETATM    7  C   UNL     1      -8.197  12.203  68.198  1.00  0.00    -0.164 A  
HETATM    8  C   UNL     1     -10.479  12.666  68.995  1.00  0.00     0.007 A  
HETATM    9  I   UNL     1     -12.006  14.143  69.440  1.00  0.00    -0.297 I  
HETATM   10  I   UNL     1      -6.332  13.027  67.468  1.00  0.00     0.162 I  
HETATM   11  C   UNL     1     -10.648  11.308  69.347  1.00  0.00    -0.142 A  
HETATM   12  I   UNL     1      -9.990   8.264  69.202  1.00  0.00    -0.217 I  
HETATM   13  C   UNL     1      -8.335  10.845  68.553  1.00  0.00    -0.142 A  
BRANCH  11  14
HETATM   14  C   UNL     1     -11.971  10.850  69.869  1.00  0.00    -0.353 C  
HETATM   15  O   UNL     1     -12.889  10.597  69.096  1.00  0.00    -0.043 OA 
HETATM   16  N   UNL     1     -12.096  10.731  71.235  1.00  0.00    -0.306 N  
HETATM   17  H   UNL     1     -11.293  10.934  71.831  1.00  0.00     0.000 HD 
BRANCH  16  18
HETATM   18  C   UNL     1     -13.360  10.321  71.846  1.00  0.00    -0.383 C  
BRANCH  18  19
HETATM   19  C   UNL     1     -13.297   8.886  72.380  1.00  0.00    -0.440 C  
HETATM   20  H   UNL     1     -13.992   7.132  71.829  1.00  0.00     0.000 HD 
HETATM   21  O   UNL     1     -14.031   8.021  71.499  1.00  0.00    -0.371 OA 
BRANCH  19  22
HETATM   22  C   UNL     1     -11.846   8.403  72.526  1.00  0.00    -0.358 C  
HETATM   23  O   UNL     1     -11.766   6.978  72.498  1.00  0.00    -0.409 OA 
HETATM   24  H   UNL     1     -10.868   6.680  72.589  1.00  0.00     0.000 HD 
ENDBRANCH  19  22
ENDBRANCH  18  19
ENDBRANCH  16  18
ENDBRANCH  11  14
BRANCH  13  25
HETATM   25  C   UNL     1      -7.189   9.878  68.476  1.00  0.00    -0.076 C  
HETATM   26  O   UNL     1      -6.876   9.403  67.390  1.00  0.00    -0.077 OA 
HETATM   27  H   UNL     1      -6.771   9.994  70.522  1.00  0.00     0.000 HD 
HETATM   28  N   UNL     1      -6.522   9.544  69.641  1.00  0.00    -0.039 N  
BRANCH  28  29
HETATM   29  C   UNL     1      -5.460   8.545  69.604  1.00  0.00    -0.030 C  
BRANCH  29  30
HETATM   30  C   UNL     1      -5.797   7.289  70.420  1.00  0.00    -0.024 C  
HETATM   31  H   UNL     1      -6.948   6.852  71.954  1.00  0.00     0.000 HD 
HETATM   32  O   UNL     1      -6.740   7.629  71.450  1.00  0.00    -0.048 OA 
BRANCH  30  33
HETATM   33  C   UNL     1      -6.373   6.182  69.521  1.00  0.00    -0.038 C  
HETATM   34  O   UNL     1      -6.164   6.468  68.140  1.00  0.00    -0.029 OA 
HETATM   35  H   UNL     1      -6.520   5.785  67.585  1.00  0.00     0.000 HD 
ENDBRANCH  30  33
ENDBRANCH  29  30
ENDBRANCH  28  29
ENDBRANCH  13  25
ENDBRANCH   4   5
BRANCH   4  36
HETATM   36  C   UNL     1      -8.639  15.502  68.662  1.00  0.00    -0.179 C  
BRANCH  36  37
HETATM   37  C   UNL     1      -9.211  16.933  68.473  1.00  0.00    -0.260 C  
HETATM   38  O   UNL     1     -10.240  17.248  69.423  1.00  0.00    -0.255 OA 
HETATM   39  H   UNL     1     -10.590  18.124  69.307  1.00  0.00     0.000 HD 
BRANCH  37  40
HETATM   40  C   UNL     1      -8.154  18.036  68.594  1.00  0.00    -0.284 C  
HETATM   41  O   UNL     1      -7.029  17.712  67.770  1.00  0.00    -0.175 OA 
HETATM   42  H   UNL     1      -6.374  18.395  67.845  1.00  0.00     0.000 HD 
ENDBRANCH  37  40
ENDBRANCH  36  37
ENDBRANCH   4  36
TORSDOF 12
ENDMDL
MODEL       93
REMARK 921   NORMALIZED FREE ENERGY PREDICTED BY IDOCK:   -3.44 KCAL/MOL
REMARK 922        TOTAL FREE ENERGY PREDICTED BY IDOCK:   -7.06 KCAL/MOL
REMARK 923 INTER-LIGAND FREE ENERGY PREDICTED BY IDOCK:   -8.16 KCAL/MOL
REMARK 924 INTRA-LIGAND FREE ENERGY PREDICTED BY IDOCK:    1.10 KCAL/MOL
REMARK 927      BINDING AFFINITY PREDICTED BY RF-SCORE:    0.00 PKD
ROOT
HETATM    1  C   UNL     1     -10.236  13.175  64.385  1.00  0.00    -0.319 C  
HETATM    2  C   UNL     1     -10.806  12.354  65.509  1.00  0.00    -0.281 C  
HETATM    3  O   UNL     1     -11.956  11.915  65.425  1.00  0.00    -0.362 OA 
HETATM    4  N   UNL     1      -9.993  12.136  66.625  1.00  0.00    -0.204 N  
ENDROOT
BRANCH   4   5
HETATM    5  C   UNL     1     -10.532  11.295  67.653  1.00  0.00    -0.193 A  
HETATM    6  C   UNL     1     -11.259   9.726  69.864  1.00  0.00    -0.229 A  
HETATM    7  C   UNL     1     -11.313  11.866  68.692  1.00  0.00    -0.276 A  
HETATM    8  C   UNL     1     -10.238   9.908  67.660  1.00  0.00    -0.208 A  
HETATM    9  I   UNL     1      -9.271   9.047  65.918  1.00  0.00    -0.264 I  
HETATM   10  I   UNL     1     -11.946  13.923  68.447  1.00  0.00    -0.090 I  
HETATM   11  C   UNL     1     -10.586   9.110  68.774  1.00  0.00    -0.208 A  
HETATM   12  I   UNL     1     -11.416   8.637  71.742  1.00  0.00    -0.457 I  
HETATM   13  C   UNL     1     -11.685  11.090  69.809  1.00  0.00    -0.410 A  
BRANCH  11  14
HETATM   14  C   UNL     1     -10.120   7.692  68.829  1.00  0.00    -0.194 C  
HETATM   15  O   UNL     1     -10.880   6.776  68.532  1.00  0.00    -0.230 OA 
HETATM   16  N   UNL     1      -8.818   7.479  69.224  1.00  0.00    -0.136 N  
HETATM   17  H   UNL     1      -8.222   8.278  69.439  1.00  0.00     0.000 HD 
BRANCH  16  18
HETATM   18  C   UNL     1      -8.275   6.125  69.341  1.00  0.00    -0.113 C  
BRANCH  18  19
HETATM   19  C   UNL     1      -7.060   5.917  68.432  1.00  0.00    -0.081 C  
HETATM   20  H   UNL     1      -6.752   5.338  66.579  1.00  0.00     0.000 HD 
HETATM   21  O   UNL     1      -7.505   5.467  67.143  1.00  0.00    -0.082 OA 
BRANCH  19  22
HETATM   22  C   UNL     1      -6.229   7.202  68.299  1.00  0.00    -0.035 C  
HETATM   23  O   UNL     1      -6.949   8.339  68.775  1.00  0.00    -0.064 OA 
HETATM   24  H   UNL     1      -6.435   9.134  68.692  1.00  0.00     0.000 HD 
ENDBRANCH  19  22
ENDBRANCH  18  19
ENDBRANCH  16  18
ENDBRANCH  11  14
BRANCH  13  25
HETATM   25  C   UNL     1     -12.570  11.626  70.896  1.00  0.00    -0.313 C  
HETATM   26  O   UNL     1     -13.513  10.949  71.292  1.00  0.00    -0.138 OA 
HETATM   27  H   UNL     1     -11.479  13.398  71.104  1.00  0.00     0.000 HD 
HETATM   28  N   UNL     1     -12.300  12.879  71.416  1.00  0.00    -0.118 N  
BRANCH  28  29
HETATM   29  C   UNL     1     -13.194  13.454  72.415  1.00  0.00    -0.464 C  
BRANCH  29  30
HETATM   30  C   UNL     1     -12.930  14.946  72.659  1.00  0.00    -0.412 C  
HETATM   31  H   UNL     1     -13.898  16.633  72.365  1.00  0.00     0.000 HD 
HETATM   32  O   UNL     1     -14.062  15.711  72.213  1.00  0.00    -0.523 OA 
BRANCH  30  33
HETATM   33  C   UNL     1     -12.659  15.225  74.148  1.00  0.00    -0.504 C  
HETATM   34  O   UNL     1     -12.487  16.619  74.396  1.00  0.00    -0.708 OA 
HETATM   35  H   UNL     1     -12.320  16.791  75.315  1.00  0.00     0.000 HD 
ENDBRANCH  30  33
ENDBRANCH  29  30
ENDBRANCH  28  29
ENDBRANCH  13  25
ENDBRANCH   4   5
BRANCH   4  36
HETATM   36  C   UNL     1      -8.610  12.664  66.794  1.00  0.00    -0.098 C  
BRANCH  36  37
HETATM   37  C   UNL     1      -7.943  12.484  68.184  1.00  0.00    -0.157 C  
HETATM   38  O   UNL     1      -7.407  11.166  68.375  1.00  0.00    -0.083 OA 
HETATM   39  H   UNL     1      -6.999  11.056  69.226  1.00  0.00     0.000 HD 
BRANCH  37  40
HETATM   40  C   UNL     1      -6.795  13.464  68.444  1.00  0.00    -0.102 C  
HETATM   41  O   UNL     1      -7.299  14.804  68.436  1.00  0.00    -0.105 OA 
HETATM   42  H   UNL     1      -6.587  15.411  68.596  1.00  0.00     0.000 HD 
ENDBRANCH  37  40
ENDBRANCH  36  37
ENDBRANCH   4  36
TORSDOF 12
ENDMDL
MODEL       94
REMARK 921   NORMALIZED FREE ENERGY PREDICTED BY IDOCK:   -3.37 KCAL/MOL
REMARK 922        TOTAL FREE ENERGY PREDICTED BY IDOCK:   -6.93 KCAL/MOL
REMARK 923 INTER-LIGAND FREE ENERGY PREDICTED BY IDOCK:   -7.44 KCAL/MOL
REMARK 924 INTRA-LIGAND FREE ENERGY PREDICTED BY IDOCK:    0.51 KCAL/MOL
REMARK 927      BINDING AFFINITY PREDICTED BY RF-SCORE:    0.00 PKD
ROOT
HETATM    1  C   UNL     1      -6.147  10.419  65.381  1.00  0.00    -0.132 C  
HETATM    2  C   UNL     1      -7.235  10.310  66.414  1.00  0.00    -0.113 C  
HETATM    3  O   UNL     1      -8.347   9.886  66.090  1.00  0.00    -0.119 OA 
HETATM    4  N   UNL     1      -6.931  10.716  67.717  1.00  0.00    -0.077 N  
ENDROOT
BRANCH   4   5
HETATM    5  C   UNL     1      -7.961  10.540  68.698  1.00  0.00    -0.124 A  
HETATM    6  C   UNL     1     -10.145   9.950  70.360  1.00  0.00    -0.195 A  
HETATM    7  C   UNL     1      -7.857   9.488  69.646  1.00  0.00    -0.116 A  
HETATM    8  C   UNL     1      -9.105  11.377  68.682  1.00  0.00    -0.135 A  
HETATM    9  I   UNL     1      -9.091  13.122  67.392  1.00  0.00    -0.239 I  
HETATM   10  I   UNL     1      -5.961   8.450  69.780  1.00  0.00    -0.028 I  
HETATM   11  C   UNL     1     -10.217  11.083  69.504  1.00  0.00    -0.032 A  
HETATM   12  I   UNL     1     -11.974   9.235  71.299  1.00  0.00    -0.454 I  
HETATM   13  C   UNL     1      -8.946   9.181  70.488  1.00  0.00    -0.274 A  
BRANCH  11  14
HETATM   14  C   UNL     1     -11.470  11.881  69.349  1.00  0.00    -0.302 C  
HETATM   15  O   UNL     1     -12.279  11.602  68.470  1.00  0.00    -0.485 OA 
HETATM   16  N   UNL     1     -11.659  12.923  70.228  1.00  0.00    -0.532 N  
HETATM   17  H   UNL     1     -10.964  13.098  70.955  1.00  0.00     0.000 HD 
BRANCH  16  18
HETATM   18  C   UNL     1     -12.838  13.784  70.140  1.00  0.00     0.041 C  
BRANCH  18  19
HETATM   19  C   UNL     1     -13.448  14.062  71.518  1.00  0.00    -0.328 C  
HETATM   20  H   UNL     1     -13.890  13.007  73.116  1.00  0.00     0.000 HD 
HETATM   21  O   UNL     1     -13.512  12.835  72.262  1.00  0.00    -0.565 OA 
BRANCH  19  22
HETATM   22  C   UNL     1     -12.642  15.119  72.287  1.00  0.00    -0.344 C  
HETATM   23  O   UNL     1     -11.599  15.667  71.481  1.00  0.00    -0.359 OA 
HETATM   24  H   UNL     1     -11.101  16.321  71.957  1.00  0.00     0.000 HD 
ENDBRANCH  19  22
ENDBRANCH  18  19
ENDBRANCH  16  18
ENDBRANCH  11  14
BRANCH  13  25
HETATM   25  C   UNL     1      -8.860   8.130  71.556  1.00  0.00    -0.154 C  
HETATM   26  O   UNL     1      -8.738   8.471  72.727  1.00  0.00    -0.321 OA 
HETATM   27  H   UNL     1      -9.067   6.545  70.208  1.00  0.00     0.000 HD 
HETATM   28  N   UNL     1      -8.913   6.798  71.184  1.00  0.00    -0.147 N  
BRANCH  28  29
HETATM   29  C   UNL     1      -8.750   5.759  72.194  1.00  0.00    -0.133 C  
BRANCH  29  30
HETATM   30  C   UNL     1      -9.938   4.789  72.246  1.00  0.00    -0.178 C  
HETATM   31  H   UNL     1     -10.211   2.854  72.020  1.00  0.00     0.000 HD 
HETATM   32  O   UNL     1      -9.475   3.454  71.987  1.00  0.00    -0.115 OA 
BRANCH  30  33
HETATM   33  C   UNL     1     -10.641   4.847  73.613  1.00  0.00    -0.266 C  
HETATM   34  O   UNL     1     -12.051   4.680  73.483  1.00  0.00    -0.295 OA 
HETATM   35  H   UNL     1     -12.486   4.716  74.327  1.00  0.00     0.000 HD 
ENDBRANCH  30  33
ENDBRANCH  29  30
ENDBRANCH  28  29
ENDBRANCH  13  25
ENDBRANCH   4   5
BRANCH   4  36
HETATM   36  C   UNL     1      -5.617  11.262  68.160  1.00  0.00    -0.042 C  
BRANCH  36  37
HETATM   37  C   UNL     1      -5.363  12.777  67.937  1.00  0.00    -0.106 C  
HETATM   38  O   UNL     1      -6.150  13.320  66.867  1.00  0.00    -0.358 OA 
HETATM   39  H   UNL     1      -5.994  14.247  66.731  1.00  0.00     0.000 HD 
BRANCH  37  40
HETATM   40  C   UNL     1      -5.656  13.635  69.173  1.00  0.00    -0.075 C  
HETATM   41  O   UNL     1      -6.402  12.866  70.122  1.00  0.00    -0.339 OA 
HETATM   42  H   UNL     1      -6.584  13.398  70.888  1.00  0.00     0.000 HD 
ENDBRANCH  37  40
ENDBRANCH  36  37
ENDBRANCH   4  36
TORSDOF 12
ENDMDL
MODEL       95
REMARK 921   NORMALIZED FREE ENERGY PREDICTED BY IDOCK:   -3.37 KCAL/MOL
REMARK 922        TOTAL FREE ENERGY PREDICTED BY IDOCK:   -6.93 KCAL/MOL
REMARK 923 INTER-LIGAND FREE ENERGY PREDICTED BY IDOCK:   -6.44 KCAL/MOL
REMARK 924 INTRA-LIGAND FREE ENERGY PREDICTED BY IDOCK:   -0.49 KCAL/MOL
REMARK 927      BINDING AFFINITY PREDICTED BY RF-SCORE:    0.00 PKD
ROOT
HETATM    1  C   UNL     1      -5.580  11.382  66.566  1.00  0.00    -0.142 C  
HETATM    2  C   UNL     1      -6.198  10.021  66.729  1.00  0.00    -0.068 C  
HETATM    3  O   UNL     1      -5.553   9.116  67.264  1.00  0.00    -0.041 OA 
HETATM    4  N   UNL     1      -7.496   9.840  66.243  1.00  0.00    -0.098 N  
ENDROOT
BRANCH   4   5
HETATM    5  C   UNL     1      -8.089   8.555  66.471  1.00  0.00    -0.103 A  
HETATM    6  C   UNL     1      -8.904   5.935  67.068  1.00  0.00    -0.112 A  
HETATM    7  C   UNL     1      -8.730   8.284  67.709  1.00  0.00    -0.134 A  
HETATM    8  C   UNL     1      -7.985   7.541  65.484  1.00  0.00    -0.121 A  
HETATM    9  I   UNL     1      -7.236   8.084  63.521  1.00  0.00    -0.104 I  
HETATM   10  I   UNL     1      -9.092   9.961  69.030  1.00  0.00    -0.204 I  
HETATM   11  C   UNL     1      -8.378   6.216  65.778  1.00  0.00    -0.143 A  
HETATM   12  I   UNL     1      -9.107   3.857  67.682  1.00  0.00    -0.236 I  
HETATM   13  C   UNL     1      -9.144   6.973  68.022  1.00  0.00    -0.127 A  
BRANCH  11  14
HETATM   14  C   UNL     1      -8.105   5.137  64.781  1.00  0.00    -0.117 C  
HETATM   15  O   UNL     1      -6.998   4.612  64.722  1.00  0.00    -0.051 OA 
HETATM   16  N   UNL     1      -9.144   4.775  63.953  1.00  0.00    -0.305 N  
HETATM   17  H   UNL     1     -10.051   5.229  64.060  1.00  0.00     0.000 HD 
BRANCH  16  18
HETATM   18  C   UNL     1      -8.969   3.751  62.923  1.00  0.00    -0.101 C  
BRANCH  18  19
HETATM   19  C   UNL     1      -9.607   2.419  63.328  1.00  0.00    -0.099 C  
HETATM   20  H   UNL     1     -10.169   1.562  65.005  1.00  0.00     0.000 HD 
HETATM   21  O   UNL     1      -9.773   2.388  64.754  1.00  0.00    -0.088 OA 
BRANCH  19  22
HETATM   22  C   UNL     1     -10.954   2.202  62.622  1.00  0.00    -0.203 C  
HETATM   23  O   UNL     1     -12.008   1.997  63.562  1.00  0.00    -0.215 OA 
HETATM   24  H   UNL     1     -12.841   1.863  63.125  1.00  0.00     0.000 HD 
ENDBRANCH  19  22
ENDBRANCH  18  19
ENDBRANCH  16  18
ENDBRANCH  11  14
BRANCH  13  25
HETATM   25  C   UNL     1      -9.890   6.650  69.283  1.00  0.00    -0.149 C  
HETATM   26  O   UNL     1      -9.266   6.299  70.278  1.00  0.00    -0.155 OA 
HETATM   27  H   UNL     1     -11.760   7.095  68.458  1.00  0.00     0.000 HD 
HETATM   28  N   UNL     1     -11.270   6.751  69.284  1.00  0.00    -0.235 N  
BRANCH  28  29
HETATM   29  C   UNL     1     -12.022   6.364  70.472  1.00  0.00    -0.147 C  
BRANCH  29  30
HETATM   30  C   UNL     1     -12.476   7.569  71.307  1.00  0.00    -0.323 C  
HETATM   31  H   UNL     1     -12.396   9.528  71.143  1.00  0.00     0.000 HD 
HETATM   32  O   UNL     1     -12.116   8.783  70.627  1.00  0.00    -0.155 OA 
BRANCH  30  33
HETATM   33  C   UNL     1     -13.995   7.534  71.551  1.00  0.00    -0.410 C  
HETATM   34  O   UNL     1     -14.357   6.476  72.437  1.00  0.00    -0.701 OA 
HETATM   35  H   UNL     1     -15.294   6.454  72.588  1.00  0.00     0.000 HD 
ENDBRANCH  30  33
ENDBRANCH  29  30
ENDBRANCH  28  29
ENDBRANCH  13  25
ENDBRANCH   4   5
BRANCH   4  36
HETATM   36  C   UNL     1      -8.311  10.885  65.564  1.00  0.00    -0.079 C  
BRANCH  36  37
HETATM   37  C   UNL     1      -9.753  10.500  65.137  1.00  0.00    -0.282 C  
HETATM   38  O   UNL     1     -10.758  11.205  65.880  1.00  0.00    -0.254 OA 
HETATM   39  H   UNL     1     -11.641  10.969  65.618  1.00  0.00     0.000 HD 
BRANCH  37  40
HETATM   40  C   UNL     1     -10.042  10.761  63.655  1.00  0.00    -0.312 C  
HETATM   41  O   UNL     1     -10.088  12.172  63.418  1.00  0.00    -0.428 OA 
HETATM   42  H   UNL     1     -10.268  12.334  62.500  1.00  0.00     0.000 HD 
ENDBRANCH  37  40
ENDBRANCH  36  37
ENDBRANCH   4  36
TORSDOF 12
ENDMDL
MODEL       96
REMARK 921   NORMALIZED FREE ENERGY PREDICTED BY IDOCK:   -3.32 KCAL/MOL
REMARK 922        TOTAL FREE ENERGY PREDICTED BY IDOCK:   -6.85 KCAL/MOL
REMARK 923 INTER-LIGAND FREE ENERGY PREDICTED BY IDOCK:   -5.85 KCAL/MOL
REMARK 924 INTRA-LIGAND FREE ENERGY PREDICTED BY IDOCK:   -0.99 KCAL/MOL
REMARK 927      BINDING AFFINITY PREDICTED BY RF-SCORE:    0.00 PKD
ROOT
HETATM    1  C   UNL     1      -7.031  11.960  69.010  1.00  0.00    -0.098 C  
HETATM    2  C   UNL     1      -6.807  10.476  68.909  1.00  0.00    -0.063 C  
HETATM    3  O   UNL     1      -5.665  10.039  68.745  1.00  0.00    -0.036 OA 
HETATM    4  N   UNL     1      -7.929   9.647  68.994  1.00  0.00    -0.084 N  
ENDROOT
BRANCH   4   5
HETATM    5  C   UNL     1      -7.684   8.235  68.963  1.00  0.00    -0.098 A  
HETATM    6  C   UNL     1      -7.592   5.430  68.906  1.00  0.00    -0.079 A  
HETATM    7  C   UNL     1      -7.609   7.561  67.716  1.00  0.00    -0.106 A  
HETATM    8  C   UNL     1      -7.573   7.509  70.176  1.00  0.00    -0.088 A  
HETATM    9  I   UNL     1      -7.429   8.618  72.036  1.00  0.00     0.129 I  
HETATM   10  I   UNL     1      -7.502   8.779  65.929  1.00  0.00    -0.092 I  
HETATM   11  C   UNL     1      -7.540   6.096  70.161  1.00  0.00    -0.096 A  
HETATM   12  I   UNL     1      -7.976   3.288  68.878  1.00  0.00    -0.074 I  
HETATM   13  C   UNL     1      -7.563   6.152  67.673  1.00  0.00    -0.097 A  
BRANCH  11  14
HETATM   14  C   UNL     1      -7.591   5.352  71.456  1.00  0.00    -0.103 C  
HETATM   15  O   UNL     1      -6.566   4.891  71.948  1.00  0.00    -0.035 OA 
HETATM   16  N   UNL     1      -8.825   5.218  72.050  1.00  0.00    -0.130 N  
HETATM   17  H   UNL     1      -9.643   5.641  71.610  1.00  0.00     0.000 HD 
BRANCH  16  18
HETATM   18  C   UNL     1      -8.986   4.481  73.304  1.00  0.00    -0.115 C  
BRANCH  18  19
HETATM   19  C   UNL     1     -10.326   4.787  73.980  1.00  0.00    -0.253 C  
HETATM   20  H   UNL     1     -11.102   6.287  74.985  1.00  0.00     0.000 HD 
HETATM   21  O   UNL     1     -10.271   6.097  74.566  1.00  0.00    -0.315 OA 
BRANCH  19  22
HETATM   22  C   UNL     1     -11.493   4.687  72.986  1.00  0.00    -0.162 C  
HETATM   23  O   UNL     1     -12.041   5.973  72.695  1.00  0.00    -0.526 OA 
HETATM   24  H   UNL     1     -12.763   5.911  72.081  1.00  0.00     0.000 HD 
ENDBRANCH  19  22
ENDBRANCH  18  19
ENDBRANCH  16  18
ENDBRANCH  11  14
BRANCH  13  25
HETATM   25  C   UNL     1      -7.409   5.396  66.385  1.00  0.00    -0.082 C  
HETATM   26  O   UNL     1      -6.300   4.990  66.055  1.00  0.00    -0.037 OA 
HETATM   27  H   UNL     1      -9.447   5.489  65.924  1.00  0.00     0.000 HD 
HETATM   28  N   UNL     1      -8.528   5.185  65.600  1.00  0.00    -0.129 N  
BRANCH  28  29
HETATM   29  C   UNL     1      -8.390   4.526  64.307  1.00  0.00    -0.114 C  
BRANCH  29  30
HETATM   30  C   UNL     1      -9.332   3.324  64.148  1.00  0.00    -0.132 C  
HETATM   31  H   UNL     1     -10.054   1.915  65.316  1.00  0.00     0.000 HD 
HETATM   32  O   UNL     1      -9.472   2.658  65.414  1.00  0.00    -0.102 OA 
BRANCH  30  33
HETATM   33  C   UNL     1     -10.712   3.766  63.631  1.00  0.00    -0.218 C  
HETATM   34  O   UNL     1     -11.574   4.147  64.702  1.00  0.00    -0.839 OA 
HETATM   35  H   UNL     1     -12.426   4.420  64.383  1.00  0.00     0.000 HD 
ENDBRANCH  30  33
ENDBRANCH  29  30
ENDBRANCH  28  29
ENDBRANCH  13  25
ENDBRANCH   4   5
BRANCH   4  36
HETATM   36  C   UNL     1      -9.332  10.119  69.162  1.00  0.00    -0.197 C  
BRANCH  36  37
HETATM   37  C   UNL     1     -10.173  10.330  67.875  1.00  0.00    -0.183 C  
HETATM   38  O   UNL     1     -11.271   9.412  67.772  1.00  0.00    -0.492 OA 
HETATM   39  H   UNL     1     -11.786   9.541  66.984  1.00  0.00     0.000 HD 
BRANCH  37  40
HETATM   40  C   UNL     1     -10.768  11.737  67.756  1.00  0.00    -0.205 C  
HETATM   41  O   UNL     1     -12.135  11.644  67.341  1.00  0.00    -0.605 OA 
HETATM   42  H   UNL     1     -12.504  12.516  67.267  1.00  0.00     0.000 HD 
ENDBRANCH  37  40
ENDBRANCH  36  37
ENDBRANCH   4  36
TORSDOF 12
ENDMDL
MODEL       97
REMARK 921   NORMALIZED FREE ENERGY PREDICTED BY IDOCK:   -3.32 KCAL/MOL
REMARK 922        TOTAL FREE ENERGY PREDICTED BY IDOCK:   -6.84 KCAL/MOL
REMARK 923 INTER-LIGAND FREE ENERGY PREDICTED BY IDOCK:   -6.18 KCAL/MOL
REMARK 924 INTRA-LIGAND FREE ENERGY PREDICTED BY IDOCK:   -0.67 KCAL/MOL
REMARK 927      BINDING AFFINITY PREDICTED BY RF-SCORE:    0.00 PKD
ROOT
HETATM    1  C   UNL     1      -7.044   9.818  70.694  1.00  0.00    -0.097 C  
HETATM    2  C   UNL     1      -7.664   9.614  69.339  1.00  0.00    -0.101 C  
HETATM    3  O   UNL     1      -8.515   8.735  69.180  1.00  0.00    -0.119 OA 
HETATM    4  N   UNL     1      -7.225  10.439  68.299  1.00  0.00    -0.082 N  
ENDROOT
BRANCH   4   5
HETATM    5  C   UNL     1      -7.877  10.272  67.033  1.00  0.00    -0.107 A  
HETATM    6  C   UNL     1      -8.932  10.244  64.432  1.00  0.00    -0.227 A  
HETATM    7  C   UNL     1      -7.302   9.421  66.052  1.00  0.00    -0.092 A  
HETATM    8  C   UNL     1      -9.060  10.998  66.745  1.00  0.00    -0.162 A  
HETATM    9  I   UNL     1     -10.035  12.070  68.360  1.00  0.00    -0.112 I  
HETATM   10  I   UNL     1      -5.669   8.142  66.675  1.00  0.00    -0.046 I  
HETATM   11  C   UNL     1      -9.593  11.003  65.436  1.00  0.00    -0.267 A  
HETATM   12  I   UNL     1      -9.470  10.576  62.350  1.00  0.00     0.048 I  
HETATM   13  C   UNL     1      -7.822   9.397  64.742  1.00  0.00    -0.118 A  
BRANCH  11  14
HETATM   14  C   UNL     1     -10.741  11.906  65.120  1.00  0.00    -0.291 C  
HETATM   15  O   UNL     1     -11.894  11.503  65.224  1.00  0.00    -0.094 OA 
HETATM   16  N   UNL     1     -10.435  13.186  64.714  1.00  0.00    -0.356 N  
HETATM   17  H   UNL     1      -9.458  13.476  64.666  1.00  0.00     0.000 HD 
BRANCH  16  18
HETATM   18  C   UNL     1     -11.486  14.136  64.352  1.00  0.00    -0.332 C  
BRANCH  18  19
HETATM   19  C   UNL     1     -10.982  15.583  64.377  1.00  0.00    -0.043 C  
HETATM   20  H   UNL     1     -11.697  17.347  63.890  1.00  0.00     0.000 HD 
HETATM   21  O   UNL     1     -12.009  16.451  63.874  1.00  0.00    -1.023 OA 
BRANCH  19  22
HETATM   22  C   UNL     1     -10.561  16.007  65.793  1.00  0.00    -0.353 C  
HETATM   23  O   UNL     1     -10.060  17.343  65.809  1.00  0.00    -0.544 OA 
HETATM   24  H   UNL     1      -9.799  17.605  66.684  1.00  0.00     0.000 HD 
ENDBRANCH  19  22
ENDBRANCH  18  19
ENDBRANCH  16  18
ENDBRANCH  11  14
BRANCH  13  25
HETATM   25  C   UNL     1      -7.298   8.463  63.690  1.00  0.00    -0.103 C  
HETATM   26  O   UNL     1      -6.371   8.824  62.974  1.00  0.00    -0.090 OA 
HETATM   27  H   UNL     1      -8.621   6.925  64.198  1.00  0.00     0.000 HD 
HETATM   28  N   UNL     1      -7.886   7.218  63.554  1.00  0.00    -0.124 N  
BRANCH  28  29
HETATM   29  C   UNL     1      -7.449   6.325  62.487  1.00  0.00    -0.063 C  
BRANCH  29  30
HETATM   30  C   UNL     1      -7.854   4.865  62.730  1.00  0.00    -0.068 C  
HETATM   31  H   UNL     1      -6.934   3.188  63.191  1.00  0.00     0.000 HD 
HETATM   32  O   UNL     1      -6.683   4.091  63.041  1.00  0.00    -0.033 OA 
BRANCH  30  33
HETATM   33  C   UNL     1      -8.876   4.757  63.874  1.00  0.00    -0.112 C  
HETATM   34  O   UNL     1     -10.149   4.323  63.399  1.00  0.00    -0.341 OA 
HETATM   35  H   UNL     1     -10.780   4.256  64.105  1.00  0.00     0.000 HD 
ENDBRANCH  30  33
ENDBRANCH  29  30
ENDBRANCH  28  29
ENDBRANCH  13  25
ENDBRANCH   4   5
BRANCH   4  36
HETATM   36  C   UNL     1      -6.182  11.495  68.424  1.00  0.00    -0.049 C  
BRANCH  36  37
HETATM   37  C   UNL     1      -6.531  12.744  69.276  1.00  0.00    -0.105 C  
HETATM   38  O   UNL     1      -5.554  13.013  70.293  1.00  0.00    -0.117 OA 
HETATM   39  H   UNL     1      -5.768  13.778  70.814  1.00  0.00     0.000 HD 
BRANCH  37  40
HETATM   40  C   UNL     1      -6.667  14.029  68.452  1.00  0.00    -0.099 C  
HETATM   41  O   UNL     1      -7.081  13.701  67.121  1.00  0.00    -0.355 OA 
HETATM   42  H   UNL     1      -7.165  14.497  66.610  1.00  0.00     0.000 HD 
ENDBRANCH  37  40
ENDBRANCH  36  37
ENDBRANCH   4  36
TORSDOF 12
ENDMDL
MODEL       98
REMARK 921   NORMALIZED FREE ENERGY PREDICTED BY IDOCK:   -3.29 KCAL/MOL
REMARK 922        TOTAL FREE ENERGY PREDICTED BY IDOCK:   -6.80 KCAL/MOL
REMARK 923 INTER-LIGAND FREE ENERGY PREDICTED BY IDOCK:   -6.70 KCAL/MOL
REMARK 924 INTRA-LIGAND FREE ENERGY PREDICTED BY IDOCK:   -0.10 KCAL/MOL
REMARK 927      BINDING AFFINITY PREDICTED BY RF-SCORE:    0.00 PKD
ROOT
HETATM    1  C   UNL     1      -5.808  11.047  66.350  1.00  0.00    -0.140 C  
HETATM    2  C   UNL     1      -6.851  10.508  67.290  1.00  0.00    -0.082 C  
HETATM    3  O   UNL     1      -6.761  10.732  68.499  1.00  0.00    -0.055 OA 
HETATM    4  N   UNL     1      -7.888   9.749  66.737  1.00  0.00    -0.102 N  
ENDROOT
BRANCH   4   5
HETATM    5  C   UNL     1      -8.905   9.303  67.642  1.00  0.00    -0.119 A  
HETATM    6  C   UNL     1     -10.659   8.551  69.701  1.00  0.00    -0.220 A  
HETATM    7  C   UNL     1      -9.906  10.212  68.078  1.00  0.00    -0.148 A  
HETATM    8  C   UNL     1      -8.877   7.977  68.143  1.00  0.00    -0.132 A  
HETATM    9  I   UNL     1      -7.495   6.564  67.248  1.00  0.00    -0.091 I  
HETATM   10  I   UNL     1     -10.042  12.114  67.052  1.00  0.00    -0.237 I  
HETATM   11  C   UNL     1      -9.745   7.590  69.189  1.00  0.00    -0.166 A  
HETATM   12  I   UNL     1     -11.687   8.120  71.570  1.00  0.00    -0.405 I  
HETATM   13  C   UNL     1     -10.794   9.847  69.111  1.00  0.00    -0.248 A  
BRANCH  11  14
HETATM   14  C   UNL     1      -9.583   6.241  69.810  1.00  0.00    -0.151 C  
HETATM   15  O   UNL     1     -10.298   5.307  69.462  1.00  0.00    -0.253 OA 
HETATM   16  N   UNL     1      -8.607   6.111  70.772  1.00  0.00    -0.134 N  
HETATM   17  H   UNL     1      -8.025   6.915  71.008  1.00  0.00     0.000 HD 
BRANCH  16  18
HETATM   18  C   UNL     1      -8.390   4.840  71.463  1.00  0.00    -0.109 C  
BRANCH  18  19
HETATM   19  C   UNL     1      -7.168   4.095  70.917  1.00  0.00    -0.040 C  
HETATM   20  H   UNL     1      -5.327   4.561  70.409  1.00  0.00     0.000 HD 
HETATM   21  O   UNL     1      -6.085   5.023  70.747  1.00  0.00    -0.017 OA 
BRANCH  19  22
HETATM   22  C   UNL     1      -6.752   2.942  71.842  1.00  0.00    -0.022 C  
HETATM   23  O   UNL     1      -7.845   2.062  72.102  1.00  0.00    -0.044 OA 
HETATM   24  H   UNL     1      -7.587   1.349  72.675  1.00  0.00     0.000 HD 
ENDBRANCH  19  22
ENDBRANCH  18  19
ENDBRANCH  16  18
ENDBRANCH  11  14
BRANCH  13  25
HETATM   25  C   UNL     1     -11.914  10.741  69.556  1.00  0.00    -0.292 C  
HETATM   26  O   UNL     1     -12.909  10.856  68.848  1.00  0.00     0.007 OA 
HETATM   27  H   UNL     1     -10.972  11.266  71.347  1.00  0.00     0.000 HD 
HETATM   28  N   UNL     1     -11.787  11.420  70.755  1.00  0.00    -0.244 N  
BRANCH  28  29
HETATM   29  C   UNL     1     -12.826  12.357  71.168  1.00  0.00    -0.205 C  
BRANCH  29  30
HETATM   30  C   UNL     1     -12.456  13.819  70.878  1.00  0.00    -0.377 C  
HETATM   31  H   UNL     1     -12.371  14.981  69.293  1.00  0.00     0.000 HD 
HETATM   32  O   UNL     1     -12.600  14.077  69.471  1.00  0.00    -0.222 OA 
BRANCH  30  33
HETATM   33  C   UNL     1     -13.342  14.784  71.684  1.00  0.00    -0.360 C  
HETATM   34  O   UNL     1     -14.312  14.082  72.458  1.00  0.00    -0.626 OA 
HETATM   35  H   UNL     1     -14.859  14.678  72.955  1.00  0.00     0.000 HD 
ENDBRANCH  30  33
ENDBRANCH  29  30
ENDBRANCH  28  29
ENDBRANCH  13  25
ENDBRANCH   4   5
BRANCH   4  36
HETATM   36  C   UNL     1      -8.033   9.421  65.291  1.00  0.00    -0.110 C  
BRANCH  36  37
HETATM   37  C   UNL     1      -8.428  10.578  64.334  1.00  0.00    -0.129 C  
HETATM   38  O   UNL     1      -7.445  10.816  63.316  1.00  0.00    -0.353 OA 
HETATM   39  H   UNL     1      -7.687  11.524  62.731  1.00  0.00     0.000 HD 
BRANCH  37  40
HETATM   40  C   UNL     1      -9.758  10.344  63.609  1.00  0.00    -0.277 C  
HETATM   41  O   UNL     1      -9.936  11.347  62.602  1.00  0.00    -0.599 OA 
HETATM   42  H   UNL     1     -10.760  11.202  62.154  1.00  0.00     0.000 HD 
ENDBRANCH  37  40
ENDBRANCH  36  37
ENDBRANCH   4  36
TORSDOF 12
ENDMDL
MODEL       99
REMARK 921   NORMALIZED FREE ENERGY PREDICTED BY IDOCK:   -3.29 KCAL/MOL
REMARK 922        TOTAL FREE ENERGY PREDICTED BY IDOCK:   -6.80 KCAL/MOL
REMARK 923 INTER-LIGAND FREE ENERGY PREDICTED BY IDOCK:   -6.04 KCAL/MOL
REMARK 924 INTRA-LIGAND FREE ENERGY PREDICTED BY IDOCK:   -0.76 KCAL/MOL
REMARK 927      BINDING AFFINITY PREDICTED BY RF-SCORE:    0.00 PKD
ROOT
HETATM    1  C   UNL     1     -10.502  17.425  70.198  1.00  0.00     0.701 C  
HETATM    2  C   UNL     1     -10.104  16.048  69.744  1.00  0.00    -0.212 C  
HETATM    3  O   UNL     1     -10.600  15.057  70.288  1.00  0.00    -0.192 OA 
HETATM    4  N   UNL     1      -9.160  15.954  68.718  1.00  0.00    -0.206 N  
ENDROOT
BRANCH   4   5
HETATM    5  C   UNL     1      -8.847  14.633  68.257  1.00  0.00    -0.176 A  
HETATM    6  C   UNL     1      -8.414  11.920  67.679  1.00  0.00    -0.156 A  
HETATM    7  C   UNL     1      -9.779  13.930  67.449  1.00  0.00    -0.234 A  
HETATM    8  C   UNL     1      -7.636  14.012  68.655  1.00  0.00    -0.130 A  
HETATM    9  I   UNL     1      -6.138  15.218  69.662  1.00  0.00    -0.162 I  
HETATM   10  I   UNL     1     -11.456  15.050  66.658  1.00  0.00    -0.010 I  
HETATM   11  C   UNL     1      -7.412  12.644  68.383  1.00  0.00    -0.127 A  
HETATM   12  I   UNL     1      -8.290   9.748  67.629  1.00  0.00    -0.112 I  
HETATM   13  C   UNL     1      -9.574  12.568  67.151  1.00  0.00    -0.208 A  
BRANCH  11  14
HETATM   14  C   UNL     1      -6.206  11.974  68.956  1.00  0.00    -0.079 C  
HETATM   15  O   UNL     1      -5.203  11.808  68.270  1.00  0.00    -0.043 OA 
HETATM   16  N   UNL     1      -6.285  11.563  70.268  1.00  0.00    -0.243 N  
HETATM   17  H   UNL     1      -7.136  11.745  70.800  1.00  0.00     0.000 HD 
BRANCH  16  18
HETATM   18  C   UNL     1      -5.170  10.869  70.912  1.00  0.00    -0.106 C  
BRANCH  18  19
HETATM   19  C   UNL     1      -5.621   9.575  71.596  1.00  0.00    -0.068 C  
HETATM   20  H   UNL     1      -5.741   8.908  73.441  1.00  0.00     0.000 HD 
HETATM   21  O   UNL     1      -5.461   9.710  73.017  1.00  0.00    -0.268 OA 
BRANCH  19  22
HETATM   22  C   UNL     1      -7.076   9.230  71.245  1.00  0.00     0.008 C  
HETATM   23  O   UNL     1      -7.556   8.138  72.029  1.00  0.00    -0.090 OA 
HETATM   24  H   UNL     1      -8.456   7.925  71.812  1.00  0.00     0.000 HD 
ENDBRANCH  19  22
ENDBRANCH  18  19
ENDBRANCH  16  18
ENDBRANCH  11  14
BRANCH  13  25
HETATM   25  C   UNL     1     -10.490  11.801  66.241  1.00  0.00    -0.244 C  
HETATM   26  O   UNL     1     -11.494  11.272  66.706  1.00  0.00    -0.407 OA 
HETATM   27  H   UNL     1      -9.355  12.200  64.531  1.00  0.00     0.000 HD 
HETATM   28  N   UNL     1     -10.168  11.707  64.899  1.00  0.00    -0.257 N  
BRANCH  28  29
HETATM   29  C   UNL     1     -10.998  10.899  64.012  1.00  0.00     0.148 C  
BRANCH  29  30
HETATM   30  C   UNL     1     -12.028  11.734  63.239  1.00  0.00    -0.248 C  
HETATM   31  H   UNL     1     -13.941  12.162  63.418  1.00  0.00     0.000 HD 
HETATM   32  O   UNL     1     -13.304  11.646  63.896  1.00  0.00    -0.379 OA 
BRANCH  30  33
HETATM   33  C   UNL     1     -11.588  13.205  63.140  1.00  0.00     0.124 C  
HETATM   34  O   UNL     1     -12.709  14.087  63.131  1.00  0.00    -0.928 OA 
HETATM   35  H   UNL     1     -12.438  14.995  63.070  1.00  0.00     0.000 HD 
ENDBRANCH  30  33
ENDBRANCH  29  30
ENDBRANCH  28  29
ENDBRANCH  13  25
ENDBRANCH   4   5
BRANCH   4  36
HETATM   36  C   UNL     1      -8.507  17.112  68.046  1.00  0.00    -0.219 C  
BRANCH  36  37
HETATM   37  C   UNL     1      -8.275  17.010  66.514  1.00  0.00    -0.279 C  
HETATM   38  O   UNL     1      -9.235  17.762  65.757  1.00  0.00    -0.505 OA 
HETATM   39  H   UNL     1      -9.093  17.700  64.820  1.00  0.00     0.000 HD 
BRANCH  37  40
HETATM   40  C   UNL     1      -6.891  17.496  66.070  1.00  0.00    -0.246 C  
HETATM   41  O   UNL     1      -7.039  18.596  65.166  1.00  0.00    -0.482 OA 
HETATM   42  H   UNL     1      -6.181  18.897  64.891  1.00  0.00     0.000 HD 
ENDBRANCH  37  40
ENDBRANCH  36  37
ENDBRANCH   4  36
TORSDOF 12
ENDMDL
MODEL      100
REMARK 921   NORMALIZED FREE ENERGY PREDICTED BY IDOCK:   -3.29 KCAL/MOL
REMARK 922        TOTAL FREE ENERGY PREDICTED BY IDOCK:   -6.79 KCAL/MOL
REMARK 923 INTER-LIGAND FREE ENERGY PREDICTED BY IDOCK:   -6.74 KCAL/MOL
REMARK 924 INTRA-LIGAND FREE ENERGY PREDICTED BY IDOCK:   -0.06 KCAL/MOL
REMARK 927      BINDING AFFINITY PREDICTED BY RF-SCORE:    0.00 PKD
ROOT
HETATM    1  C   UNL     1     -13.311   7.048  71.143  1.00  0.00    -0.188 C  
HETATM    2  C   UNL     1     -11.909   7.060  70.598  1.00  0.00    -0.330 C  
HETATM    3  O   UNL     1     -11.540   6.162  69.837  1.00  0.00    -0.404 OA 
HETATM    4  N   UNL     1     -11.069   8.102  71.000  1.00  0.00    -0.249 N  
ENDROOT
BRANCH   4   5
HETATM    5  C   UNL     1      -9.761   8.130  70.416  1.00  0.00    -0.178 A  
HETATM    6  C   UNL     1      -7.309   7.863  69.074  1.00  0.00    -0.088 A  
HETATM    7  C   UNL     1      -9.550   8.823  69.194  1.00  0.00    -0.162 A  
HETATM    8  C   UNL     1      -8.696   7.420  71.027  1.00  0.00    -0.139 A  
HETATM    9  I   UNL     1      -9.004   6.606  73.015  1.00  0.00    -0.151 I  
HETATM   10  I   UNL     1     -11.146  10.106  68.488  1.00  0.00    -0.109 I  
HETATM   11  C   UNL     1      -7.462   7.267  70.355  1.00  0.00    -0.083 A  
HETATM   12  I   UNL     1      -5.603   7.287  67.852  1.00  0.00    -0.028 I  
HETATM   13  C   UNL     1      -8.324   8.698  68.510  1.00  0.00    -0.123 A  
BRANCH  11  14
HETATM   14  C   UNL     1      -6.417   6.377  70.946  1.00  0.00    -0.049 C  
HETATM   15  O   UNL     1      -5.571   6.834  71.707  1.00  0.00    -0.035 OA 
HETATM   16  N   UNL     1      -6.458   5.047  70.593  1.00  0.00    -0.033 N  
HETATM   17  H   UNL     1      -7.197   4.716  69.972  1.00  0.00     0.000 HD 
BRANCH  16  18
HETATM   18  C   UNL     1      -5.461   4.101  71.092  1.00  0.00    -0.008 C  
BRANCH  18  19
HETATM   19  C   UNL     1      -6.108   2.825  71.642  1.00  0.00    -0.014 C  
HETATM   20  H   UNL     1      -7.737   2.376  72.645  1.00  0.00     0.000 HD 
HETATM   21  O   UNL     1      -7.336   3.166  72.304  1.00  0.00    -0.048 OA 
BRANCH  19  22
HETATM   22  C   UNL     1      -6.360   1.797  70.529  1.00  0.00    -0.024 C  
HETATM   23  O   UNL     1      -6.345   2.410  69.240  1.00  0.00    -0.028 OA 
HETATM   24  H   UNL     1      -6.502   1.774  68.552  1.00  0.00     0.000 HD 
ENDBRANCH  19  22
ENDBRANCH  18  19
ENDBRANCH  16  18
ENDBRANCH  11  14
BRANCH  13  25
HETATM   25  C   UNL     1      -8.025   9.467  67.256  1.00  0.00    -0.106 C  
HETATM   26  O   UNL     1      -7.370  10.501  67.326  1.00  0.00    -0.088 OA 
HETATM   27  H   UNL     1      -9.007   8.099  66.016  1.00  0.00     0.000 HD 
HETATM   28  N   UNL     1      -8.509   8.988  66.051  1.00  0.00    -0.124 N  
BRANCH  28  29
HETATM   29  C   UNL     1      -8.302   9.761  64.831  1.00  0.00    -0.148 C  
BRANCH  29  30
HETATM   30  C   UNL     1      -9.613  10.292  64.236  1.00  0.00    -0.313 C  
HETATM   31  H   UNL     1     -10.784  11.847  64.525  1.00  0.00     0.000 HD 
HETATM   32  O   UNL     1      -9.973  11.519  64.894  1.00  0.00    -0.241 OA 
BRANCH  30  33
HETATM   33  C   UNL     1      -9.479  10.527  62.722  1.00  0.00    -0.325 C  
HETATM   34  O   UNL     1      -8.354  11.349  62.418  1.00  0.00    -0.537 OA 
HETATM   35  H   UNL     1      -8.271  11.494  61.483  1.00  0.00     0.000 HD 
ENDBRANCH  30  33
ENDBRANCH  29  30
ENDBRANCH  28  29
ENDBRANCH  13  25
ENDBRANCH   4   5
BRANCH   4  36
HETATM   36  C   UNL     1     -11.449   9.196  71.937  1.00  0.00    -0.353 C  
BRANCH  36  37
HETATM   37  C   UNL     1     -12.836   9.863  71.731  1.00  0.00    -0.442 C  
HETATM   38  O   UNL     1     -13.709   9.686  72.855  1.00  0.00    -0.647 OA 
HETATM   39  H   UNL     1     -14.558  10.094  72.729  1.00  0.00     0.000 HD 
BRANCH  37  40
HETATM   40  C   UNL     1     -12.757  11.371  71.473  1.00  0.00    -0.357 C  
HETATM   41  O   UNL     1     -13.623  12.057  72.384  1.00  0.00    -0.587 OA 
HETATM   42  H   UNL     1     -13.575  12.992  72.223  1.00  0.00     0.000 HD 
ENDBRANCH  37  40
ENDBRANCH  36  37
ENDBRANCH   4  36
TORSDOF 12
ENDMDL
MODEL      101
REMARK 921   NORMALIZED FREE ENERGY PREDICTED BY IDOCK:   -3.25 KCAL/MOL
REMARK 922        TOTAL FREE ENERGY PREDICTED BY IDOCK:   -6.73 KCAL/MOL
REMARK 923 INTER-LIGAND FREE ENERGY PREDICTED BY IDOCK:   -6.24 KCAL/MOL
REMARK 924 INTRA-LIGAND FREE ENERGY PREDICTED BY IDOCK:   -0.49 KCAL/MOL
REMARK 927      BINDING AFFINITY PREDICTED BY RF-SCORE:    0.00 PKD
ROOT
HETATM    1  C   UNL     1     -12.277   7.317  71.892  1.00  0.00    -0.348 C  
HETATM    2  C   UNL     1     -11.288   8.003  70.991  1.00  0.00    -0.273 C  
HETATM    3  O   UNL     1     -11.428   9.200  70.726  1.00  0.00    -0.267 OA 
HETATM    4  N   UNL     1     -10.243   7.232  70.473  1.00  0.00    -0.196 N  
ENDROOT
BRANCH   4   5
HETATM    5  C   UNL     1      -9.276   7.922  69.673  1.00  0.00    -0.153 A  
HETATM    6  C   UNL     1      -7.611   9.589  68.145  1.00  0.00    -0.079 A  
HETATM    7  C   UNL     1      -8.202   8.608  70.301  1.00  0.00    -0.119 A  
HETATM    8  C   UNL     1      -9.424   7.966  68.263  1.00  0.00    -0.144 A  
HETATM    9  I   UNL     1     -10.918   6.691  67.341  1.00  0.00    -0.146 I  
HETATM   10  I   UNL     1      -7.893   8.251  72.414  1.00  0.00    -0.080 I  
HETATM   11  C   UNL     1      -8.601   8.812  67.485  1.00  0.00    -0.127 A  
HETATM   12  I   UNL     1      -6.640  11.196  67.044  1.00  0.00    -0.135 I  
HETATM   13  C   UNL     1      -7.358   9.448  69.546  1.00  0.00    -0.073 A  
BRANCH  11  14
HETATM   14  C   UNL     1      -8.886   8.965  66.026  1.00  0.00    -0.172 C  
HETATM   15  O   UNL     1      -8.390   8.194  65.212  1.00  0.00    -0.145 OA 
HETATM   16  N   UNL     1      -9.719   9.999  65.659  1.00  0.00    -0.251 N  
HETATM   17  H   UNL     1     -10.123  10.598  66.379  1.00  0.00     0.000 HD 
BRANCH  16  18
HETATM   18  C   UNL     1     -10.035  10.252  64.253  1.00  0.00    -0.223 C  
BRANCH  18  19
HETATM   19  C   UNL     1     -10.136  11.751  63.952  1.00  0.00    -0.368 C  
HETATM   20  H   UNL     1      -9.448  12.976  62.577  1.00  0.00     0.000 HD 
HETATM   21  O   UNL     1      -9.385  12.047  62.764  1.00  0.00    -0.195 OA 
BRANCH  19  22
HETATM   22  C   UNL     1     -11.598  12.196  63.792  1.00  0.00    -0.470 C  
HETATM   23  O   UNL     1     -12.209  12.440  65.059  1.00  0.00    -0.437 OA 
HETATM   24  H   UNL     1     -13.113  12.715  64.960  1.00  0.00     0.000 HD 
ENDBRANCH  19  22
ENDBRANCH  18  19
ENDBRANCH  16  18
ENDBRANCH  11  14
BRANCH  13  25
HETATM   25  C   UNL     1      -6.168  10.136  70.148  1.00  0.00    -0.090 C  
HETATM   26  O   UNL     1      -5.129   9.505  70.314  1.00  0.00    -0.027 OA 
HETATM   27  H   UNL     1      -7.139  11.980  70.312  1.00  0.00     0.000 HD 
HETATM   28  N   UNL     1      -6.280  11.467  70.509  1.00  0.00    -0.065 N  
BRANCH  28  29
HETATM   29  C   UNL     1      -5.164  12.132  71.170  1.00  0.00    -0.123 C  
BRANCH  29  30
HETATM   30  C   UNL     1      -5.203  13.658  71.010  1.00  0.00    -0.151 C  
HETATM   31  H   UNL     1      -6.392  14.973  70.156  1.00  0.00     0.000 HD 
HETATM   32  O   UNL     1      -6.368  14.029  70.255  1.00  0.00    -0.149 OA 
BRANCH  30  33
HETATM   33  C   UNL     1      -5.218  14.359  72.379  1.00  0.00    -0.190 C  
HETATM   34  O   UNL     1      -5.395  13.425  73.443  1.00  0.00    -0.403 OA 
HETATM   35  H   UNL     1      -5.404  13.858  74.288  1.00  0.00     0.000 HD 
ENDBRANCH  30  33
ENDBRANCH  29  30
ENDBRANCH  28  29
ENDBRANCH  13  25
ENDBRANCH   4   5
BRANCH   4  36
HETATM   36  C   UNL     1     -10.040   5.780  70.734  1.00  0.00    -0.202 C  
BRANCH  36  37
HETATM   37  C   UNL     1      -8.599   5.223  70.585  1.00  0.00    -0.122 C  
HETATM   38  O   UNL     1      -8.186   4.443  71.717  1.00  0.00    -0.097 OA 
HETATM   39  H   UNL     1      -7.303   4.102  71.626  1.00  0.00     0.000 HD 
BRANCH  37  40
HETATM   40  C   UNL     1      -8.410   4.335  69.351  1.00  0.00    -0.065 C  
HETATM   41  O   UNL     1      -9.664   3.749  68.988  1.00  0.00    -0.156 OA 
HETATM   42  H   UNL     1      -9.547   3.198  68.223  1.00  0.00     0.000 HD 
ENDBRANCH  37  40
ENDBRANCH  36  37
ENDBRANCH   4  36
TORSDOF 12
ENDMDL
MODEL      102
REMARK 921   NORMALIZED FREE ENERGY PREDICTED BY IDOCK:   -3.20 KCAL/MOL
REMARK 922        TOTAL FREE ENERGY PREDICTED BY IDOCK:   -6.64 KCAL/MOL
REMARK 923 INTER-LIGAND FREE ENERGY PREDICTED BY IDOCK:   -5.46 KCAL/MOL
REMARK 924 INTRA-LIGAND FREE ENERGY PREDICTED BY IDOCK:   -1.18 KCAL/MOL
REMARK 927      BINDING AFFINITY PREDICTED BY RF-SCORE:    0.00 PKD
ROOT
HETATM    1  C   UNL     1     -12.992   8.990  72.014  1.00  0.00    -0.470 C  
HETATM    2  C   UNL     1     -12.314   7.822  71.353  1.00  0.00    -0.323 C  
HETATM    3  O   UNL     1     -12.983   6.855  70.982  1.00  0.00    -0.305 OA 
HETATM    4  N   UNL     1     -10.925   7.882  71.202  1.00  0.00    -0.236 N  
ENDROOT
BRANCH   4   5
HETATM    5  C   UNL     1     -10.310   6.788  70.510  1.00  0.00    -0.201 A  
HETATM    6  C   UNL     1      -9.467   4.505  69.112  1.00  0.00    -0.164 A  
HETATM    7  C   UNL     1     -10.150   6.848  69.100  1.00  0.00    -0.173 A  
HETATM    8  C   UNL     1      -9.915   5.630  71.226  1.00  0.00    -0.195 A  
HETATM    9  I   UNL     1      -9.936   5.697  73.395  1.00  0.00    -0.241 I  
HETATM   10  I   UNL     1     -10.513   8.753  68.136  1.00  0.00    -0.096 I  
HETATM   11  C   UNL     1      -9.502   4.469  70.533  1.00  0.00    -0.246 A  
HETATM   12  I   UNL     1      -9.258   2.630  68.026  1.00  0.00    -0.140 I  
HETATM   13  C   UNL     1      -9.727   5.709  68.386  1.00  0.00    -0.161 A  
BRANCH  11  14
HETATM   14  C   UNL     1      -9.251   3.212  71.300  1.00  0.00    -0.123 C  
HETATM   15  O   UNL     1     -10.178   2.460  71.580  1.00  0.00    -0.092 OA 
HETATM   16  N   UNL     1      -7.949   2.955  71.667  1.00  0.00    -0.056 N  
HETATM   17  H   UNL     1      -7.213   3.604  71.389  1.00  0.00     0.000 HD 
BRANCH  16  18
HETATM   18  C   UNL     1      -7.603   1.767  72.447  1.00  0.00    -0.043 C  
BRANCH  18  19
HETATM   19  C   UNL     1      -6.092   1.514  72.464  1.00  0.00    -0.009 C  
HETATM   20  H   UNL     1      -4.609   1.675  71.186  1.00  0.00     0.000 HD 
HETATM   21  O   UNL     1      -5.545   1.832  71.175  1.00  0.00    -0.008 OA 
BRANCH  19  22
HETATM   22  C   UNL     1      -5.397   2.332  73.563  1.00  0.00     0.000 C  
HETATM   23  O   UNL     1      -6.281   3.298  74.132  1.00  0.00    -0.018 OA 
HETATM   24  H   UNL     1      -5.851   3.803  74.811  1.00  0.00     0.000 HD 
ENDBRANCH  19  22
ENDBRANCH  18  19
ENDBRANCH  16  18
ENDBRANCH  11  14
BRANCH  13  25
HETATM   25  C   UNL     1      -9.473   5.741  66.907  1.00  0.00    -0.133 C  
HETATM   26  O   UNL     1     -10.420   5.657  66.132  1.00  0.00    -0.138 OA 
HETATM   27  H   UNL     1      -7.407   5.977  67.126  1.00  0.00     0.000 HD 
HETATM   28  N   UNL     1      -8.169   5.857  66.459  1.00  0.00    -0.109 N  
BRANCH  28  29
HETATM   29  C   UNL     1      -7.890   5.809  65.028  1.00  0.00    -0.107 C  
BRANCH  29  30
HETATM   30  C   UNL     1      -7.359   4.443  64.572  1.00  0.00    -0.071 C  
HETATM   31  H   UNL     1      -6.480   2.899  65.420  1.00  0.00     0.000 HD 
HETATM   32  O   UNL     1      -6.809   3.744  65.702  1.00  0.00    -0.054 OA 
BRANCH  30  33
HETATM   33  C   UNL     1      -8.473   3.602  63.926  1.00  0.00    -0.091 C  
HETATM   34  O   UNL     1      -9.667   4.363  63.751  1.00  0.00    -0.305 OA 
HETATM   35  H   UNL     1     -10.355   3.845  63.352  1.00  0.00     0.000 HD 
ENDBRANCH  30  33
ENDBRANCH  29  30
ENDBRANCH  28  29
ENDBRANCH  13  25
ENDBRANCH   4   5
BRANCH   4  36
HETATM   36  C   UNL     1     -10.062   9.009  71.657  1.00  0.00    -0.335 C  
BRANCH  36  37
HETATM   37  C   UNL     1      -8.566   8.970  71.248  1.00  0.00    -0.155 C  
HETATM   38  O   UNL     1      -8.097  10.228  70.740  1.00  0.00    -0.246 OA 
HETATM   39  H   UNL     1      -7.181  10.204  70.489  1.00  0.00     0.000 HD 
BRANCH  37  40
HETATM   40  C   UNL     1      -7.627   8.587  72.396  1.00  0.00    -0.036 C  
HETATM   41  O   UNL     1      -8.339   8.648  73.637  1.00  0.00    -0.380 OA 
HETATM   42  H   UNL     1      -7.757   8.411  74.348  1.00  0.00     0.000 HD 
ENDBRANCH  37  40
ENDBRANCH  36  37
ENDBRANCH   4  36
TORSDOF 12
ENDMDL
MODEL      103
REMARK 921   NORMALIZED FREE ENERGY PREDICTED BY IDOCK:   -3.04 KCAL/MOL
REMARK 922        TOTAL FREE ENERGY PREDICTED BY IDOCK:   -6.37 KCAL/MOL
REMARK 923 INTER-LIGAND FREE ENERGY PREDICTED BY IDOCK:   -6.02 KCAL/MOL
REMARK 924 INTRA-LIGAND FREE ENERGY PREDICTED BY IDOCK:   -0.35 KCAL/MOL
REMARK 927      BINDING AFFINITY PREDICTED BY RF-SCORE:    0.00 PKD
ROOT
HETATM    1  C   UNL     1     -11.667  12.312  63.619  1.00  0.00    -0.591 C  
HETATM    2  C   UNL     1     -10.381  12.195  64.390  1.00  0.00    -0.319 C  
HETATM    3  O   UNL     1      -9.320  12.008  63.787  1.00  0.00     0.001 OA 
HETATM    4  N   UNL     1     -10.452  12.292  65.782  1.00  0.00    -0.248 N  
ENDROOT
BRANCH   4   5
HETATM    5  C   UNL     1      -9.207  12.246  66.490  1.00  0.00    -0.219 A  
HETATM    6  C   UNL     1      -6.985  12.153  68.203  1.00  0.00    -0.082 A  
HETATM    7  C   UNL     1      -8.642  10.991  66.839  1.00  0.00    -0.143 A  
HETATM    8  C   UNL     1      -8.573  13.450  66.889  1.00  0.00    -0.100 A  
HETATM    9  I   UNL     1      -9.333  15.326  66.106  1.00  0.00    -0.176 I  
HETATM   10  I   UNL     1      -9.518   9.221  65.949  1.00  0.00    -0.276 I  
HETATM   11  C   UNL     1      -7.462  13.417  67.762  1.00  0.00    -0.160 A  
HETATM   12  I   UNL     1      -5.576  12.091  69.861  1.00  0.00    -0.153 I  
HETATM   13  C   UNL     1      -7.526  10.929  67.699  1.00  0.00    -0.095 A  
BRANCH  11  14
HETATM   14  C   UNL     1      -6.917  14.701  68.298  1.00  0.00    -0.113 C  
HETATM   15  O   UNL     1      -7.400  15.209  69.304  1.00  0.00    -0.157 OA 
HETATM   16  N   UNL     1      -5.867  15.267  67.611  1.00  0.00    -0.112 N  
HETATM   17  H   UNL     1      -5.489  14.791  66.792  1.00  0.00     0.000 HD 
BRANCH  16  18
HETATM   18  C   UNL     1      -5.283  16.539  68.036  1.00  0.00    -0.111 C  
BRANCH  18  19
HETATM   19  C   UNL     1      -6.130  17.735  67.588  1.00  0.00    -0.155 C  
HETATM   20  H   UNL     1      -6.181  19.663  67.963  1.00  0.00     0.000 HD 
HETATM   21  O   UNL     1      -5.656  18.922  68.241  1.00  0.00    -0.188 OA 
BRANCH  19  22
HETATM   22  C   UNL     1      -6.097  17.907  66.062  1.00  0.00    -0.230 C  
HETATM   23  O   UNL     1      -7.307  18.489  65.577  1.00  0.00    -0.524 OA 
HETATM   24  H   UNL     1      -7.286  18.596  64.633  1.00  0.00     0.000 HD 
ENDBRANCH  19  22
ENDBRANCH  18  19
ENDBRANCH  16  18
ENDBRANCH  11  14
BRANCH  13  25
HETATM   25  C   UNL     1      -6.848   9.634  68.037  1.00  0.00    -0.073 C  
HETATM   26  O   UNL     1      -5.940   9.225  67.322  1.00  0.00    -0.048 OA 
HETATM   27  H   UNL     1      -7.997   9.319  69.756  1.00  0.00     0.000 HD 
HETATM   28  N   UNL     1      -7.275   8.930  69.150  1.00  0.00    -0.066 N  
BRANCH  28  29
HETATM   29  C   UNL     1      -6.688   7.630  69.452  1.00  0.00    -0.040 C  
BRANCH  29  30
HETATM   30  C   UNL     1      -7.521   6.461  68.909  1.00  0.00    -0.088 C  
HETATM   31  H   UNL     1      -7.331   4.506  68.797  1.00  0.00     0.000 HD 
HETATM   32  O   UNL     1      -6.816   5.229  69.133  1.00  0.00    -0.051 OA 
BRANCH  30  33
HETATM   33  C   UNL     1      -8.903   6.407  69.580  1.00  0.00    -0.136 C  
HETATM   34  O   UNL     1      -8.797   6.461  71.001  1.00  0.00    -0.138 OA 
HETATM   35  H   UNL     1      -9.651   6.427  71.416  1.00  0.00     0.000 HD 
ENDBRANCH  30  33
ENDBRANCH  29  30
ENDBRANCH  28  29
ENDBRANCH  13  25
ENDBRANCH   4   5
BRANCH   4  36
HETATM   36  C   UNL     1     -11.705  12.489  66.565  1.00  0.00    -0.391 C  
BRANCH  36  37
HETATM   37  C   UNL     1     -12.118  13.948  66.894  1.00  0.00    -0.430 C  
HETATM   38  O   UNL     1     -13.334  14.341  66.240  1.00  0.00    -0.154 OA 
HETATM   39  H   UNL     1     -13.587  15.235  66.441  1.00  0.00     0.000 HD 
BRANCH  37  40
HETATM   40  C   UNL     1     -12.327  14.202  68.391  1.00  0.00     0.017 C  
HETATM   41  O   UNL     1     -12.108  12.988  69.117  1.00  0.00    -0.276 OA 
HETATM   42  H   UNL     1     -12.238  13.145  70.044  1.00  0.00     0.000 HD 
ENDBRANCH  37  40
ENDBRANCH  36  37
ENDBRANCH   4  36
TORSDOF 12
ENDMDL
MODEL      104
REMARK 921   NORMALIZED FREE ENERGY PREDICTED BY IDOCK:   -3.03 KCAL/MOL
REMARK 922        TOTAL FREE ENERGY PREDICTED BY IDOCK:   -6.36 KCAL/MOL
REMARK 923 INTER-LIGAND FREE ENERGY PREDICTED BY IDOCK:   -5.54 KCAL/MOL
REMARK 924 INTRA-LIGAND FREE ENERGY PREDICTED BY IDOCK:   -0.83 KCAL/MOL
REMARK 927      BINDING AFFINITY PREDICTED BY RF-SCORE:    0.00 PKD
ROOT
HETATM    1  C   UNL     1     -10.640   4.567  65.602  1.00  0.00    -0.231 C  
HETATM    2  C   UNL     1     -10.217   5.694  66.503  1.00  0.00    -0.211 C  
HETATM    3  O   UNL     1     -11.063   6.477  66.944  1.00  0.00    -0.399 OA 
HETATM    4  N   UNL     1      -8.855   5.813  66.791  1.00  0.00    -0.115 N  
ENDROOT
BRANCH   4   5
HETATM    5  C   UNL     1      -8.484   6.854  67.705  1.00  0.00    -0.122 A  
HETATM    6  C   UNL     1      -7.391   8.760  69.452  1.00  0.00    -0.072 A  
HETATM    7  C   UNL     1      -8.104   8.127  67.205  1.00  0.00    -0.116 A  
HETATM    8  C   UNL     1      -8.444   6.592  69.098  1.00  0.00    -0.124 A  
HETATM    9  I   UNL     1      -9.283   4.727  69.824  1.00  0.00    -0.239 I  
HETATM   10  I   UNL     1      -8.468   8.523  65.107  1.00  0.00    -0.094 I  
HETATM   11  C   UNL     1      -7.883   7.538  69.986  1.00  0.00    -0.099 A  
HETATM   12  I   UNL     1      -6.151  10.026  70.715  1.00  0.00     0.024 I  
HETATM   13  C   UNL     1      -7.554   9.094  68.071  1.00  0.00    -0.085 A  
BRANCH  11  14
HETATM   14  C   UNL     1      -7.701   7.171  71.423  1.00  0.00    -0.093 C  
HETATM   15  O   UNL     1      -6.692   6.579  71.789  1.00  0.00    -0.060 OA 
HETATM   16  N   UNL     1      -8.709   7.528  72.290  1.00  0.00    -0.115 N  
HETATM   17  H   UNL     1      -9.517   8.040  71.935  1.00  0.00     0.000 HD 
BRANCH  16  18
HETATM   18  C   UNL     1      -8.641   7.187  73.711  1.00  0.00    -0.154 C  
BRANCH  18  19
HETATM   19  C   UNL     1     -10.018   6.826  74.278  1.00  0.00    -0.323 C  
HETATM   20  H   UNL     1     -11.889   7.238  73.842  1.00  0.00     0.000 HD 
HETATM   21  O   UNL     1     -11.036   7.462  73.490  1.00  0.00    -0.344 OA 
BRANCH  19  22
HETATM   22  C   UNL     1     -10.232   5.305  74.312  1.00  0.00    -0.266 C  
HETATM   23  O   UNL     1     -11.511   4.947  73.790  1.00  0.00    -0.398 OA 
HETATM   24  H   UNL     1     -11.643   4.007  73.811  1.00  0.00     0.000 HD 
ENDBRANCH  19  22
ENDBRANCH  18  19
ENDBRANCH  16  18
ENDBRANCH  11  14
BRANCH  13  25
HETATM   25  C   UNL     1      -7.205  10.478  67.606  1.00  0.00    -0.086 C  
HETATM   26  O   UNL     1      -6.066  10.713  67.218  1.00  0.00    -0.052 OA 
HETATM   27  H   UNL     1      -9.136  11.220  67.916  1.00  0.00     0.000 HD 
HETATM   28  N   UNL     1      -8.183  11.456  67.637  1.00  0.00    -0.124 N  
BRANCH  28  29
HETATM   29  C   UNL     1      -7.847  12.827  67.269  1.00  0.00    -0.146 C  
BRANCH  29  30
HETATM   30  C   UNL     1      -9.086  13.714  67.086  1.00  0.00    -0.239 C  
HETATM   31  H   UNL     1      -9.460  15.513  66.382  1.00  0.00     0.000 HD 
HETATM   32  O   UNL     1      -8.694  14.964  66.495  1.00  0.00    -0.254 OA 
BRANCH  30  33
HETATM   33  C   UNL     1     -10.138  13.022  66.203  1.00  0.00    -0.285 C  
HETATM   34  O   UNL     1      -9.720  12.964  64.840  1.00  0.00    -0.510 OA 
HETATM   35  H   UNL     1     -10.370  12.536  64.294  1.00  0.00     0.000 HD 
ENDBRANCH  30  33
ENDBRANCH  29  30
ENDBRANCH  28  29
ENDBRANCH  13  25
ENDBRANCH   4   5
BRANCH   4  36
HETATM   36  C   UNL     1      -7.786   4.918  66.266  1.00  0.00    -0.096 C  
BRANCH  36  37
HETATM   37  C   UNL     1      -6.422   5.568  65.912  1.00  0.00    -0.040 C  
HETATM   38  O   UNL     1      -5.382   5.214  66.836  1.00  0.00    -0.008 OA 
HETATM   39  H   UNL     1      -4.547   5.612  66.619  1.00  0.00     0.000 HD 
BRANCH  37  40
HETATM   40  C   UNL     1      -5.910   5.196  64.516  1.00  0.00    -0.017 C  
HETATM   41  O   UNL     1      -6.960   5.372  63.559  1.00  0.00    -0.044 OA 
HETATM   42  H   UNL     1      -6.642   5.141  62.694  1.00  0.00     0.000 HD 
ENDBRANCH  37  40
ENDBRANCH  36  37
ENDBRANCH   4  36
TORSDOF 12
ENDMDL
MODEL      105
REMARK 921   NORMALIZED FREE ENERGY PREDICTED BY IDOCK:   -2.90 KCAL/MOL
REMARK 922        TOTAL FREE ENERGY PREDICTED BY IDOCK:   -6.14 KCAL/MOL
REMARK 923 INTER-LIGAND FREE ENERGY PREDICTED BY IDOCK:   -6.80 KCAL/MOL
REMARK 924 INTRA-LIGAND FREE ENERGY PREDICTED BY IDOCK:    0.66 KCAL/MOL
REMARK 927      BINDING AFFINITY PREDICTED BY RF-SCORE:    0.00 PKD
ROOT
HETATM    1  C   UNL     1     -13.023  12.870  64.816  1.00  0.00    -0.224 C  
HETATM    2  C   UNL     1     -11.545  12.952  65.082  1.00  0.00    -0.332 C  
HETATM    3  O   UNL     1     -10.790  13.394  64.213  1.00  0.00    -0.392 OA 
HETATM    4  N   UNL     1     -11.087  12.499  66.323  1.00  0.00    -0.283 N  
ENDROOT
BRANCH   4   5
HETATM    5  C   UNL     1      -9.685  12.649  66.579  1.00  0.00    -0.256 A  
HETATM    6  C   UNL     1      -7.024  12.843  67.451  1.00  0.00    -0.124 A  
HETATM    7  C   UNL     1      -8.823  11.528  66.455  1.00  0.00    -0.190 A  
HETATM    8  C   UNL     1      -9.173  13.900  67.010  1.00  0.00    -0.250 A  
HETATM    9  I   UNL     1     -10.476  15.633  66.927  1.00  0.00    -0.289 I  
HETATM   10  I   UNL     1      -9.631   9.748  65.524  1.00  0.00    -0.277 I  
HETATM   11  C   UNL     1      -7.840  14.007  67.464  1.00  0.00    -0.197 A  
HETATM   12  I   UNL     1      -5.135  12.880  68.532  1.00  0.00    -0.080 I  
HETATM   13  C   UNL     1      -7.484  11.611  66.889  1.00  0.00    -0.131 A  
BRANCH  11  14
HETATM   14  C   UNL     1      -7.376  15.293  68.066  1.00  0.00    -0.124 C  
HETATM   15  O   UNL     1      -7.455  15.476  69.276  1.00  0.00    -0.179 OA 
HETATM   16  N   UNL     1      -6.867  16.238  67.204  1.00  0.00    -0.194 N  
HETATM   17  H   UNL     1      -6.803  16.025  66.208  1.00  0.00     0.000 HD 
BRANCH  16  18
HETATM   18  C   UNL     1      -6.415  17.541  67.690  1.00  0.00    -0.150 C  
BRANCH  18  19
HETATM   19  C   UNL     1      -6.714  18.660  66.687  1.00  0.00    -0.195 C  
HETATM   20  H   UNL     1      -7.838  18.876  65.090  1.00  0.00     0.000 HD 
HETATM   21  O   UNL     1      -7.653  18.182  65.711  1.00  0.00    -0.519 OA 
BRANCH  19  22
HETATM   22  C   UNL     1      -7.255  19.915  67.389  1.00  0.00    -0.244 C  
HETATM   23  O   UNL     1      -7.156  19.802  68.808  1.00  0.00    -0.325 OA 
HETATM   24  H   UNL     1      -7.491  20.578  69.242  1.00  0.00     0.000 HD 
ENDBRANCH  19  22
ENDBRANCH  18  19
ENDBRANCH  16  18
ENDBRANCH  11  14
BRANCH  13  25
HETATM   25  C   UNL     1      -6.514  10.479  66.711  1.00  0.00    -0.081 C  
HETATM   26  O   UNL     1      -6.073   9.905  67.701  1.00  0.00    -0.053 OA 
HETATM   27  H   UNL     1      -6.558  10.583  64.623  1.00  0.00     0.000 HD 
HETATM   28  N   UNL     1      -6.137  10.121  65.429  1.00  0.00    -0.093 N  
BRANCH  28  29
HETATM   29  C   UNL     1      -5.134   9.080  65.235  1.00  0.00    -0.037 C  
BRANCH  29  30
HETATM   30  C   UNL     1      -5.160   8.486  63.821  1.00  0.00    -0.055 C  
HETATM   31  H   UNL     1      -5.635   6.758  63.008  1.00  0.00     0.000 HD 
HETATM   32  O   UNL     1      -5.619   7.126  63.883  1.00  0.00    -0.032 OA 
BRANCH  30  33
HETATM   33  C   UNL     1      -6.071   9.307  62.892  1.00  0.00    -0.093 C  
HETATM   34  O   UNL     1      -7.450   9.080  63.178  1.00  0.00    -0.096 OA 
HETATM   35  H   UNL     1      -8.012   9.587  62.604  1.00  0.00     0.000 HD 
ENDBRANCH  30  33
ENDBRANCH  29  30
ENDBRANCH  28  29
ENDBRANCH  13  25
ENDBRANCH   4   5
BRANCH   4  36
HETATM   36  C   UNL     1     -11.947  11.929  67.398  1.00  0.00    -0.017 C  
BRANCH  36  37
HETATM   37  C   UNL     1     -11.438  12.054  68.859  1.00  0.00    -0.301 C  
HETATM   38  O   UNL     1     -11.569  13.386  69.380  1.00  0.00    -0.279 OA 
HETATM   39  H   UNL     1     -11.258  13.462  70.274  1.00  0.00     0.000 HD 
BRANCH  37  40
HETATM   40  C   UNL     1     -12.164  11.129  69.841  1.00  0.00    -0.314 C  
HETATM   41  O   UNL     1     -11.235  10.646  70.818  1.00  0.00    -0.392 OA 
HETATM   42  H   UNL     1     -11.684  10.072  71.426  1.00  0.00     0.000 HD 
ENDBRANCH  37  40
ENDBRANCH  36  37
ENDBRANCH   4  36
TORSDOF 12
ENDMDL
MODEL      106
REMARK 921   NORMALIZED FREE ENERGY PREDICTED BY IDOCK:   -2.82 KCAL/MOL
REMARK 922        TOTAL FREE ENERGY PREDICTED BY IDOCK:   -5.99 KCAL/MOL
REMARK 923 INTER-LIGAND FREE ENERGY PREDICTED BY IDOCK:   -4.54 KCAL/MOL
REMARK 924 INTRA-LIGAND FREE ENERGY PREDICTED BY IDOCK:   -1.45 KCAL/MOL
REMARK 927      BINDING AFFINITY PREDICTED BY RF-SCORE:    0.00 PKD
ROOT
HETATM    1  C   UNL     1     -11.293  12.302  68.339  1.00  0.00    -0.340 C  
HETATM    2  C   UNL     1     -10.884  10.863  68.187  1.00  0.00    -0.234 C  
HETATM    3  O   UNL     1     -11.744  10.000  67.990  1.00  0.00    -0.086 OA 
HETATM    4  N   UNL     1      -9.523  10.563  68.294  1.00  0.00    -0.151 N  
ENDROOT
BRANCH   4   5
HETATM    5  C   UNL     1      -9.151   9.196  68.079  1.00  0.00    -0.131 A  
HETATM    6  C   UNL     1      -8.055   6.636  67.723  1.00  0.00    -0.116 A  
HETATM    7  C   UNL     1      -9.078   8.305  69.182  1.00  0.00    -0.148 A  
HETATM    8  C   UNL     1      -8.804   8.752  66.778  1.00  0.00    -0.129 A  
HETATM    9  I   UNL     1      -9.186  10.073  65.099  1.00  0.00    -0.348 I  
HETATM   10  I   UNL     1      -9.896   8.985  71.068  1.00  0.00    -0.340 I  
HETATM   11  C   UNL     1      -8.238   7.471  66.588  1.00  0.00    -0.125 A  
HETATM   12  I   UNL     1      -6.809   4.863  67.525  1.00  0.00    -0.062 I  
HETATM   13  C   UNL     1      -8.530   7.016  69.018  1.00  0.00    -0.129 A  
BRANCH  11  14
HETATM   14  C   UNL     1      -7.728   7.092  65.235  1.00  0.00    -0.114 C  
HETATM   15  O   UNL     1      -6.661   7.538  64.827  1.00  0.00    -0.046 OA 
HETATM   16  N   UNL     1      -8.509   6.235  64.493  1.00  0.00    -0.340 N  
HETATM   17  H   UNL     1      -9.377   5.877  64.890  1.00  0.00     0.000 HD 
BRANCH  16  18
HETATM   18  C   UNL     1      -8.114   5.829  63.144  1.00  0.00    -0.104 C  
BRANCH  18  19
HETATM   19  C   UNL     1      -7.773   4.337  63.073  1.00  0.00    -0.065 C  
HETATM   20  H   UNL     1      -6.175   3.227  63.353  1.00  0.00     0.000 HD 
HETATM   21  O   UNL     1      -6.386   4.152  63.396  1.00  0.00    -0.021 OA 
BRANCH  19  22
HETATM   22  C   UNL     1      -8.662   3.511  64.016  1.00  0.00    -0.093 C  
HETATM   23  O   UNL     1     -10.047   3.744  63.761  1.00  0.00    -0.173 OA 
HETATM   24  H   UNL     1     -10.597   3.234  64.344  1.00  0.00     0.000 HD 
ENDBRANCH  19  22
ENDBRANCH  18  19
ENDBRANCH  16  18
ENDBRANCH  11  14
BRANCH  13  25
HETATM   25  C   UNL     1      -8.498   6.012  70.133  1.00  0.00    -0.127 C  
HETATM   26  O   UNL     1      -7.594   6.060  70.960  1.00  0.00    -0.092 OA 
HETATM   27  H   UNL     1     -10.260   5.067  69.521  1.00  0.00     0.000 HD 
HETATM   28  N   UNL     1      -9.492   5.051  70.192  1.00  0.00    -0.155 N  
BRANCH  28  29
HETATM   29  C   UNL     1      -9.437   4.016  71.218  1.00  0.00    -0.163 C  
BRANCH  29  30
HETATM   30  C   UNL     1      -8.717   2.747  70.743  1.00  0.00    -0.075 C  
HETATM   31  H   UNL     1      -7.882   1.179  71.590  1.00  0.00     0.000 HD 
HETATM   32  O   UNL     1      -8.327   1.964  71.884  1.00  0.00    -0.051 OA 
BRANCH  30  33
HETATM   33  C   UNL     1      -9.618   1.913  69.816  1.00  0.00     0.017 C  
HETATM   34  O   UNL     1      -9.141   1.929  68.472  1.00  0.00    -0.113 OA 
HETATM   35  H   UNL     1      -9.697   1.414  67.899  1.00  0.00     0.000 HD 
ENDBRANCH  30  33
ENDBRANCH  29  30
ENDBRANCH  28  29
ENDBRANCH  13  25
ENDBRANCH   4   5
BRANCH   4  36
HETATM   36  C   UNL     1      -8.446  11.557  68.559  1.00  0.00    -0.143 C  
BRANCH  36  37
HETATM   37  C   UNL     1      -6.978  11.079  68.396  1.00  0.00    -0.071 C  
HETATM   38  O   UNL     1      -6.225  11.899  67.490  1.00  0.00    -0.075 OA 
HETATM   39  H   UNL     1      -5.327  11.606  67.389  1.00  0.00     0.000 HD 
BRANCH  37  40
HETATM   40  C   UNL     1      -6.193  11.048  69.711  1.00  0.00    -0.113 C  
HETATM   41  O   UNL     1      -5.450  12.264  69.852  1.00  0.00    -0.081 OA 
HETATM   42  H   UNL     1      -4.963  12.245  70.668  1.00  0.00     0.000 HD 
ENDBRANCH  37  40
ENDBRANCH  36  37
ENDBRANCH   4  36
TORSDOF 12
ENDMDL
MODEL      107
REMARK 921   NORMALIZED FREE ENERGY PREDICTED BY IDOCK:   -2.76 KCAL/MOL
REMARK 922        TOTAL FREE ENERGY PREDICTED BY IDOCK:   -5.90 KCAL/MOL
REMARK 923 INTER-LIGAND FREE ENERGY PREDICTED BY IDOCK:   -6.07 KCAL/MOL
REMARK 924 INTRA-LIGAND FREE ENERGY PREDICTED BY IDOCK:    0.17 KCAL/MOL
REMARK 927      BINDING AFFINITY PREDICTED BY RF-SCORE:    0.00 PKD
ROOT
HETATM    1  C   UNL     1      -9.475   7.429  73.762  1.00  0.00    -0.328 C  
HETATM    2  C   UNL     1      -9.031   7.991  72.440  1.00  0.00    -0.176 C  
HETATM    3  O   UNL     1      -8.386   9.042  72.406  1.00  0.00    -0.342 OA 
HETATM    4  N   UNL     1      -9.390   7.287  71.286  1.00  0.00    -0.155 N  
ENDROOT
BRANCH   4   5
HETATM    5  C   UNL     1      -8.899   7.805  70.043  1.00  0.00    -0.142 A  
HETATM    6  C   UNL     1      -8.172   8.558  67.438  1.00  0.00    -0.109 A  
HETATM    7  C   UNL     1      -9.590   8.867  69.401  1.00  0.00    -0.163 A  
HETATM    8  C   UNL     1      -7.760   7.221  69.433  1.00  0.00    -0.107 A  
HETATM    9  I   UNL     1      -6.594   5.791  70.575  1.00  0.00    -0.047 I  
HETATM   10  I   UNL     1     -11.133   9.881  70.533  1.00  0.00    -0.407 I  
HETATM   11  C   UNL     1      -7.393   7.581  68.116  1.00  0.00    -0.096 A  
HETATM   12  I   UNL     1      -7.894   8.809  65.294  1.00  0.00    -0.129 I  
HETATM   13  C   UNL     1      -9.235   9.255  68.093  1.00  0.00    -0.136 A  
BRANCH  11  14
HETATM   14  C   UNL     1      -6.293   6.833  67.436  1.00  0.00    -0.044 C  
HETATM   15  O   UNL     1      -5.150   7.277  67.432  1.00  0.00    -0.015 OA 
HETATM   16  N   UNL     1      -6.630   5.644  66.829  1.00  0.00    -0.054 N  
HETATM   17  H   UNL     1      -7.592   5.309  66.882  1.00  0.00     0.000 HD 
BRANCH  16  18
HETATM   18  C   UNL     1      -5.632   4.852  66.110  1.00  0.00    -0.017 C  
BRANCH  18  19
HETATM   19  C   UNL     1      -6.275   3.931  65.069  1.00  0.00    -0.024 C  
HETATM   20  H   UNL     1      -6.834   4.079  63.190  1.00  0.00     0.000 HD 
HETATM   21  O   UNL     1      -6.435   4.650  63.836  1.00  0.00    -0.035 OA 
BRANCH  19  22
HETATM   22  C   UNL     1      -5.441   2.660  64.849  1.00  0.00    -0.009 C  
HETATM   23  O   UNL     1      -5.547   2.193  63.505  1.00  0.00    -0.008 OA 
HETATM   24  H   UNL     1      -5.032   1.406  63.370  1.00  0.00     0.000 HD 
ENDBRANCH  19  22
ENDBRANCH  18  19
ENDBRANCH  16  18
ENDBRANCH  11  14
BRANCH  13  25
HETATM   25  C   UNL     1      -9.884  10.418  67.400  1.00  0.00    -0.178 C  
HETATM   26  O   UNL     1     -10.991  10.273  66.892  1.00  0.00    -0.190 OA 
HETATM   27  H   UNL     1      -8.310  11.728  67.820  1.00  0.00     0.000 HD 
HETATM   28  N   UNL     1      -9.207  11.623  67.346  1.00  0.00    -0.166 N  
BRANCH  28  29
HETATM   29  C   UNL     1      -9.781  12.742  66.607  1.00  0.00    -0.252 C  
BRANCH  29  30
HETATM   30  C   UNL     1     -10.733  13.590  67.461  1.00  0.00    -0.259 C  
HETATM   31  H   UNL     1     -10.827  15.463  68.059  1.00  0.00     0.000 HD 
HETATM   32  O   UNL     1     -10.237  14.938  67.531  1.00  0.00    -0.232 OA 
BRANCH  30  33
HETATM   33  C   UNL     1     -12.156  13.583  66.878  1.00  0.00    -0.368 C  
HETATM   34  O   UNL     1     -12.343  12.498  65.970  1.00  0.00    -0.615 OA 
HETATM   35  H   UNL     1     -13.222  12.493  65.610  1.00  0.00     0.000 HD 
ENDBRANCH  30  33
ENDBRANCH  29  30
ENDBRANCH  28  29
ENDBRANCH  13  25
ENDBRANCH   4   5
BRANCH   4  36
HETATM   36  C   UNL     1     -10.190   6.031  71.263  1.00  0.00    -0.205 C  
BRANCH  36  37
HETATM   37  C   UNL     1     -11.500   6.035  70.431  1.00  0.00    -0.164 C  
HETATM   38  O   UNL     1     -12.360   7.138  70.756  1.00  0.00    -0.516 OA 
HETATM   39  H   UNL     1     -13.162   7.140  70.247  1.00  0.00     0.000 HD 
BRANCH  37  40
HETATM   40  C   UNL     1     -11.265   6.098  68.918  1.00  0.00    -0.261 C  
HETATM   41  O   UNL     1     -10.386   5.038  68.527  1.00  0.00    -0.124 OA 
HETATM   42  H   UNL     1     -10.239   5.077  67.590  1.00  0.00     0.000 HD 
ENDBRANCH  37  40
ENDBRANCH  36  37
ENDBRANCH   4  36
TORSDOF 12
ENDMDL
MODEL      108
REMARK 921   NORMALIZED FREE ENERGY PREDICTED BY IDOCK:   -2.67 KCAL/MOL
REMARK 922        TOTAL FREE ENERGY PREDICTED BY IDOCK:   -5.74 KCAL/MOL
REMARK 923 INTER-LIGAND FREE ENERGY PREDICTED BY IDOCK:   -5.98 KCAL/MOL
REMARK 924 INTRA-LIGAND FREE ENERGY PREDICTED BY IDOCK:    0.24 KCAL/MOL
REMARK 927      BINDING AFFINITY PREDICTED BY RF-SCORE:    0.00 PKD
ROOT
HETATM    1  C   UNL     1     -12.730  15.312  70.302  1.00  0.00    -0.353 C  
HETATM    2  C   UNL     1     -11.716  14.407  69.658  1.00  0.00    -0.309 C  
HETATM    3  O   UNL     1     -11.580  13.251  70.066  1.00  0.00    -0.242 OA 
HETATM    4  N   UNL     1     -10.949  14.937  68.616  1.00  0.00    -0.247 N  
ENDROOT
BRANCH   4   5
HETATM    5  C   UNL     1     -10.037  14.036  67.973  1.00  0.00    -0.239 A  
HETATM    6  C   UNL     1      -8.377  12.006  66.972  1.00  0.00    -0.178 A  
HETATM    7  C   UNL     1     -10.487  13.230  66.894  1.00  0.00    -0.261 A  
HETATM    8  C   UNL     1      -8.708  13.912  68.452  1.00  0.00    -0.173 A  
HETATM    9  I   UNL     1      -8.000  15.346  69.919  1.00  0.00     0.837 I  
HETATM   10  I   UNL     1     -12.428  13.689  66.050  1.00  0.00    -0.233 I  
HETATM   11  C   UNL     1      -7.868  12.885  67.966  1.00  0.00    -0.149 A  
HETATM   12  I   UNL     1      -7.276  10.182  66.529  1.00  0.00    -0.121 I  
HETATM   13  C   UNL     1      -9.664  12.207  66.381  1.00  0.00    -0.243 A  
BRANCH  11  14
HETATM   14  C   UNL     1      -6.533  12.672  68.604  1.00  0.00    -0.079 C  
HETATM   15  O   UNL     1      -5.515  13.097  68.069  1.00  0.00    -0.089 OA 
HETATM   16  N   UNL     1      -6.515  11.988  69.798  1.00  0.00    -0.288 N  
HETATM   17  H   UNL     1      -7.394  11.676  70.211  1.00  0.00     0.000 HD 
BRANCH  16  18
HETATM   18  C   UNL     1      -5.256  11.701  70.487  1.00  0.00    -0.117 C  
BRANCH  18  19
HETATM   19  C   UNL     1      -5.313  10.374  71.250  1.00  0.00    -0.074 C  
HETATM   20  H   UNL     1      -5.524   9.818  73.124  1.00  0.00     0.000 HD 
HETATM   21  O   UNL     1      -5.489  10.641  72.650  1.00  0.00    -0.233 OA 
BRANCH  19  22
HETATM   22  C   UNL     1      -6.439   9.470  70.726  1.00  0.00    -0.097 C  
HETATM   23  O   UNL     1      -5.939   8.197  70.320  1.00  0.00    -0.029 OA 
HETATM   24  H   UNL     1      -6.635   7.638  69.996  1.00  0.00     0.000 HD 
ENDBRANCH  19  22
ENDBRANCH  18  19
ENDBRANCH  16  18
ENDBRANCH  11  14
BRANCH  13  25
HETATM   25  C   UNL     1     -10.063  11.378  65.195  1.00  0.00    -0.271 C  
HETATM   26  O   UNL     1     -11.221  10.987  65.098  1.00  0.00    -0.027 OA 
HETATM   27  H   UNL     1      -8.162  11.453  64.326  1.00  0.00     0.000 HD 
HETATM   28  N   UNL     1      -9.105  11.071  64.246  1.00  0.00    -0.149 N  
BRANCH  28  29
HETATM   29  C   UNL     1      -9.449  10.200  63.128  1.00  0.00    -0.255 C  
BRANCH  29  30
HETATM   30  C   UNL     1      -8.216   9.713  62.353  1.00  0.00    -0.136 C  
HETATM   31  H   UNL     1      -6.460  10.449  61.858  1.00  0.00     0.000 HD 
HETATM   32  O   UNL     1      -7.222  10.751  62.337  1.00  0.00    -0.136 OA 
BRANCH  30  33
HETATM   33  C   UNL     1      -7.634   8.436  62.984  1.00  0.00    -0.120 C  
HETATM   34  O   UNL     1      -8.558   7.352  62.917  1.00  0.00    -0.365 OA 
HETATM   35  H   UNL     1      -8.199   6.563  63.307  1.00  0.00     0.000 HD 
ENDBRANCH  30  33
ENDBRANCH  29  30
ENDBRANCH  28  29
ENDBRANCH  13  25
ENDBRANCH   4   5
BRANCH   4  36
HETATM   36  C   UNL     1     -11.048  16.331  68.102  1.00  0.00    -0.329 C  
BRANCH  36  37
HETATM   37  C   UNL     1      -9.999  16.779  67.049  1.00  0.00    -0.269 C  
HETATM   38  O   UNL     1     -10.519  16.769  65.710  1.00  0.00    -0.389 OA 
HETATM   39  H   UNL     1      -9.877  17.043  65.066  1.00  0.00     0.000 HD 
BRANCH  37  40
HETATM   40  C   UNL     1      -9.450  18.188  67.292  1.00  0.00    -0.260 C  
HETATM   41  O   UNL     1      -9.799  18.615  68.614  1.00  0.00    -0.354 OA 
HETATM   42  H   UNL     1      -9.459  19.489  68.764  1.00  0.00     0.000 HD 
ENDBRANCH  37  40
ENDBRANCH  36  37
ENDBRANCH   4  36
TORSDOF 12
ENDMDL
MODEL      109
REMARK 921   NORMALIZED FREE ENERGY PREDICTED BY IDOCK:   -2.63 KCAL/MOL
REMARK 922        TOTAL FREE ENERGY PREDICTED BY IDOCK:   -5.67 KCAL/MOL
REMARK 923 INTER-LIGAND FREE ENERGY PREDICTED BY IDOCK:   -5.57 KCAL/MOL
REMARK 924 INTRA-LIGAND FREE ENERGY PREDICTED BY IDOCK:   -0.10 KCAL/MOL
REMARK 927      BINDING AFFINITY PREDICTED BY RF-SCORE:    0.00 PKD
ROOT
HETATM    1  C   UNL     1      -8.233   6.158  72.513  1.00  0.00    -0.108 C  
HETATM    2  C   UNL     1      -8.182   6.585  71.072  1.00  0.00    -0.121 C  
HETATM    3  O   UNL     1      -7.186   7.173  70.642  1.00  0.00    -0.065 OA 
HETATM    4  N   UNL     1      -9.295   6.303  70.275  1.00  0.00    -0.160 N  
ENDROOT
BRANCH   4   5
HETATM    5  C   UNL     1      -9.196   6.660  68.890  1.00  0.00    -0.130 A  
HETATM    6  C   UNL     1      -8.631   7.454  66.257  1.00  0.00    -0.142 A  
HETATM    7  C   UNL     1      -8.762   5.694  67.944  1.00  0.00    -0.107 A  
HETATM    8  C   UNL     1      -9.477   7.988  68.478  1.00  0.00    -0.142 A  
HETATM    9  I   UNL     1     -10.385   9.343  69.909  1.00  0.00    -0.328 I  
HETATM   10  I   UNL     1      -8.635   3.636  68.607  1.00  0.00    -0.168 I  
HETATM   11  C   UNL     1      -9.183   8.403  67.160  1.00  0.00    -0.174 A  
HETATM   12  I   UNL     1      -7.780   8.166  64.385  1.00  0.00    -0.128 I  
HETATM   13  C   UNL     1      -8.475   6.079  66.618  1.00  0.00    -0.112 A  
BRANCH  11  14
HETATM   14  C   UNL     1      -9.332   9.845  66.800  1.00  0.00    -0.151 C  
HETATM   15  O   UNL     1     -10.367  10.253  66.283  1.00  0.00    -0.230 OA 
HETATM   16  N   UNL     1      -8.265  10.670  67.075  1.00  0.00    -0.121 N  
HETATM   17  H   UNL     1      -7.435  10.283  67.527  1.00  0.00     0.000 HD 
BRANCH  16  18
HETATM   18  C   UNL     1      -8.299  12.092  66.732  1.00  0.00    -0.111 C  
BRANCH  18  19
HETATM   19  C   UNL     1      -7.122  12.857  67.346  1.00  0.00    -0.125 C  
HETATM   20  H   UNL     1      -6.699  14.733  67.749  1.00  0.00     0.000 HD 
HETATM   21  O   UNL     1      -7.428  14.259  67.368  1.00  0.00    -0.182 OA 
BRANCH  19  22
HETATM   22  C   UNL     1      -6.799  12.352  68.761  1.00  0.00    -0.092 C  
HETATM   23  O   UNL     1      -7.957  11.812  69.398  1.00  0.00    -0.334 OA 
HETATM   24  H   UNL     1      -7.757  11.500  70.273  1.00  0.00     0.000 HD 
ENDBRANCH  19  22
ENDBRANCH  18  19
ENDBRANCH  16  18
ENDBRANCH  11  14
BRANCH  13  25
HETATM   25  C   UNL     1      -8.085   5.084  65.564  1.00  0.00    -0.115 C  
HETATM   26  O   UNL     1      -6.907   4.761  65.449  1.00  0.00    -0.057 OA 
HETATM   27  H   UNL     1     -10.047   4.814  64.894  1.00  0.00     0.000 HD 
HETATM   28  N   UNL     1      -9.069   4.566  64.742  1.00  0.00    -0.151 N  
BRANCH  28  29
HETATM   29  C   UNL     1      -8.703   3.661  63.658  1.00  0.00    -0.096 C  
BRANCH  29  30
HETATM   30  C   UNL     1      -9.392   2.294  63.767  1.00  0.00    -0.109 C  
HETATM   31  H   UNL     1      -9.759   0.992  65.195  1.00  0.00     0.000 HD 
HETATM   32  O   UNL     1      -9.333   1.838  65.128  1.00  0.00    -0.113 OA 
BRANCH  30  33
HETATM   33  C   UNL     1     -10.856   2.372  63.300  1.00  0.00    -0.234 C  
HETATM   34  O   UNL     1     -11.046   3.417  62.348  1.00  0.00    -0.115 OA 
HETATM   35  H   UNL     1     -11.950   3.465  62.060  1.00  0.00     0.000 HD 
ENDBRANCH  30  33
ENDBRANCH  29  30
ENDBRANCH  28  29
ENDBRANCH  13  25
ENDBRANCH   4   5
BRANCH   4  36
HETATM   36  C   UNL     1     -10.535   5.624  70.744  1.00  0.00    -0.265 C  
BRANCH  36  37
HETATM   37  C   UNL     1     -11.282   6.256  71.949  1.00  0.00    -0.283 C  
HETATM   38  O   UNL     1     -12.624   6.649  71.625  1.00  0.00    -0.347 OA 
HETATM   39  H   UNL     1     -13.081   7.036  72.363  1.00  0.00     0.000 HD 
BRANCH  37  40
HETATM   40  C   UNL     1     -11.381   5.327  73.164  1.00  0.00    -0.291 C  
HETATM   41  O   UNL     1     -10.793   4.061  72.846  1.00  0.00    -0.167 OA 
HETATM   42  H   UNL     1     -10.855   3.485  73.599  1.00  0.00     0.000 HD 
ENDBRANCH  37  40
ENDBRANCH  36  37
ENDBRANCH   4  36
TORSDOF 12
ENDMDL
MODEL      110
REMARK 921   NORMALIZED FREE ENERGY PREDICTED BY IDOCK:   -2.62 KCAL/MOL
REMARK 922        TOTAL FREE ENERGY PREDICTED BY IDOCK:   -5.66 KCAL/MOL
REMARK 923 INTER-LIGAND FREE ENERGY PREDICTED BY IDOCK:   -5.66 KCAL/MOL
REMARK 924 INTRA-LIGAND FREE ENERGY PREDICTED BY IDOCK:   -0.01 KCAL/MOL
REMARK 927      BINDING AFFINITY PREDICTED BY RF-SCORE:    0.00 PKD
ROOT
HETATM    1  C   UNL     1      -8.002  10.530  65.360  1.00  0.00    -0.129 C  
HETATM    2  C   UNL     1      -8.297  10.329  66.821  1.00  0.00    -0.124 C  
HETATM    3  O   UNL     1      -7.777  11.072  67.659  1.00  0.00    -0.107 OA 
HETATM    4  N   UNL     1      -9.151   9.279  67.169  1.00  0.00    -0.129 N  
ENDROOT
BRANCH   4   5
HETATM    5  C   UNL     1      -9.470   9.149  68.560  1.00  0.00    -0.146 A  
HETATM    6  C   UNL     1     -10.338   8.607  71.174  1.00  0.00    -0.230 A  
HETATM    7  C   UNL     1      -8.739   8.238  69.368  1.00  0.00    -0.142 A  
HETATM    8  C   UNL     1     -10.549   9.886  69.112  1.00  0.00    -0.220 A  
HETATM    9  I   UNL     1     -11.455  11.448  67.909  1.00  0.00    -0.248 I  
HETATM   10  I   UNL     1      -6.941   7.377  68.521  1.00  0.00    -0.085 I  
HETATM   11  C   UNL     1     -11.004   9.613  70.422  1.00  0.00    -0.356 A  
HETATM   12  I   UNL     1     -11.275   7.877  72.998  1.00  0.00     0.411 I  
HETATM   13  C   UNL     1      -9.163   7.957  70.683  1.00  0.00    -0.157 A  
BRANCH  11  14
HETATM   14  C   UNL     1     -12.242  10.285  70.918  1.00  0.00    -0.365 C  
HETATM   15  O   UNL     1     -13.326   9.713  70.857  1.00  0.00    -0.279 OA 
HETATM   16  N   UNL     1     -12.099  11.552  71.435  1.00  0.00    -0.085 N  
HETATM   17  H   UNL     1     -11.171  11.973  71.483  1.00  0.00     0.000 HD 
BRANCH  16  18
HETATM   18  C   UNL     1     -13.256  12.307  71.918  1.00  0.00    -0.376 C  
BRANCH  18  19
HETATM   19  C   UNL     1     -13.069  13.817  71.736  1.00  0.00    -0.379 C  
HETATM   20  H   UNL     1     -14.073  15.283  70.897  1.00  0.00     0.000 HD 
HETATM   21  O   UNL     1     -14.189  14.348  71.010  1.00  0.00    -0.159 OA 
BRANCH  19  22
HETATM   22  C   UNL     1     -12.912  14.532  73.086  1.00  0.00    -0.472 C  
HETATM   23  O   UNL     1     -12.917  15.950  72.929  1.00  0.00    -0.439 OA 
HETATM   24  H   UNL     1     -12.819  16.392  73.764  1.00  0.00     0.000 HD 
ENDBRANCH  19  22
ENDBRANCH  18  19
ENDBRANCH  16  18
ENDBRANCH  11  14
BRANCH  13  25
HETATM   25  C   UNL     1      -8.384   7.060  71.600  1.00  0.00    -0.108 C  
HETATM   26  O   UNL     1      -7.594   7.555  72.397  1.00  0.00    -0.081 OA 
HETATM   27  H   UNL     1      -9.276   5.312  70.877  1.00  0.00     0.000 HD 
HETATM   28  N   UNL     1      -8.575   5.692  71.513  1.00  0.00    -0.131 N  
BRANCH  28  29
HETATM   29  C   UNL     1      -7.770   4.797  72.336  1.00  0.00    -0.091 C  
BRANCH  29  30
HETATM   30  C   UNL     1      -8.616   3.756  73.083  1.00  0.00    -0.094 C  
HETATM   31  H   UNL     1      -9.053   3.355  74.959  1.00  0.00     0.000 HD 
HETATM   32  O   UNL     1      -8.530   3.999  74.497  1.00  0.00    -0.091 OA 
BRANCH  30  33
HETATM   33  C   UNL     1     -10.084   3.805  72.629  1.00  0.00    -0.163 C  
HETATM   34  O   UNL     1     -10.240   3.290  71.307  1.00  0.00     0.031 OA 
HETATM   35  H   UNL     1     -11.147   3.320  71.026  1.00  0.00     0.000 HD 
ENDBRANCH  30  33
ENDBRANCH  29  30
ENDBRANCH  28  29
ENDBRANCH  13  25
ENDBRANCH   4   5
BRANCH   4  36
HETATM   36  C   UNL     1      -9.783   8.334  66.206  1.00  0.00    -0.183 C  
BRANCH  36  37
HETATM   37  C   UNL     1     -10.136   6.915  66.727  1.00  0.00    -0.194 C  
HETATM   38  O   UNL     1     -11.296   6.908  67.572  1.00  0.00    -0.597 OA 
HETATM   39  H   UNL     1     -11.513   6.039  67.891  1.00  0.00     0.000 HD 
BRANCH  37  40
HETATM   40  C   UNL     1     -10.405   5.902  65.609  1.00  0.00     0.733 C  
HETATM   41  O   UNL     1     -11.293   4.886  66.089  1.00  0.00    -0.473 OA 
HETATM   42  H   UNL     1     -11.459   4.258  65.396  1.00  0.00     0.000 HD 
ENDBRANCH  37  40
ENDBRANCH  36  37
ENDBRANCH   4  36
TORSDOF 12
ENDMDL
MODEL      111
REMARK 921   NORMALIZED FREE ENERGY PREDICTED BY IDOCK:   -2.59 KCAL/MOL
REMARK 922        TOTAL FREE ENERGY PREDICTED BY IDOCK:   -5.61 KCAL/MOL
REMARK 923 INTER-LIGAND FREE ENERGY PREDICTED BY IDOCK:   -7.00 KCAL/MOL
REMARK 924 INTRA-LIGAND FREE ENERGY PREDICTED BY IDOCK:    1.39 KCAL/MOL
REMARK 927      BINDING AFFINITY PREDICTED BY RF-SCORE:    0.00 PKD
ROOT
HETATM    1  C   UNL     1      -8.007   5.200  69.450  1.00  0.00    -0.084 C  
HETATM    2  C   UNL     1      -7.843   6.577  68.867  1.00  0.00    -0.110 C  
HETATM    3  O   UNL     1      -7.092   6.749  67.903  1.00  0.00    -0.080 OA 
HETATM    4  N   UNL     1      -8.552   7.621  69.468  1.00  0.00    -0.132 N  
ENDROOT
BRANCH   4   5
HETATM    5  C   UNL     1      -8.433   8.911  68.854  1.00  0.00    -0.131 A  
HETATM    6  C   UNL     1      -8.480  11.550  67.899  1.00  0.00    -0.142 A  
HETATM    7  C   UNL     1      -7.543   9.872  69.404  1.00  0.00    -0.113 A  
HETATM    8  C   UNL     1      -9.242   9.242  67.738  1.00  0.00    -0.129 A  
HETATM    9  I   UNL     1     -10.381   7.662  66.782  1.00  0.00     0.075 I  
HETATM   10  I   UNL     1      -6.150   9.191  70.916  1.00  0.00    -0.073 I  
HETATM   11  C   UNL     1      -9.285  10.570  67.257  1.00  0.00    -0.156 A  
HETATM   12  I   UNL     1      -8.849  13.651  67.466  1.00  0.00    -0.249 I  
HETATM   13  C   UNL     1      -7.556  11.201  68.933  1.00  0.00    -0.133 A  
BRANCH  11  14
HETATM   14  C   UNL     1     -10.267  10.928  66.189  1.00  0.00    -0.249 C  
HETATM   15  O   UNL     1     -10.159  10.456  65.063  1.00  0.00    -0.309 OA 
HETATM   16  N   UNL     1     -11.277  11.797  66.537  1.00  0.00    -0.318 N  
HETATM   17  H   UNL     1     -11.333  12.143  67.495  1.00  0.00     0.000 HD 
BRANCH  16  18
HETATM   18  C   UNL     1     -12.270  12.233  65.555  1.00  0.00    -0.168 C  
BRANCH  18  19
HETATM   19  C   UNL     1     -11.643  13.086  64.448  1.00  0.00    -0.369 C  
HETATM   20  H   UNL     1     -11.567  13.036  62.485  1.00  0.00     0.000 HD 
HETATM   21  O   UNL     1     -11.956  12.507  63.171  1.00  0.00    -0.450 OA 
BRANCH  19  22
HETATM   22  C   UNL     1     -12.129  14.542  64.515  1.00  0.00    -0.484 C  
HETATM   23  O   UNL     1     -11.038  15.459  64.431  1.00  0.00    -0.676 OA 
HETATM   24  H   UNL     1     -11.339  16.359  64.473  1.00  0.00     0.000 HD 
ENDBRANCH  19  22
ENDBRANCH  18  19
ENDBRANCH  16  18
ENDBRANCH  11  14
BRANCH  13  25
HETATM   25  C   UNL     1      -6.586  12.234  69.429  1.00  0.00    -0.081 C  
HETATM   26  O   UNL     1      -6.318  12.282  70.624  1.00  0.00    -0.115 OA 
HETATM   27  H   UNL     1      -6.229  13.016  67.523  1.00  0.00     0.000 HD 
HETATM   28  N   UNL     1      -6.027  13.112  68.518  1.00  0.00    -0.076 N  
BRANCH  28  29
HETATM   29  C   UNL     1      -5.146  14.176  68.987  1.00  0.00    -0.075 C  
BRANCH  29  30
HETATM   30  C   UNL     1      -5.914  15.363  69.585  1.00  0.00    -0.130 C  
HETATM   31  H   UNL     1      -5.791  16.470  71.207  1.00  0.00     0.000 HD 
HETATM   32  O   UNL     1      -5.315  15.736  70.837  1.00  0.00    -0.156 OA 
BRANCH  30  33
HETATM   33  C   UNL     1      -5.916  16.563  68.623  1.00  0.00    -0.132 C  
HETATM   34  O   UNL     1      -7.182  17.220  68.610  1.00  0.00    -0.210 OA 
HETATM   35  H   UNL     1      -7.183  17.962  68.016  1.00  0.00     0.000 HD 
ENDBRANCH  30  33
ENDBRANCH  29  30
ENDBRANCH  28  29
ENDBRANCH  13  25
ENDBRANCH   4   5
BRANCH   4  36
HETATM   36  C   UNL     1      -9.449   7.479  70.649  1.00  0.00    -0.164 C  
BRANCH  36  37
HETATM   37  C   UNL     1     -10.936   7.887  70.469  1.00  0.00    -0.248 C  
HETATM   38  O   UNL     1     -11.792   6.763  70.217  1.00  0.00    -0.514 OA 
HETATM   39  H   UNL     1     -12.702   7.013  70.107  1.00  0.00     0.000 HD 
BRANCH  37  40
HETATM   40  C   UNL     1     -11.521   8.618  71.682  1.00  0.00    -0.305 C  
HETATM   41  O   UNL     1     -12.467   9.598  71.238  1.00  0.00    -0.316 OA 
HETATM   42  H   UNL     1     -12.829  10.051  71.990  1.00  0.00     0.000 HD 
ENDBRANCH  37  40
ENDBRANCH  36  37
ENDBRANCH   4  36
TORSDOF 12
ENDMDL
MODEL      112
REMARK 921   NORMALIZED FREE ENERGY PREDICTED BY IDOCK:   -2.58 KCAL/MOL
REMARK 922        TOTAL FREE ENERGY PREDICTED BY IDOCK:   -5.59 KCAL/MOL
REMARK 923 INTER-LIGAND FREE ENERGY PREDICTED BY IDOCK:   -4.74 KCAL/MOL
REMARK 924 INTRA-LIGAND FREE ENERGY PREDICTED BY IDOCK:   -0.85 KCAL/MOL
REMARK 927      BINDING AFFINITY PREDICTED BY RF-SCORE:    0.00 PKD
ROOT
HETATM    1  C   UNL     1     -11.156  10.638  70.269  1.00  0.00    -0.310 C  
HETATM    2  C   UNL     1     -10.009   9.720  69.949  1.00  0.00    -0.245 C  
HETATM    3  O   UNL     1      -8.912  10.194  69.640  1.00  0.00    -0.202 OA 
HETATM    4  N   UNL     1     -10.249   8.344  70.002  1.00  0.00    -0.197 N  
ENDROOT
BRANCH   4   5
HETATM    5  C   UNL     1      -9.124   7.489  69.759  1.00  0.00    -0.140 A  
HETATM    6  C   UNL     1      -7.163   5.520  69.365  1.00  0.00    -0.065 A  
HETATM    7  C   UNL     1      -8.904   6.969  68.456  1.00  0.00    -0.124 A  
HETATM    8  C   UNL     1      -8.269   7.122  70.829  1.00  0.00    -0.120 A  
HETATM    9  I   UNL     1      -8.491   8.147  72.729  1.00  0.00    -0.195 I  
HETATM   10  I   UNL     1     -10.077   7.805  66.838  1.00  0.00    -0.283 I  
HETATM   11  C   UNL     1      -7.288   6.121  70.647  1.00  0.00    -0.086 A  
HETATM   12  I   UNL     1      -5.977   3.705  69.175  1.00  0.00    -0.025 I  
HETATM   13  C   UNL     1      -7.922   5.980  68.244  1.00  0.00    -0.106 A  
BRANCH  11  14
HETATM   14  C   UNL     1      -6.514   5.635  71.829  1.00  0.00    -0.049 C  
HETATM   15  O   UNL     1      -5.378   6.046  72.039  1.00  0.00    -0.021 OA 
HETATM   16  N   UNL     1      -7.136   4.721  72.648  1.00  0.00    -0.075 N  
HETATM   17  H   UNL     1      -8.091   4.429  72.440  1.00  0.00     0.000 HD 
BRANCH  16  18
HETATM   18  C   UNL     1      -6.452   4.160  73.814  1.00  0.00    -0.050 C  
BRANCH  18  19
HETATM   19  C   UNL     1      -6.531   2.630  73.841  1.00  0.00    -0.021 C  
HETATM   20  H   UNL     1      -5.451   1.163  74.579  1.00  0.00     0.000 HD 
HETATM   21  O   UNL     1      -5.402   2.112  74.561  1.00  0.00     0.000 OA 
BRANCH  19  22
HETATM   22  C   UNL     1      -7.844   2.146  74.473  1.00  0.00    -0.045 C  
HETATM   23  O   UNL     1      -8.978   2.694  73.802  1.00  0.00    -0.074 OA 
HETATM   24  H   UNL     1      -9.791   2.394  74.193  1.00  0.00     0.000 HD 
ENDBRANCH  19  22
ENDBRANCH  18  19
ENDBRANCH  16  18
ENDBRANCH  11  14
BRANCH  13  25
HETATM   25  C   UNL     1      -7.601   5.453  66.875  1.00  0.00    -0.089 C  
HETATM   26  O   UNL     1      -7.983   4.331  66.558  1.00  0.00    -0.097 OA 
HETATM   27  H   UNL     1      -6.611   7.196  66.282  1.00  0.00     0.000 HD 
HETATM   28  N   UNL     1      -6.872   6.248  66.010  1.00  0.00    -0.056 N  
BRANCH  28  29
HETATM   29  C   UNL     1      -6.478   5.726  64.707  1.00  0.00    -0.041 C  
BRANCH  29  30
HETATM   30  C   UNL     1      -7.297   6.324  63.555  1.00  0.00    -0.068 C  
HETATM   31  H   UNL     1      -9.103   6.083  62.814  1.00  0.00     0.000 HD 
HETATM   32  O   UNL     1      -8.597   5.713  63.527  1.00  0.00    -0.042 OA 
BRANCH  30  33
HETATM   33  C   UNL     1      -7.434   7.848  63.705  1.00  0.00    -0.114 C  
HETATM   34  O   UNL     1      -8.785   8.271  63.526  1.00  0.00    -0.411 OA 
HETATM   35  H   UNL     1      -8.870   9.213  63.619  1.00  0.00     0.000 HD 
ENDBRANCH  30  33
ENDBRANCH  29  30
ENDBRANCH  28  29
ENDBRANCH  13  25
ENDBRANCH   4   5
BRANCH   4  36
HETATM   36  C   UNL     1     -11.556   7.715  70.339  1.00  0.00    -0.119 C  
BRANCH  36  37
HETATM   37  C   UNL     1     -11.905   7.557  71.843  1.00  0.00    -0.296 C  
HETATM   38  O   UNL     1     -13.173   8.139  72.182  1.00  0.00    -0.435 OA 
HETATM   39  H   UNL     1     -13.386   8.042  73.103  1.00  0.00     0.000 HD 
BRANCH  37  40
HETATM   40  C   UNL     1     -11.956   6.098  72.311  1.00  0.00    -0.232 C  
HETATM   41  O   UNL     1     -13.306   5.747  72.634  1.00  0.00    -0.309 OA 
HETATM   42  H   UNL     1     -13.337   4.843  72.924  1.00  0.00     0.000 HD 
ENDBRANCH  37  40
ENDBRANCH  36  37
ENDBRANCH   4  36
TORSDOF 12
ENDMDL
MODEL      113
REMARK 921   NORMALIZED FREE ENERGY PREDICTED BY IDOCK:   -2.58 KCAL/MOL
REMARK 922        TOTAL FREE ENERGY PREDICTED BY IDOCK:   -5.59 KCAL/MOL
REMARK 923 INTER-LIGAND FREE ENERGY PREDICTED BY IDOCK:   -5.22 KCAL/MOL
REMARK 924 INTRA-LIGAND FREE ENERGY PREDICTED BY IDOCK:   -0.37 KCAL/MOL
REMARK 927      BINDING AFFINITY PREDICTED BY RF-SCORE:    0.00 PKD
ROOT
HETATM    1  C   UNL     1      -7.777   6.715  63.832  1.00  0.00    -0.112 C  
HETATM    2  C   UNL     1      -8.375   7.243  65.107  1.00  0.00    -0.075 C  
HETATM    3  O   UNL     1      -9.456   6.801  65.505  1.00  0.00     0.275 OA 
HETATM    4  N   UNL     1      -7.669   8.239  65.787  1.00  0.00    -0.088 N  
ENDROOT
BRANCH   4   5
HETATM    5  C   UNL     1      -8.224   8.678  67.033  1.00  0.00    -0.106 A  
HETATM    6  C   UNL     1      -9.581   9.257  69.422  1.00  0.00    -0.168 A  
HETATM    7  C   UNL     1      -7.806   8.065  68.245  1.00  0.00    -0.123 A  
HETATM    8  C   UNL     1      -9.228   9.679  67.049  1.00  0.00    -0.142 A  
HETATM    9  I   UNL     1      -9.636  10.762  65.213  1.00  0.00    -0.352 I  
HETATM   10  I   UNL     1      -6.079   6.761  68.157  1.00  0.00    -0.036 I  
HETATM   11  C   UNL     1      -9.928   9.970  68.242  1.00  0.00    -0.173 A  
HETATM   12  I   UNL     1     -10.913   9.372  71.139  1.00  0.00    -0.399 I  
HETATM   13  C   UNL     1      -8.478   8.347  69.451  1.00  0.00    -0.125 A  
BRANCH  11  14
HETATM   14  C   UNL     1     -11.090  10.908  68.195  1.00  0.00    -0.280 C  
HETATM   15  O   UNL     1     -12.226  10.481  68.023  1.00  0.00     0.044 OA 
HETATM   16  N   UNL     1     -10.816  12.248  68.354  1.00  0.00    -0.220 N  
HETATM   17  H   UNL     1      -9.855  12.547  68.517  1.00  0.00     0.000 HD 
BRANCH  16  18
HETATM   18  C   UNL     1     -11.880  13.250  68.293  1.00  0.00    -0.354 C  
BRANCH  18  19
HETATM   19  C   UNL     1     -12.148  13.883  69.662  1.00  0.00    -0.349 C  
HETATM   20  H   UNL     1     -12.259  13.258  71.521  1.00  0.00     0.000 HD 
HETATM   21  O   UNL     1     -12.093  12.865  70.673  1.00  0.00    -0.349 OA 
BRANCH  19  22
HETATM   22  C   UNL     1     -11.146  15.006  69.968  1.00  0.00    -0.263 C  
HETATM   23  O   UNL     1     -11.812  16.229  70.278  1.00  0.00    -0.403 OA 
HETATM   24  H   UNL     1     -11.192  16.923  70.468  1.00  0.00     0.000 HD 
ENDBRANCH  19  22
ENDBRANCH  18  19
ENDBRANCH  16  18
ENDBRANCH  11  14
BRANCH  13  25
HETATM   25  C   UNL     1      -8.029   7.783  70.768  1.00  0.00    -0.101 C  
HETATM   26  O   UNL     1      -7.359   8.480  71.523  1.00  0.00    -0.083 OA 
HETATM   27  H   UNL     1      -8.979   5.945  70.464  1.00  0.00     0.000 HD 
HETATM   28  N   UNL     1      -8.378   6.484  71.089  1.00  0.00    -0.122 N  
BRANCH  28  29
HETATM   29  C   UNL     1      -7.884   5.887  72.325  1.00  0.00    -0.103 C  
BRANCH  29  30
HETATM   30  C   UNL     1      -6.790   4.838  72.082  1.00  0.00    -0.056 C  
HETATM   31  H   UNL     1      -5.006   4.444  72.812  1.00  0.00     0.000 HD 
HETATM   32  O   UNL     1      -5.682   5.093  72.962  1.00  0.00    -0.020 OA 
BRANCH  30  33
HETATM   33  C   UNL     1      -7.326   3.415  72.309  1.00  0.00    -0.055 C  
HETATM   34  O   UNL     1      -7.805   3.243  73.641  1.00  0.00    -0.064 OA 
HETATM   35  H   UNL     1      -8.136   2.364  73.782  1.00  0.00     0.000 HD 
ENDBRANCH  30  33
ENDBRANCH  29  30
ENDBRANCH  28  29
ENDBRANCH  13  25
ENDBRANCH   4   5
BRANCH   4  36
HETATM   36  C   UNL     1      -6.377   8.831  65.340  1.00  0.00    -0.062 C  
BRANCH  36  37
HETATM   37  C   UNL     1      -6.443  10.107  64.460  1.00  0.00    -0.124 C  
HETATM   38  O   UNL     1      -5.736  11.216  65.036  1.00  0.00    -0.454 OA 
HETATM   39  H   UNL     1      -5.777  11.997  64.497  1.00  0.00     0.000 HD 
BRANCH  37  40
HETATM   40  C   UNL     1      -5.872   9.910  63.052  1.00  0.00    -0.112 C  
HETATM   41  O   UNL     1      -5.126   8.689  63.005  1.00  0.00    -0.065 OA 
HETATM   42  H   UNL     1      -4.771   8.567  62.133  1.00  0.00     0.000 HD 
ENDBRANCH  37  40
ENDBRANCH  36  37
ENDBRANCH   4  36
TORSDOF 12
ENDMDL
MODEL      114
REMARK 921   NORMALIZED FREE ENERGY PREDICTED BY IDOCK:   -2.57 KCAL/MOL
REMARK 922        TOTAL FREE ENERGY PREDICTED BY IDOCK:   -5.58 KCAL/MOL
REMARK 923 INTER-LIGAND FREE ENERGY PREDICTED BY IDOCK:   -4.25 KCAL/MOL
REMARK 924 INTRA-LIGAND FREE ENERGY PREDICTED BY IDOCK:   -1.33 KCAL/MOL
REMARK 927      BINDING AFFINITY PREDICTED BY RF-SCORE:    0.00 PKD
ROOT
HETATM    1  C   UNL     1     -11.670  10.496  70.266  1.00  0.00    -0.420 C  
HETATM    2  C   UNL     1     -11.177   9.081  70.391  1.00  0.00    -0.241 C  
HETATM    3  O   UNL     1     -11.938   8.202  70.804  1.00  0.00    -0.238 OA 
HETATM    4  N   UNL     1      -9.849   8.827  70.039  1.00  0.00    -0.174 N  
ENDROOT
BRANCH   4   5
HETATM    5  C   UNL     1      -9.422   7.460  70.101  1.00  0.00    -0.165 A  
HETATM    6  C   UNL     1      -8.236   4.915  70.105  1.00  0.00    -0.073 A  
HETATM    7  C   UNL     1      -8.841   6.958  71.296  1.00  0.00    -0.135 A  
HETATM    8  C   UNL     1      -9.528   6.631  68.956  1.00  0.00    -0.131 A  
HETATM    9  I   UNL     1     -10.656   7.362  67.252  1.00  0.00    -0.233 I  
HETATM   10  I   UNL     1      -8.982   8.195  73.068  1.00  0.00    -0.204 I  
HETATM   11  C   UNL     1      -8.923   5.354  68.940  1.00  0.00    -0.130 A  
HETATM   12  I   UNL     1      -6.949   3.167  69.961  1.00  0.00    -0.033 I  
HETATM   13  C   UNL     1      -8.243   5.681  71.313  1.00  0.00    -0.125 A  
BRANCH  11  14
HETATM   14  C   UNL     1      -8.906   4.570  67.668  1.00  0.00    -0.107 C  
HETATM   15  O   UNL     1      -9.644   3.602  67.526  1.00  0.00    -0.202 OA 
HETATM   16  N   UNL     1      -8.034   4.990  66.689  1.00  0.00    -0.107 N  
HETATM   17  H   UNL     1      -7.458   5.816  66.851  1.00  0.00     0.000 HD 
BRANCH  16  18
HETATM   18  C   UNL     1      -7.919   4.272  65.420  1.00  0.00    -0.097 C  
BRANCH  18  19
HETATM   19  C   UNL     1      -6.491   3.778  65.170  1.00  0.00    -0.035 C  
HETATM   20  H   UNL     1      -4.916   3.363  66.270  1.00  0.00     0.000 HD 
HETATM   21  O   UNL     1      -5.802   3.669  66.425  1.00  0.00    -0.022 OA 
BRANCH  19  22
HETATM   22  C   UNL     1      -6.482   2.432  64.429  1.00  0.00    -0.023 C  
HETATM   23  O   UNL     1      -7.306   2.473  63.265  1.00  0.00    -0.046 OA 
HETATM   24  H   UNL     1      -7.301   1.641  62.807  1.00  0.00     0.000 HD 
ENDBRANCH  19  22
ENDBRANCH  18  19
ENDBRANCH  16  18
ENDBRANCH  11  14
BRANCH  13  25
HETATM   25  C   UNL     1      -7.683   5.077  72.567  1.00  0.00    -0.097 C  
HETATM   26  O   UNL     1      -6.504   5.264  72.851  1.00  0.00    -0.055 OA 
HETATM   27  H   UNL     1      -9.503   4.218  73.133  1.00  0.00     0.000 HD 
HETATM   28  N   UNL     1      -8.515   4.314  73.367  1.00  0.00    -0.093 N  
BRANCH  28  29
HETATM   29  C   UNL     1      -7.973   3.649  74.546  1.00  0.00    -0.073 C  
BRANCH  29  30
HETATM   30  C   UNL     1      -7.940   2.121  74.405  1.00  0.00    -0.049 C  
HETATM   31  H   UNL     1      -8.584   0.796  73.101  1.00  0.00     0.000 HD 
HETATM   32  O   UNL     1      -8.604   1.741  73.188  1.00  0.00    -0.060 OA 
BRANCH  30  33
HETATM   33  C   UNL     1      -6.495   1.596  74.402  1.00  0.00    -0.012 C  
HETATM   34  O   UNL     1      -5.637   2.431  73.626  1.00  0.00     0.000 OA 
HETATM   35  H   UNL     1      -4.744   2.106  73.624  1.00  0.00     0.000 HD 
ENDBRANCH  30  33
ENDBRANCH  29  30
ENDBRANCH  28  29
ENDBRANCH  13  25
ENDBRANCH   4   5
BRANCH   4  36
HETATM   36  C   UNL     1      -8.878   9.851  69.562  1.00  0.00    -0.197 C  
BRANCH  36  37
HETATM   37  C   UNL     1      -7.432   9.375  69.257  1.00  0.00    -0.076 C  
HETATM   38  O   UNL     1      -7.207   9.149  67.857  1.00  0.00    -0.078 OA 
HETATM   39  H   UNL     1      -6.322   8.858  67.670  1.00  0.00     0.000 HD 
BRANCH  37  40
HETATM   40  C   UNL     1      -6.353  10.361  69.718  1.00  0.00    -0.079 C  
HETATM   41  O   UNL     1      -6.974  11.500  70.324  1.00  0.00    -0.439 OA 
HETATM   42  H   UNL     1      -6.305  12.111  70.610  1.00  0.00     0.000 HD 
ENDBRANCH  37  40
ENDBRANCH  36  37
ENDBRANCH   4  36
TORSDOF 12
ENDMDL
MODEL      115
REMARK 921   NORMALIZED FREE ENERGY PREDICTED BY IDOCK:   -2.56 KCAL/MOL
REMARK 922        TOTAL FREE ENERGY PREDICTED BY IDOCK:   -5.55 KCAL/MOL
REMARK 923 INTER-LIGAND FREE ENERGY PREDICTED BY IDOCK:   -5.11 KCAL/MOL
REMARK 924 INTRA-LIGAND FREE ENERGY PREDICTED BY IDOCK:   -0.44 KCAL/MOL
REMARK 927      BINDING AFFINITY PREDICTED BY RF-SCORE:    0.00 PKD
ROOT
HETATM    1  C   UNL     1      -7.633  18.757  69.044  1.00  0.00    -0.256 C  
HETATM    2  C   UNL     1      -7.839  17.273  68.919  1.00  0.00    -0.206 C  
HETATM    3  O   UNL     1      -7.878  16.572  69.934  1.00  0.00     0.426 OA 
HETATM    4  N   UNL     1      -7.965  16.745  67.631  1.00  0.00    -0.173 N  
ENDROOT
BRANCH   4   5
HETATM    5  C   UNL     1      -8.228  15.339  67.540  1.00  0.00    -0.173 A  
HETATM    6  C   UNL     1      -8.702  12.630  66.975  1.00  0.00    -0.198 A  
HETATM    7  C   UNL     1      -7.148  14.417  67.564  1.00  0.00    -0.175 A  
HETATM    8  C   UNL     1      -9.558  14.876  67.370  1.00  0.00    -0.206 A  
HETATM    9  I   UNL     1     -11.183  16.294  67.606  1.00  0.00     0.213 I  
HETATM   10  I   UNL     1      -5.197  15.183  68.111  1.00  0.00    -0.083 I  
HETATM   11  C   UNL     1      -9.808  13.518  67.071  1.00  0.00    -0.251 A  
HETATM   12  I   UNL     1      -9.017  10.661  66.104  1.00  0.00    -0.216 I  
HETATM   13  C   UNL     1      -7.371  13.054  67.283  1.00  0.00    -0.067 A  
BRANCH  11  14
HETATM   14  C   UNL     1     -11.199  13.090  66.734  1.00  0.00    -0.298 C  
HETATM   15  O   UNL     1     -11.887  12.504  67.563  1.00  0.00    -0.374 OA 
HETATM   16  N   UNL     1     -11.653  13.386  65.468  1.00  0.00    -0.317 N  
HETATM   17  H   UNL     1     -11.046  13.895  64.825  1.00  0.00     0.000 HD 
BRANCH  16  18
HETATM   18  C   UNL     1     -12.989  12.982  65.029  1.00  0.00    -0.126 C  
BRANCH  18  19
HETATM   19  C   UNL     1     -12.964  12.340  63.638  1.00  0.00    -0.173 C  
HETATM   20  H   UNL     1     -12.987  12.973  61.778  1.00  0.00     0.000 HD 
HETATM   21  O   UNL     1     -13.003  13.371  62.641  1.00  0.00     0.125 OA 
BRANCH  19  22
HETATM   22  C   UNL     1     -11.724  11.452  63.451  1.00  0.00     0.096 C  
HETATM   23  O   UNL     1     -10.605  12.210  62.991  1.00  0.00    -0.609 OA 
HETATM   24  H   UNL     1      -9.839  11.661  62.874  1.00  0.00     0.000 HD 
ENDBRANCH  19  22
ENDBRANCH  18  19
ENDBRANCH  16  18
ENDBRANCH  11  14
BRANCH  13  25
HETATM   25  C   UNL     1      -6.277  12.030  67.368  1.00  0.00    -0.136 C  
HETATM   26  O   UNL     1      -5.522  11.876  66.413  1.00  0.00    -0.306 OA 
HETATM   27  H   UNL     1      -6.767  11.464  69.320  1.00  0.00     0.000 HD 
HETATM   28  N   UNL     1      -6.157  11.279  68.523  1.00  0.00    -0.042 N  
BRANCH  28  29
HETATM   29  C   UNL     1      -5.155  10.223  68.598  1.00  0.00    -0.038 C  
BRANCH  29  30
HETATM   30  C   UNL     1      -5.759   8.819  68.453  1.00  0.00    -0.038 C  
HETATM   31  H   UNL     1      -7.515   7.985  68.754  1.00  0.00     0.000 HD 
HETATM   32  O   UNL     1      -7.142   8.853  68.844  1.00  0.00    -0.064 OA 
BRANCH  30  33
HETATM   33  C   UNL     1      -5.633   8.308  67.008  1.00  0.00    -0.037 C  
HETATM   34  O   UNL     1      -6.684   7.401  66.681  1.00  0.00    -0.057 OA 
HETATM   35  H   UNL     1      -6.606   7.084  65.788  1.00  0.00     0.000 HD 
ENDBRANCH  30  33
ENDBRANCH  29  30
ENDBRANCH  28  29
ENDBRANCH  13  25
ENDBRANCH   4   5
BRANCH   4  36
HETATM   36  C   UNL     1      -7.897  17.536  66.371  1.00  0.00    -0.294 C  
BRANCH  36  37
HETATM   37  C   UNL     1      -6.810  18.639  66.279  1.00  0.00    -0.226 C  
HETATM   38  O   UNL     1      -5.763  18.311  65.353  1.00  0.00    -0.187 OA 
HETATM   39  H   UNL     1      -5.097  18.987  65.297  1.00  0.00     0.000 HD 
BRANCH  37  40
HETATM   40  C   UNL     1      -7.358  20.005  65.852  1.00  0.00    -0.309 C  
HETATM   41  O   UNL     1      -6.429  21.030  66.222  1.00  0.00    -0.331 OA 
HETATM   42  H   UNL     1      -6.769  21.876  65.958  1.00  0.00     0.000 HD 
ENDBRANCH  37  40
ENDBRANCH  36  37
ENDBRANCH   4  36
TORSDOF 12
ENDMDL
MODEL      116
REMARK 921   NORMALIZED FREE ENERGY PREDICTED BY IDOCK:   -2.49 KCAL/MOL
REMARK 922        TOTAL FREE ENERGY PREDICTED BY IDOCK:   -5.45 KCAL/MOL
REMARK 923 INTER-LIGAND FREE ENERGY PREDICTED BY IDOCK:   -4.97 KCAL/MOL
REMARK 924 INTRA-LIGAND FREE ENERGY PREDICTED BY IDOCK:   -0.47 KCAL/MOL
REMARK 927      BINDING AFFINITY PREDICTED BY RF-SCORE:    0.00 PKD
ROOT
HETATM    1  C   UNL     1     -11.869  13.096  64.545  1.00  0.00    -0.427 C  
HETATM    2  C   UNL     1     -10.613  12.558  65.174  1.00  0.00    -0.293 C  
HETATM    3  O   UNL     1      -9.646  12.274  64.462  1.00  0.00    -0.045 OA 
HETATM    4  N   UNL     1     -10.607  12.389  66.561  1.00  0.00    -0.232 N  
ENDROOT
BRANCH   4   5
HETATM    5  C   UNL     1      -9.377  11.940  67.144  1.00  0.00    -0.180 A  
HETATM    6  C   UNL     1      -7.132  11.146  68.631  1.00  0.00    -0.090 A  
HETATM    7  C   UNL     1      -9.237  10.581  67.533  1.00  0.00    -0.142 A  
HETATM    8  C   UNL     1      -8.327  12.862  67.382  1.00  0.00    -0.190 A  
HETATM    9  I   UNL     1      -8.488  14.853  66.534  1.00  0.00     0.518 I  
HETATM   10  I   UNL     1     -10.766   9.195  66.875  1.00  0.00     0.416 I  
HETATM   11  C   UNL     1      -7.198  12.479  68.141  1.00  0.00    -0.106 A  
HETATM   12  I   UNL     1      -5.642  10.662  70.141  1.00  0.00    -0.105 I  
HETATM   13  C   UNL     1      -8.115  10.169  68.280  1.00  0.00    -0.102 A  
BRANCH  11  14
HETATM   14  C   UNL     1      -6.187  13.513  68.518  1.00  0.00    -0.090 C  
HETATM   15  O   UNL     1      -5.302  13.831  67.731  1.00  0.00    -0.224 OA 
HETATM   16  N   UNL     1      -6.305  14.073  69.770  1.00  0.00    -0.134 N  
HETATM   17  H   UNL     1      -7.074  13.788  70.377  1.00  0.00     0.000 HD 
BRANCH  16  18
HETATM   18  C   UNL     1      -5.347  15.071  70.246  1.00  0.00    -0.120 C  
BRANCH  18  19
HETATM   19  C   UNL     1      -6.021  16.414  70.543  1.00  0.00     0.131 C  
HETATM   20  H   UNL     1      -5.796  17.860  71.855  1.00  0.00     0.000 HD 
HETATM   21  O   UNL     1      -5.378  17.027  71.671  1.00  0.00    -0.145 OA 
BRANCH  19  22
HETATM   22  C   UNL     1      -5.979  17.347  69.323  1.00  0.00    -0.219 C  
HETATM   23  O   UNL     1      -7.284  17.566  68.789  1.00  0.00    -0.239 OA 
HETATM   24  H   UNL     1      -7.257  18.143  68.034  1.00  0.00     0.000 HD 
ENDBRANCH  19  22
ENDBRANCH  18  19
ENDBRANCH  16  18
ENDBRANCH  11  14
BRANCH  13  25
HETATM   25  C   UNL     1      -7.885   8.732  68.650  1.00  0.00    -0.103 C  
HETATM   26  O   UNL     1      -6.919   8.138  68.183  1.00  0.00    -0.073 OA 
HETATM   27  H   UNL     1      -9.544   8.648  69.920  1.00  0.00     0.000 HD 
HETATM   28  N   UNL     1      -8.779   8.115  69.507  1.00  0.00    -0.141 N  
BRANCH  28  29
HETATM   29  C   UNL     1      -8.623   6.699  69.816  1.00  0.00    -0.136 C  
BRANCH  29  30
HETATM   30  C   UNL     1      -9.871   6.093  70.473  1.00  0.00    -0.178 C  
HETATM   31  H   UNL     1     -11.809   6.108  70.137  1.00  0.00     0.000 HD 
HETATM   32  O   UNL     1     -11.038   6.482  69.730  1.00  0.00    -0.301 OA 
BRANCH  30  33
HETATM   33  C   UNL     1      -9.775   4.559  70.537  1.00  0.00    -0.220 C  
HETATM   34  O   UNL     1      -8.557   4.088  69.963  1.00  0.00    -0.063 OA 
HETATM   35  H   UNL     1      -8.497   3.140  70.002  1.00  0.00     0.000 HD 
ENDBRANCH  30  33
ENDBRANCH  29  30
ENDBRANCH  28  29
ENDBRANCH  13  25
ENDBRANCH   4   5
BRANCH   4  36
HETATM   36  C   UNL     1     -11.752  12.688  67.466  1.00  0.00    -0.368 C  
BRANCH  36  37
HETATM   37  C   UNL     1     -11.419  13.197  68.893  1.00  0.00    -0.298 C  
HETATM   38  O   UNL     1     -11.942  14.509  69.150  1.00  0.00    -0.322 OA 
HETATM   39  H   UNL     1     -11.738  14.822  70.024  1.00  0.00     0.000 HD 
BRANCH  37  40
HETATM   40  C   UNL     1     -11.952  12.291  70.008  1.00  0.00    -0.304 C  
HETATM   41  O   UNL     1     -11.018  11.233  70.251  1.00  0.00    -0.447 OA 
HETATM   42  H   UNL     1     -11.349  10.671  70.941  1.00  0.00     0.000 HD 
ENDBRANCH  37  40
ENDBRANCH  36  37
ENDBRANCH   4  36
TORSDOF 12
ENDMDL
MODEL      117
REMARK 921   NORMALIZED FREE ENERGY PREDICTED BY IDOCK:   -2.44 KCAL/MOL
REMARK 922        TOTAL FREE ENERGY PREDICTED BY IDOCK:   -5.35 KCAL/MOL
REMARK 923 INTER-LIGAND FREE ENERGY PREDICTED BY IDOCK:   -4.46 KCAL/MOL
REMARK 924 INTRA-LIGAND FREE ENERGY PREDICTED BY IDOCK:   -0.89 KCAL/MOL
REMARK 927      BINDING AFFINITY PREDICTED BY RF-SCORE:    0.00 PKD
ROOT
HETATM    1  C   UNL     1      -6.918  10.991  69.814  1.00  0.00    -0.092 C  
HETATM    2  C   UNL     1      -6.717   9.504  69.712  1.00  0.00    -0.057 C  
HETATM    3  O   UNL     1      -5.574   9.043  69.657  1.00  0.00    -0.033 OA 
HETATM    4  N   UNL     1      -7.859   8.699  69.670  1.00  0.00    -0.092 N  
ENDROOT
BRANCH   4   5
HETATM    5  C   UNL     1      -7.642   7.283  69.641  1.00  0.00    -0.099 A  
HETATM    6  C   UNL     1      -7.607   4.476  69.590  1.00  0.00    -0.054 A  
HETATM    7  C   UNL     1      -7.587   6.604  68.395  1.00  0.00    -0.104 A  
HETATM    8  C   UNL     1      -7.540   6.557  70.855  1.00  0.00    -0.089 A  
HETATM    9  I   UNL     1      -7.365   7.667  72.712  1.00  0.00    -0.127 I  
HETATM   10  I   UNL     1      -7.464   7.817  66.605  1.00  0.00    -0.092 I  
HETATM   11  C   UNL     1      -7.536   5.144  70.843  1.00  0.00    -0.078 A  
HETATM   12  I   UNL     1      -8.034   2.343  69.568  1.00  0.00    -0.065 I  
HETATM   13  C   UNL     1      -7.569   5.195  68.355  1.00  0.00    -0.079 A  
BRANCH  11  14
HETATM   14  C   UNL     1      -7.595   4.404  72.140  1.00  0.00    -0.080 C  
HETATM   15  O   UNL     1      -6.566   4.004  72.674  1.00  0.00    -0.036 OA 
HETATM   16  N   UNL     1      -8.842   4.202  72.686  1.00  0.00    -0.103 N  
HETATM   17  H   UNL     1      -9.664   4.576  72.211  1.00  0.00     0.000 HD 
BRANCH  16  18
HETATM   18  C   UNL     1      -9.010   3.462  73.937  1.00  0.00    -0.087 C  
BRANCH  18  19
HETATM   19  C   UNL     1     -10.481   3.139  74.217  1.00  0.00    -0.184 C  
HETATM   20  H   UNL     1     -12.225   3.848  73.655  1.00  0.00     0.000 HD 
HETATM   21  O   UNL     1     -11.313   4.048  73.481  1.00  0.00    -0.262 OA 
BRANCH  19  22
HETATM   22  C   UNL     1     -10.817   1.685  73.856  1.00  0.00    -0.133 C  
HETATM   23  O   UNL     1     -11.054   1.537  72.456  1.00  0.00    -0.126 OA 
HETATM   24  H   UNL     1     -11.262   0.638  72.233  1.00  0.00     0.000 HD 
ENDBRANCH  19  22
ENDBRANCH  18  19
ENDBRANCH  16  18
ENDBRANCH  11  14
BRANCH  13  25
HETATM   25  C   UNL     1      -7.436   4.433  67.068  1.00  0.00    -0.081 C  
HETATM   26  O   UNL     1      -6.325   4.078  66.692  1.00  0.00    -0.035 OA 
HETATM   27  H   UNL     1      -9.495   4.424  66.699  1.00  0.00     0.000 HD 
HETATM   28  N   UNL     1      -8.578   4.161  66.336  1.00  0.00    -0.112 N  
BRANCH  28  29
HETATM   29  C   UNL     1      -8.466   3.495  65.044  1.00  0.00    -0.101 C  
BRANCH  29  30
HETATM   30  C   UNL     1      -9.190   4.250  63.921  1.00  0.00    -0.143 C  
HETATM   31  H   UNL     1      -8.864   4.633  62.019  1.00  0.00     0.000 HD 
HETATM   32  O   UNL     1      -8.416   4.165  62.713  1.00  0.00    -0.081 OA 
BRANCH  30  33
HETATM   33  C   UNL     1     -10.598   3.678  63.685  1.00  0.00    -0.272 C  
HETATM   34  O   UNL     1     -10.703   2.337  64.161  1.00  0.00    -0.400 OA 
HETATM   35  H   UNL     1     -11.572   1.983  64.015  1.00  0.00     0.000 HD 
ENDBRANCH  30  33
ENDBRANCH  29  30
ENDBRANCH  28  29
ENDBRANCH  13  25
ENDBRANCH   4   5
BRANCH   4  36
HETATM   36  C   UNL     1      -9.262   9.201  69.703  1.00  0.00    -0.168 C  
BRANCH  36  37
HETATM   37  C   UNL     1     -10.275   8.426  70.588  1.00  0.00    -0.194 C  
HETATM   38  O   UNL     1     -10.900   9.259  71.575  1.00  0.00    -0.339 OA 
HETATM   39  H   UNL     1     -11.520   8.785  72.117  1.00  0.00     0.000 HD 
BRANCH  37  40
HETATM   40  C   UNL     1     -11.407   7.770  69.790  1.00  0.00     0.093 C  
HETATM   41  O   UNL     1     -12.361   7.202  70.694  1.00  0.00    -0.558 OA 
HETATM   42  H   UNL     1     -13.063   6.795  70.200  1.00  0.00     0.000 HD 
ENDBRANCH  37  40
ENDBRANCH  36  37
ENDBRANCH   4  36
TORSDOF 12
ENDMDL
MODEL      118
REMARK 921   NORMALIZED FREE ENERGY PREDICTED BY IDOCK:   -2.41 KCAL/MOL
REMARK 922        TOTAL FREE ENERGY PREDICTED BY IDOCK:   -5.30 KCAL/MOL
REMARK 923 INTER-LIGAND FREE ENERGY PREDICTED BY IDOCK:   -4.91 KCAL/MOL
REMARK 924 INTRA-LIGAND FREE ENERGY PREDICTED BY IDOCK:   -0.39 KCAL/MOL
REMARK 927      BINDING AFFINITY PREDICTED BY RF-SCORE:    0.00 PKD
ROOT
HETATM    1  C   UNL     1     -11.737  12.503  69.337  1.00  0.00    -0.383 C  
HETATM    2  C   UNL     1     -11.351  11.112  68.917  1.00  0.00    -0.278 C  
HETATM    3  O   UNL     1     -12.230  10.278  68.681  1.00  0.00    -0.015 OA 
HETATM    4  N   UNL     1      -9.988  10.819  68.827  1.00  0.00    -0.186 N  
ENDROOT
BRANCH   4   5
HETATM    5  C   UNL     1      -9.645   9.508  68.360  1.00  0.00    -0.142 A  
HETATM    6  C   UNL     1      -8.609   7.026  67.555  1.00  0.00    -0.121 A  
HETATM    7  C   UNL     1      -9.669   8.411  69.262  1.00  0.00    -0.177 A  
HETATM    8  C   UNL     1      -9.231   9.319  67.017  1.00  0.00    -0.138 A  
HETATM    9  I   UNL     1      -9.467  10.965  65.622  1.00  0.00    -0.303 I  
HETATM   10  I   UNL     1     -10.581   8.734  71.200  1.00  0.00    -0.397 I  
HETATM   11  C   UNL     1      -8.695   8.079  66.603  1.00  0.00    -0.153 A  
HETATM   12  I   UNL     1      -7.408   5.278  67.070  1.00  0.00    -0.085 I  
HETATM   13  C   UNL     1      -9.151   7.159  68.871  1.00  0.00    -0.131 A  
BRANCH  11  14
HETATM   14  C   UNL     1      -8.114   7.958  65.232  1.00  0.00    -0.135 C  
HETATM   15  O   UNL     1      -8.689   7.303  64.370  1.00  0.00     0.266 OA 
HETATM   16  N   UNL     1      -6.923   8.608  64.999  1.00  0.00    -0.075 N  
HETATM   17  H   UNL     1      -6.498   9.158  65.746  1.00  0.00     0.000 HD 
BRANCH  16  18
HETATM   18  C   UNL     1      -6.257   8.525  63.699  1.00  0.00    -0.073 C  
BRANCH  18  19
HETATM   19  C   UNL     1      -6.247   9.875  62.975  1.00  0.00    -0.119 C  
HETATM   20  H   UNL     1      -7.541  11.313  62.628  1.00  0.00     0.000 HD 
HETATM   21  O   UNL     1      -7.547  10.476  63.077  1.00  0.00    -0.131 OA 
BRANCH  19  22
HETATM   22  C   UNL     1      -5.172  10.812  63.546  1.00  0.00    -0.134 C  
HETATM   23  O   UNL     1      -5.483  11.210  64.881  1.00  0.00    -0.482 OA 
HETATM   24  H   UNL     1      -4.818  11.789  65.234  1.00  0.00     0.000 HD 
ENDBRANCH  19  22
ENDBRANCH  18  19
ENDBRANCH  16  18
ENDBRANCH  11  14
BRANCH  13  25
HETATM   25  C   UNL     1      -9.220   5.952  69.760  1.00  0.00    -0.145 C  
HETATM   26  O   UNL     1     -10.175   5.188  69.664  1.00  0.00    -0.241 OA 
HETATM   27  H   UNL     1      -7.396   6.364  70.696  1.00  0.00     0.000 HD 
HETATM   28  N   UNL     1      -8.203   5.740  70.673  1.00  0.00    -0.117 N  
BRANCH  28  29
HETATM   29  C   UNL     1      -8.289   4.620  71.604  1.00  0.00    -0.104 C  
BRANCH  29  30
HETATM   30  C   UNL     1      -8.920   5.011  72.947  1.00  0.00    -0.116 C  
HETATM   31  H   UNL     1      -9.132   6.662  73.997  1.00  0.00     0.000 HD 
HETATM   32  O   UNL     1      -8.742   6.420  73.166  1.00  0.00    -0.123 OA 
BRANCH  30  33
HETATM   33  C   UNL     1     -10.416   4.658  72.980  1.00  0.00    -0.198 C  
HETATM   34  O   UNL     1     -11.203   5.758  73.433  1.00  0.00    -0.449 OA 
HETATM   35  H   UNL     1     -12.127   5.541  73.454  1.00  0.00     0.000 HD 
ENDBRANCH  30  33
ENDBRANCH  29  30
ENDBRANCH  28  29
ENDBRANCH  13  25
ENDBRANCH   4   5
BRANCH   4  36
HETATM   36  C   UNL     1      -8.885  11.774  69.127  1.00  0.00     0.422 C  
BRANCH  36  37
HETATM   37  C   UNL     1      -7.432  11.233  69.051  1.00  0.00    -0.116 C  
HETATM   38  O   UNL     1      -6.789  11.542  67.805  1.00  0.00    -0.070 OA 
HETATM   39  H   UNL     1      -5.900  11.210  67.759  1.00  0.00     0.000 HD 
BRANCH  37  40
HETATM   40  C   UNL     1      -6.519  11.772  70.157  1.00  0.00     0.065 C  
HETATM   41  O   UNL     1      -6.092  10.690  70.993  1.00  0.00    -0.325 OA 
HETATM   42  H   UNL     1      -5.526  11.025  71.679  1.00  0.00     0.000 HD 
ENDBRANCH  37  40
ENDBRANCH  36  37
ENDBRANCH   4  36
TORSDOF 12
ENDMDL
MODEL      119
REMARK 921   NORMALIZED FREE ENERGY PREDICTED BY IDOCK:   -2.29 KCAL/MOL
REMARK 922        TOTAL FREE ENERGY PREDICTED BY IDOCK:   -5.09 KCAL/MOL
REMARK 923 INTER-LIGAND FREE ENERGY PREDICTED BY IDOCK:   -4.40 KCAL/MOL
REMARK 924 INTRA-LIGAND FREE ENERGY PREDICTED BY IDOCK:   -0.70 KCAL/MOL
REMARK 927      BINDING AFFINITY PREDICTED BY RF-SCORE:    0.00 PKD
ROOT
HETATM    1  C   UNL     1      -7.888   6.043  72.613  1.00  0.00    -0.104 C  
HETATM    2  C   UNL     1      -7.607   6.464  71.197  1.00  0.00    -0.090 C  
HETATM    3  O   UNL     1      -6.442   6.535  70.799  1.00  0.00    -0.048 OA 
HETATM    4  N   UNL     1      -8.703   6.775  70.387  1.00  0.00    -0.150 N  
ENDROOT
BRANCH   4   5
HETATM    5  C   UNL     1      -8.415   7.108  69.023  1.00  0.00    -0.129 A  
HETATM    6  C   UNL     1      -8.237   7.812  66.311  1.00  0.00    -0.122 A  
HETATM    7  C   UNL     1      -8.177   8.461  68.664  1.00  0.00    -0.123 A  
HETATM    8  C   UNL     1      -8.424   6.096  68.030  1.00  0.00    -0.116 A  
HETATM    9  I   UNL     1      -8.528   4.024  68.666  1.00  0.00    -0.135 I  
HETATM   10  I   UNL     1      -7.900   9.885  70.272  1.00  0.00     0.299 I  
HETATM   11  C   UNL     1      -8.349   6.439  66.661  1.00  0.00    -0.113 A  
HETATM   12  I   UNL     1      -8.553   8.390  64.237  1.00  0.00     0.432 I  
HETATM   13  C   UNL     1      -8.085   8.829  67.305  1.00  0.00    -0.101 A  
BRANCH  11  14
HETATM   14  C   UNL     1      -8.527   5.371  65.631  1.00  0.00    -0.138 C  
HETATM   15  O   UNL     1      -9.625   4.854  65.456  1.00  0.00    -0.164 OA 
HETATM   16  N   UNL     1      -7.413   5.011  64.907  1.00  0.00    -0.074 N  
HETATM   17  H   UNL     1      -6.528   5.489  65.078  1.00  0.00     0.000 HD 
BRANCH  16  18
HETATM   18  C   UNL     1      -7.475   3.954  63.898  1.00  0.00    -0.055 C  
BRANCH  18  19
HETATM   19  C   UNL     1      -6.680   2.714  64.319  1.00  0.00    -0.035 C  
HETATM   20  H   UNL     1      -5.947   1.123  63.427  1.00  0.00     0.000 HD 
HETATM   21  O   UNL     1      -6.440   1.892  63.166  1.00  0.00    -0.013 OA 
BRANCH  19  22
HETATM   22  C   UNL     1      -5.355   3.098  64.994  1.00  0.00    -0.009 C  
HETATM   23  O   UNL     1      -5.556   3.484  66.353  1.00  0.00    -0.016 OA 
HETATM   24  H   UNL     1      -4.736   3.722  66.771  1.00  0.00     0.000 HD 
ENDBRANCH  19  22
ENDBRANCH  18  19
ENDBRANCH  16  18
ENDBRANCH  11  14
BRANCH  13  25
HETATM   25  C   UNL     1      -7.762  10.230  66.877  1.00  0.00    -0.105 C  
HETATM   26  O   UNL     1      -6.672  10.467  66.368  1.00  0.00    -0.098 OA 
HETATM   27  H   UNL     1      -9.624  10.986  67.456  1.00  0.00     0.000 HD 
HETATM   28  N   UNL     1      -8.706  11.222  67.077  1.00  0.00    -0.147 N  
BRANCH  28  29
HETATM   29  C   UNL     1      -8.384  12.604  66.744  1.00  0.00    -0.005 C  
BRANCH  29  30
HETATM   30  C   UNL     1      -9.543  13.569  67.027  1.00  0.00    -0.248 C  
HETATM   31  H   UNL     1      -9.754  15.509  67.282  1.00  0.00     0.000 HD 
HETATM   32  O   UNL     1      -9.037  14.912  67.107  1.00  0.00    -0.200 OA 
BRANCH  30  33
HETATM   33  C   UNL     1     -10.621  13.477  65.934  1.00  0.00    -0.284 C  
HETATM   34  O   UNL     1     -10.231  14.178  64.755  1.00  0.00    -0.498 OA 
HETATM   35  H   UNL     1     -10.897  14.122  64.080  1.00  0.00     0.000 HD 
ENDBRANCH  30  33
ENDBRANCH  29  30
ENDBRANCH  28  29
ENDBRANCH  13  25
ENDBRANCH   4   5
BRANCH   4  36
HETATM   36  C   UNL     1     -10.128   6.735  70.821  1.00  0.00    -0.191 C  
BRANCH  36  37
HETATM   37  C   UNL     1     -10.819   8.092  71.125  1.00  0.00    -0.238 C  
HETATM   38  O   UNL     1     -11.724   8.498  70.088  1.00  0.00    -0.470 OA 
HETATM   39  H   UNL     1     -12.147   9.328  70.275  1.00  0.00     0.000 HD 
BRANCH  37  40
HETATM   40  C   UNL     1     -11.622   8.090  72.430  1.00  0.00    -0.390 C  
HETATM   41  O   UNL     1     -11.416   6.851  73.117  1.00  0.00    -0.516 OA 
HETATM   42  H   UNL     1     -11.914   6.850  73.925  1.00  0.00     0.000 HD 
ENDBRANCH  37  40
ENDBRANCH  36  37
ENDBRANCH   4  36
TORSDOF 12
ENDMDL
MODEL      120
REMARK 921   NORMALIZED FREE ENERGY PREDICTED BY IDOCK:   -2.23 KCAL/MOL
REMARK 922        TOTAL FREE ENERGY PREDICTED BY IDOCK:   -4.99 KCAL/MOL
REMARK 923 INTER-LIGAND FREE ENERGY PREDICTED BY IDOCK:   -5.29 KCAL/MOL
REMARK 924 INTRA-LIGAND FREE ENERGY PREDICTED BY IDOCK:    0.30 KCAL/MOL
REMARK 927      BINDING AFFINITY PREDICTED BY RF-SCORE:    0.00 PKD
ROOT
HETATM    1  C   UNL     1     -10.450   9.656  71.559  1.00  0.00     0.017 C  
HETATM    2  C   UNL     1      -9.832   8.469  70.873  1.00  0.00    -0.189 C  
HETATM    3  O   UNL     1      -8.605   8.394  70.768  1.00  0.00    -0.127 OA 
HETATM    4  N   UNL     1     -10.696   7.495  70.364  1.00  0.00    -0.234 N  
ENDROOT
BRANCH   4   5
HETATM    5  C   UNL     1     -10.081   6.342  69.776  1.00  0.00    -0.176 A  
HETATM    6  C   UNL     1      -8.538   4.245  68.727  1.00  0.00    -0.085 A  
HETATM    7  C   UNL     1      -9.801   5.206  70.581  1.00  0.00    -0.205 A  
HETATM    8  C   UNL     1      -9.705   6.359  68.409  1.00  0.00    -0.131 A  
HETATM    9  I   UNL     1     -10.390   8.003  67.169  1.00  0.00    -0.286 I  
HETATM   10  I   UNL     1     -10.662   5.155  72.567  1.00  0.00    -0.239 I  
HETATM   11  C   UNL     1      -8.916   5.317  67.873  1.00  0.00    -0.112 A  
HETATM   12  I   UNL     1      -6.988   2.873  68.054  1.00  0.00    -0.050 I  
HETATM   13  C   UNL     1      -9.027   4.145  70.066  1.00  0.00    -0.158 A  
BRANCH  11  14
HETATM   14  C   UNL     1      -8.394   5.441  66.478  1.00  0.00    -0.109 C  
HETATM   15  O   UNL     1      -8.857   4.747  65.578  1.00  0.00    -0.129 OA 
HETATM   16  N   UNL     1      -7.389   6.357  66.267  1.00  0.00    -0.079 N  
HETATM   17  H   UNL     1      -7.056   6.924  67.047  1.00  0.00     0.000 HD 
BRANCH  16  18
HETATM   18  C   UNL     1      -6.789   6.531  64.944  1.00  0.00    -0.046 C  
BRANCH  18  19
HETATM   19  C   UNL     1      -7.340   7.767  64.226  1.00  0.00    -0.089 C  
HETATM   20  H   UNL     1      -6.603   9.442  63.508  1.00  0.00     0.000 HD 
HETATM   21  O   UNL     1      -6.262   8.676  63.954  1.00  0.00    -0.071 OA 
BRANCH  19  22
HETATM   22  C   UNL     1      -8.067   7.386  62.928  1.00  0.00    -0.063 C  
HETATM   23  O   UNL     1      -8.506   6.028  62.956  1.00  0.00    -0.295 OA 
HETATM   24  H   UNL     1      -8.956   5.793  62.153  1.00  0.00     0.000 HD 
ENDBRANCH  19  22
ENDBRANCH  18  19
ENDBRANCH  16  18
ENDBRANCH  11  14
BRANCH  13  25
HETATM   25  C   UNL     1      -8.766   2.892  70.850  1.00  0.00    -0.075 C  
HETATM   26  O   UNL     1      -9.452   1.898  70.640  1.00  0.00    -0.114 OA 
HETATM   27  H   UNL     1      -7.171   3.724  71.916  1.00  0.00     0.000 HD 
HETATM   28  N   UNL     1      -7.759   2.899  71.799  1.00  0.00    -0.051 N  
BRANCH  28  29
HETATM   29  C   UNL     1      -7.541   1.720  72.629  1.00  0.00    -0.039 C  
BRANCH  29  30
HETATM   30  C   UNL     1      -6.102   1.621  73.154  1.00  0.00    -0.008 C  
HETATM   31  H   UNL     1      -4.307   2.083  72.492  1.00  0.00     0.000 HD 
HETATM   32  O   UNL     1      -5.197   2.145  72.167  1.00  0.00     0.000 OA 
BRANCH  30  33
HETATM   33  C   UNL     1      -5.940   2.388  74.477  1.00  0.00    -0.004 C  
HETATM   34  O   UNL     1      -5.268   3.632  74.281  1.00  0.00    -0.003 OA 
HETATM   35  H   UNL     1      -5.168   4.106  75.098  1.00  0.00     0.000 HD 
ENDBRANCH  30  33
ENDBRANCH  29  30
ENDBRANCH  28  29
ENDBRANCH  13  25
ENDBRANCH   4   5
BRANCH   4  36
HETATM   36  C   UNL     1     -12.183   7.547  70.436  1.00  0.00     0.175 C  
BRANCH  36  37
HETATM   37  C   UNL     1     -12.815   8.629  71.352  1.00  0.00    -0.264 C  
HETATM   38  O   UNL     1     -13.357   9.733  70.614  1.00  0.00    -0.609 OA 
HETATM   39  H   UNL     1     -13.744  10.395  71.174  1.00  0.00     0.000 HD 
BRANCH  37  40
HETATM   40  C   UNL     1     -13.949   8.096  72.235  1.00  0.00    -0.188 C  
HETATM   41  O   UNL     1     -14.103   8.945  73.378  1.00  0.00    -1.256 OA 
HETATM   42  H   UNL     1     -14.806   8.615  73.925  1.00  0.00     0.000 HD 
ENDBRANCH  37  40
ENDBRANCH  36  37
ENDBRANCH   4  36
TORSDOF 12
ENDMDL
MODEL      121
REMARK 921   NORMALIZED FREE ENERGY PREDICTED BY IDOCK:   -2.15 KCAL/MOL
REMARK 922        TOTAL FREE ENERGY PREDICTED BY IDOCK:   -4.86 KCAL/MOL
REMARK 923 INTER-LIGAND FREE ENERGY PREDICTED BY IDOCK:   -4.28 KCAL/MOL
REMARK 924 INTRA-LIGAND FREE ENERGY PREDICTED BY IDOCK:   -0.58 KCAL/MOL
REMARK 927      BINDING AFFINITY PREDICTED BY RF-SCORE:    0.00 PKD
ROOT
HETATM    1  C   UNL     1      -5.426  11.042  66.740  1.00  0.00    -0.084 C  
HETATM    2  C   UNL     1      -6.155   9.804  67.184  1.00  0.00    -0.059 C  
HETATM    3  O   UNL     1      -5.611   9.020  67.967  1.00  0.00    -0.038 OA 
HETATM    4  N   UNL     1      -7.436   9.588  66.667  1.00  0.00    -0.093 N  
ENDROOT
BRANCH   4   5
HETATM    5  C   UNL     1      -8.137   8.438  67.157  1.00  0.00    -0.104 A  
HETATM    6  C   UNL     1      -9.176   6.094  68.299  1.00  0.00    -0.114 A  
HETATM    7  C   UNL     1      -8.817   8.506  68.402  1.00  0.00    -0.139 A  
HETATM    8  C   UNL     1      -8.104   7.223  66.426  1.00  0.00    -0.119 A  
HETATM    9  I   UNL     1      -7.283   7.248  64.417  1.00  0.00    -0.094 I  
HETATM   10  I   UNL     1      -9.057  10.461  69.302  1.00  0.00    -0.034 I  
HETATM   11  C   UNL     1      -8.610   6.034  66.996  1.00  0.00    -0.107 A  
HETATM   12  I   UNL     1      -9.562   4.231  69.355  1.00  0.00    -0.130 I  
HETATM   13  C   UNL     1      -9.343   7.336  68.987  1.00  0.00    -0.148 A  
BRANCH  11  14
HETATM   14  C   UNL     1      -8.414   4.739  66.276  1.00  0.00    -0.111 C  
HETATM   15  O   UNL     1      -9.282   4.308  65.525  1.00  0.00    -0.133 OA 
HETATM   16  N   UNL     1      -7.229   4.075  66.501  1.00  0.00    -0.067 N  
HETATM   17  H   UNL     1      -6.531   4.489  67.119  1.00  0.00     0.000 HD 
BRANCH  16  18
HETATM   18  C   UNL     1      -6.953   2.785  65.869  1.00  0.00    -0.052 C  
BRANCH  18  19
HETATM   19  C   UNL     1      -5.514   2.698  65.350  1.00  0.00    -0.009 C  
HETATM   20  H   UNL     1      -4.452   1.415  64.307  1.00  0.00     0.000 HD 
HETATM   21  O   UNL     1      -5.344   1.468  64.629  1.00  0.00    -0.004 OA 
BRANCH  19  22
HETATM   22  C   UNL     1      -5.164   3.900  64.460  1.00  0.00    -0.009 C  
HETATM   23  O   UNL     1      -5.735   3.769  63.159  1.00  0.00    -0.012 OA 
HETATM   24  H   UNL     1      -5.518   4.513  62.609  1.00  0.00     0.000 HD 
ENDBRANCH  19  22
ENDBRANCH  18  19
ENDBRANCH  16  18
ENDBRANCH  11  14
BRANCH  13  25
HETATM   25  C   UNL     1     -10.133   7.366  70.263  1.00  0.00    -0.197 C  
HETATM   26  O   UNL     1     -11.311   7.706  70.234  1.00  0.00    -0.262 OA 
HETATM   27  H   UNL     1      -8.536   6.687  71.431  1.00  0.00     0.000 HD 
HETATM   28  N   UNL     1      -9.502   7.015  71.444  1.00  0.00    -0.159 N  
BRANCH  28  29
HETATM   29  C   UNL     1     -10.225   7.115  72.706  1.00  0.00    -0.209 C  
BRANCH  29  30
HETATM   30  C   UNL     1     -10.808   5.771  73.165  1.00  0.00    -0.276 C  
HETATM   31  H   UNL     1     -12.220   4.546  72.551  1.00  0.00     0.000 HD 
HETATM   32  O   UNL     1     -11.859   5.377  72.267  1.00  0.00    -0.090 OA 
BRANCH  30  33
HETATM   33  C   UNL     1      -9.722   4.683  73.216  1.00  0.00    -0.133 C  
HETATM   34  O   UNL     1     -10.015   3.698  74.205  1.00  0.00    -0.116 OA 
HETATM   35  H   UNL     1      -9.344   3.026  74.236  1.00  0.00     0.000 HD 
ENDBRANCH  30  33
ENDBRANCH  29  30
ENDBRANCH  28  29
ENDBRANCH  13  25
ENDBRANCH   4   5
BRANCH   4  36
HETATM   36  C   UNL     1      -8.131  10.482  65.699  1.00  0.00    -0.161 C  
BRANCH  36  37
HETATM   37  C   UNL     1      -9.559  10.074  65.250  1.00  0.00    -0.291 C  
HETATM   38  O   UNL     1     -10.585  10.655  66.069  1.00  0.00    -0.210 OA 
HETATM   39  H   UNL     1     -11.460  10.405  65.795  1.00  0.00     0.000 HD 
BRANCH  37  40
HETATM   40  C   UNL     1      -9.882  10.466  63.804  1.00  0.00    -0.243 C  
HETATM   41  O   UNL     1     -11.279  10.762  63.690  1.00  0.00    -0.277 OA 
HETATM   42  H   UNL     1     -11.479  11.005  62.794  1.00  0.00     0.000 HD 
ENDBRANCH  37  40
ENDBRANCH  36  37
ENDBRANCH   4  36
TORSDOF 12
ENDMDL
MODEL      122
REMARK 921   NORMALIZED FREE ENERGY PREDICTED BY IDOCK:   -2.15 KCAL/MOL
REMARK 922        TOTAL FREE ENERGY PREDICTED BY IDOCK:   -4.86 KCAL/MOL
REMARK 923 INTER-LIGAND FREE ENERGY PREDICTED BY IDOCK:   -7.02 KCAL/MOL
REMARK 924 INTRA-LIGAND FREE ENERGY PREDICTED BY IDOCK:    2.16 KCAL/MOL
REMARK 927      BINDING AFFINITY PREDICTED BY RF-SCORE:    0.00 PKD
ROOT
HETATM    1  C   UNL     1      -5.137   7.984  64.709  1.00  0.00    -0.032 C  
HETATM    2  C   UNL     1      -6.211   8.389  65.680  1.00  0.00    -0.048 C  
HETATM    3  O   UNL     1      -5.902   8.759  66.816  1.00  0.00    -0.050 OA 
HETATM    4  N   UNL     1      -7.537   8.310  65.246  1.00  0.00    -0.089 N  
ENDROOT
BRANCH   4   5
HETATM    5  C   UNL     1      -8.539   8.764  66.165  1.00  0.00    -0.146 A  
HETATM    6  C   UNL     1     -10.213   9.863  68.132  1.00  0.00    -0.179 A  
HETATM    7  C   UNL     1      -9.264   9.952  65.885  1.00  0.00    -0.176 A  
HETATM    8  C   UNL     1      -8.762   8.059  67.375  1.00  0.00    -0.124 A  
HETATM    9  I   UNL     1      -7.823   6.119  67.630  1.00  0.00    -0.106 I  
HETATM   10  I   UNL     1      -9.066  10.796  63.900  1.00  0.00    -0.140 I  
HETATM   11  C   UNL     1      -9.591   8.609  68.379  1.00  0.00    -0.157 A  
HETATM   12  I   UNL     1     -11.130  10.919  69.800  1.00  0.00    -0.209 I  
HETATM   13  C   UNL     1     -10.109  10.515  66.864  1.00  0.00    -0.265 A  
BRANCH  11  14
HETATM   14  C   UNL     1      -9.677   7.929  69.706  1.00  0.00    -0.176 C  
HETATM   15  O   UNL     1      -8.740   7.985  70.495  1.00  0.00    -0.132 OA 
HETATM   16  N   UNL     1     -10.844   7.253  69.986  1.00  0.00    -0.249 N  
HETATM   17  H   UNL     1     -11.602   7.257  69.303  1.00  0.00     0.000 HD 
BRANCH  16  18
HETATM   18  C   UNL     1     -11.015   6.528  71.245  1.00  0.00    -0.262 C  
BRANCH  18  19
HETATM   19  C   UNL     1     -11.985   7.245  72.189  1.00  0.00    -0.269 C  
HETATM   20  H   UNL     1     -12.239   9.080  72.844  1.00  0.00     0.000 HD 
HETATM   21  O   UNL     1     -11.637   8.636  72.259  1.00  0.00    -0.362 OA 
BRANCH  19  22
HETATM   22  C   UNL     1     -13.443   7.074  71.734  1.00  0.00    -0.227 C  
HETATM   23  O   UNL     1     -14.095   6.030  72.457  1.00  0.00    -0.559 OA 
HETATM   24  H   UNL     1     -14.996   5.924  72.175  1.00  0.00     0.000 HD 
ENDBRANCH  19  22
ENDBRANCH  18  19
ENDBRANCH  16  18
ENDBRANCH  11  14
BRANCH  13  25
HETATM   25  C   UNL     1     -10.953  11.726  66.591  1.00  0.00    -0.294 C  
HETATM   26  O   UNL     1     -12.136  11.582  66.301  1.00  0.00    -0.202 OA 
HETATM   27  H   UNL     1      -9.393  13.069  66.959  1.00  0.00     0.000 HD 
HETATM   28  N   UNL     1     -10.366  12.976  66.666  1.00  0.00    -0.256 N  
BRANCH  28  29
HETATM   29  C   UNL     1     -11.144  14.162  66.326  1.00  0.00    -0.318 C  
BRANCH  29  30
HETATM   30  C   UNL     1     -10.986  14.574  64.856  1.00  0.00    -0.410 C  
HETATM   31  H   UNL     1      -9.908  13.987  63.318  1.00  0.00     0.000 HD 
HETATM   32  O   UNL     1     -10.006  13.731  64.227  1.00  0.00    -0.177 OA 
BRANCH  30  33
HETATM   33  C   UNL     1     -12.324  14.476  64.105  1.00  0.00    -0.286 C  
HETATM   34  O   UNL     1     -12.194  13.723  62.901  1.00  0.00    -0.943 OA 
HETATM   35  H   UNL     1     -13.021  13.662  62.437  1.00  0.00     0.000 HD 
ENDBRANCH  30  33
ENDBRANCH  29  30
ENDBRANCH  28  29
ENDBRANCH  13  25
ENDBRANCH   4   5
BRANCH   4  36
HETATM   36  C   UNL     1      -7.971   7.843  63.899  1.00  0.00    -0.121 C  
BRANCH  36  37
HETATM   37  C   UNL     1      -8.116   6.313  63.687  1.00  0.00    -0.048 C  
HETATM   38  O   UNL     1      -6.851   5.634  63.665  1.00  0.00    -0.039 OA 
HETATM   39  H   UNL     1      -6.940   4.697  63.535  1.00  0.00     0.000 HD 
BRANCH  37  40
HETATM   40  C   UNL     1      -8.962   5.623  64.762  1.00  0.00     0.156 C  
HETATM   41  O   UNL     1      -8.678   4.220  64.767  1.00  0.00    -0.124 OA 
HETATM   42  H   UNL     1      -9.202   3.792  65.433  1.00  0.00     0.000 HD 
ENDBRANCH  37  40
ENDBRANCH  36  37
ENDBRANCH   4  36
TORSDOF 12
ENDMDL
MODEL      123
REMARK 921   NORMALIZED FREE ENERGY PREDICTED BY IDOCK:   -2.06 KCAL/MOL
REMARK 922        TOTAL FREE ENERGY PREDICTED BY IDOCK:   -4.70 KCAL/MOL
REMARK 923 INTER-LIGAND FREE ENERGY PREDICTED BY IDOCK:   -5.45 KCAL/MOL
REMARK 924 INTRA-LIGAND FREE ENERGY PREDICTED BY IDOCK:    0.75 KCAL/MOL
REMARK 927      BINDING AFFINITY PREDICTED BY RF-SCORE:    0.00 PKD
ROOT
HETATM    1  C   UNL     1      -7.582   9.682  70.227  1.00  0.00    -0.175 C  
HETATM    2  C   UNL     1      -8.100  10.848  69.431  1.00  0.00     0.013 C  
HETATM    3  O   UNL     1      -9.254  11.247  69.609  1.00  0.00     0.436 OA 
HETATM    4  N   UNL     1      -7.235  11.427  68.497  1.00  0.00    -0.086 N  
ENDROOT
BRANCH   4   5
HETATM    5  C   UNL     1      -7.727  12.578  67.800  1.00  0.00    -0.142 A  
HETATM    6  C   UNL     1      -8.913  14.897  66.750  1.00  0.00    -0.268 A  
HETATM    7  C   UNL     1      -7.089  13.835  67.977  1.00  0.00    -0.133 A  
HETATM    8  C   UNL     1      -8.881  12.472  66.982  1.00  0.00    -0.212 A  
HETATM    9  I   UNL     1      -9.654  10.494  66.537  1.00  0.00    -0.249 I  
HETATM   10  I   UNL     1      -5.183  13.848  69.004  1.00  0.00    -0.080 I  
HETATM   11  C   UNL     1      -9.495  13.633  66.459  1.00  0.00    -0.270 A  
HETATM   12  I   UNL     1     -10.062  16.696  66.330  1.00  0.00    -0.331 I  
HETATM   13  C   UNL     1      -7.673  15.007  67.455  1.00  0.00    -0.227 A  
BRANCH  11  14
HETATM   14  C   UNL     1     -10.799  13.507  65.741  1.00  0.00    -0.275 C  
HETATM   15  O   UNL     1     -11.844  13.375  66.369  1.00  0.00    -0.356 OA 
HETATM   16  N   UNL     1     -10.759  13.548  64.365  1.00  0.00    -0.499 N  
HETATM   17  H   UNL     1      -9.865  13.682  63.893  1.00  0.00     0.000 HD 
BRANCH  16  18
HETATM   18  C   UNL     1     -11.978  13.402  63.569  1.00  0.00    -0.407 C  
BRANCH  18  19
HETATM   19  C   UNL     1     -12.456  11.947  63.518  1.00  0.00    -0.492 C  
HETATM   20  H   UNL     1     -13.939  10.966  62.681  1.00  0.00     0.000 HD 
HETATM   21  O   UNL     1     -13.642  11.868  62.712  1.00  0.00     0.129 OA 
BRANCH  19  22
HETATM   22  C   UNL     1     -11.366  11.015  62.968  1.00  0.00     0.873 C  
HETATM   23  O   UNL     1     -10.202  11.746  62.583  1.00  0.00    -0.514 OA 
HETATM   24  H   UNL     1      -9.528  11.169  62.242  1.00  0.00     0.000 HD 
ENDBRANCH  19  22
ENDBRANCH  18  19
ENDBRANCH  16  18
ENDBRANCH  11  14
BRANCH  13  25
HETATM   25  C   UNL     1      -7.002  16.346  67.551  1.00  0.00    -0.148 C  
HETATM   26  O   UNL     1      -6.406  16.791  66.576  1.00  0.00    -0.244 OA 
HETATM   27  H   UNL     1      -7.614  16.668  69.525  1.00  0.00     0.000 HD 
HETATM   28  N   UNL     1      -7.068  17.039  68.747  1.00  0.00    -0.208 N  
BRANCH  28  29
HETATM   29  C   UNL     1      -6.355  18.303  68.890  1.00  0.00    -0.224 C  
BRANCH  29  30
HETATM   30  C   UNL     1      -7.272  19.458  69.315  1.00  0.00    -0.301 C  
HETATM   31  H   UNL     1      -7.086  21.118  70.355  1.00  0.00     0.000 HD 
HETATM   32  O   UNL     1      -6.519  20.404  70.092  1.00  0.00    -0.344 OA 
BRANCH  30  33
HETATM   33  C   UNL     1      -7.890  20.155  68.092  1.00  0.00    -0.165 C  
HETATM   34  O   UNL     1      -7.143  19.888  66.906  1.00  0.00    -0.211 OA 
HETATM   35  H   UNL     1      -7.524  20.319  66.150  1.00  0.00     0.000 HD 
ENDBRANCH  30  33
ENDBRANCH  29  30
ENDBRANCH  28  29
ENDBRANCH  13  25
ENDBRANCH   4   5
BRANCH   4  36
HETATM   36  C   UNL     1      -5.845  10.971  68.219  1.00  0.00    -0.046 C  
BRANCH  36  37
HETATM   37  C   UNL     1      -5.656   9.886  67.125  1.00  0.00    -0.046 C  
HETATM   38  O   UNL     1      -6.754   8.964  67.063  1.00  0.00    -0.067 OA 
HETATM   39  H   UNL     1      -6.638   8.300  66.393  1.00  0.00     0.000 HD 
BRANCH  37  40
HETATM   40  C   UNL     1      -5.488  10.461  65.715  1.00  0.00    -0.086 C  
HETATM   41  O   UNL     1      -6.435   9.848  64.833  1.00  0.00    -0.097 OA 
HETATM   42  H   UNL     1      -6.330  10.204  63.959  1.00  0.00     0.000 HD 
ENDBRANCH  37  40
ENDBRANCH  36  37
ENDBRANCH   4  36
TORSDOF 12
ENDMDL
MODEL      124
REMARK 921   NORMALIZED FREE ENERGY PREDICTED BY IDOCK:   -2.06 KCAL/MOL
REMARK 922        TOTAL FREE ENERGY PREDICTED BY IDOCK:   -4.70 KCAL/MOL
REMARK 923 INTER-LIGAND FREE ENERGY PREDICTED BY IDOCK:   -4.08 KCAL/MOL
REMARK 924 INTRA-LIGAND FREE ENERGY PREDICTED BY IDOCK:   -0.62 KCAL/MOL
REMARK 927      BINDING AFFINITY PREDICTED BY RF-SCORE:    0.00 PKD
ROOT
HETATM    1  C   UNL     1      -6.816   4.303  64.107  1.00  0.00    -0.045 C  
HETATM    2  C   UNL     1      -7.013   4.597  65.569  1.00  0.00    -0.062 C  
HETATM    3  O   UNL     1      -6.036   4.658  66.319  1.00  0.00    -0.022 OA 
HETATM    4  N   UNL     1      -8.324   4.777  66.020  1.00  0.00    -0.111 N  
ENDROOT
BRANCH   4   5
HETATM    5  C   UNL     1      -8.482   5.123  67.402  1.00  0.00    -0.105 A  
HETATM    6  C   UNL     1      -8.401   5.777  70.131  1.00  0.00    -0.117 A  
HETATM    7  C   UNL     1      -8.438   6.487  67.796  1.00  0.00    -0.118 A  
HETATM    8  C   UNL     1      -8.625   4.103  68.376  1.00  0.00    -0.094 A  
HETATM    9  I   UNL     1      -8.952   2.067  67.699  1.00  0.00    -0.175 I  
HETATM   10  I   UNL     1      -8.505   7.980  66.228  1.00  0.00    -0.179 I  
HETATM   11  C   UNL     1      -8.572   4.417  69.752  1.00  0.00    -0.098 A  
HETATM   12  I   UNL     1      -7.889   6.228  72.197  1.00  0.00    -0.103 I  
HETATM   13  C   UNL     1      -8.397   6.829  69.163  1.00  0.00    -0.125 A  
BRANCH  11  14
HETATM   14  C   UNL     1      -8.558   3.308  70.754  1.00  0.00    -0.071 C  
HETATM   15  O   UNL     1      -9.579   3.010  71.364  1.00  0.00    -0.140 OA 
HETATM   16  N   UNL     1      -7.361   2.656  70.946  1.00  0.00    -0.033 N  
HETATM   17  H   UNL     1      -6.547   2.930  70.395  1.00  0.00     0.000 HD 
BRANCH  16  18
HETATM   18  C   UNL     1      -7.235   1.578  71.926  1.00  0.00    -0.031 C  
BRANCH  18  19
HETATM   19  C   UNL     1      -6.341   1.977  73.104  1.00  0.00    -0.013 C  
HETATM   20  H   UNL     1      -5.051   3.409  73.489  1.00  0.00     0.000 HD 
HETATM   21  O   UNL     1      -5.605   3.161  72.759  1.00  0.00     0.000 OA 
BRANCH  19  22
HETATM   22  C   UNL     1      -7.162   2.204  74.383  1.00  0.00    -0.032 C  
HETATM   23  O   UNL     1      -8.317   3.002  74.126  1.00  0.00    -0.068 OA 
HETATM   24  H   UNL     1      -8.824   3.142  74.917  1.00  0.00     0.000 HD 
ENDBRANCH  19  22
ENDBRANCH  18  19
ENDBRANCH  16  18
ENDBRANCH  11  14
BRANCH  13  25
HETATM   25  C   UNL     1      -8.424   8.255  69.631  1.00  0.00    -0.125 C  
HETATM   26  O   UNL     1      -9.490   8.755  69.974  1.00  0.00    -0.161 OA 
HETATM   27  H   UNL     1      -6.360   8.513  69.413  1.00  0.00     0.000 HD 
HETATM   28  N   UNL     1      -7.240   8.970  69.655  1.00  0.00    -0.057 N  
BRANCH  28  29
HETATM   29  C   UNL     1      -7.254  10.380  70.028  1.00  0.00    -0.135 C  
BRANCH  29  30
HETATM   30  C   UNL     1      -7.045  11.314  68.828  1.00  0.00    -0.096 C  
HETATM   31  H   UNL     1      -6.035  11.263  67.140  1.00  0.00     0.000 HD 
HETATM   32  O   UNL     1      -6.164  10.685  67.882  1.00  0.00    -0.053 OA 
BRANCH  30  33
HETATM   33  C   UNL     1      -8.384  11.657  68.152  1.00  0.00    -0.154 C  
HETATM   34  O   UNL     1      -8.969  12.828  68.717  1.00  0.00    -0.393 OA 
HETATM   35  H   UNL     1      -9.796  13.040  68.300  1.00  0.00     0.000 HD 
ENDBRANCH  30  33
ENDBRANCH  29  30
ENDBRANCH  28  29
ENDBRANCH  13  25
ENDBRANCH   4   5
BRANCH   4  36
HETATM   36  C   UNL     1      -9.543   4.688  65.168  1.00  0.00    -0.128 C  
BRANCH  36  37
HETATM   37  C   UNL     1      -9.611   3.527  64.141  1.00  0.00    -0.156 C  
HETATM   38  O   UNL     1     -10.637   2.571  64.450  1.00  0.00    -0.374 OA 
HETATM   39  H   UNL     1     -10.678   1.860  63.821  1.00  0.00     0.000 HD 
BRANCH  37  40
HETATM   40  C   UNL     1      -9.870   3.994  62.704  1.00  0.00    -0.150 C  
HETATM   41  O   UNL     1      -9.393   5.335  62.545  1.00  0.00    -0.357 OA 
HETATM   42  H   UNL     1      -9.554   5.625  61.655  1.00  0.00     0.000 HD 
ENDBRANCH  37  40
ENDBRANCH  36  37
ENDBRANCH   4  36
TORSDOF 12
ENDMDL
MODEL      125
REMARK 921   NORMALIZED FREE ENERGY PREDICTED BY IDOCK:   -1.95 KCAL/MOL
REMARK 922        TOTAL FREE ENERGY PREDICTED BY IDOCK:   -4.52 KCAL/MOL
REMARK 923 INTER-LIGAND FREE ENERGY PREDICTED BY IDOCK:   -6.27 KCAL/MOL
REMARK 924 INTRA-LIGAND FREE ENERGY PREDICTED BY IDOCK:    1.75 KCAL/MOL
REMARK 927      BINDING AFFINITY PREDICTED BY RF-SCORE:    0.00 PKD
ROOT
HETATM    1  C   UNL     1      -5.156   7.989  64.725  1.00  0.00    -0.032 C  
HETATM    2  C   UNL     1      -6.142   8.148  65.849  1.00  0.00    -0.041 C  
HETATM    3  O   UNL     1      -5.735   8.319  67.001  1.00  0.00    -0.040 OA 
HETATM    4  N   UNL     1      -7.501   8.078  65.531  1.00  0.00    -0.078 N  
ENDROOT
BRANCH   4   5
HETATM    5  C   UNL     1      -8.421   8.299  66.607  1.00  0.00    -0.123 A  
HETATM    6  C   UNL     1      -9.926   8.911  68.896  1.00  0.00    -0.190 A  
HETATM    7  C   UNL     1      -9.180   9.499  66.648  1.00  0.00    -0.152 A  
HETATM    8  C   UNL     1      -8.531   7.349  67.653  1.00  0.00    -0.120 A  
HETATM    9  I   UNL     1      -7.555   5.425  67.408  1.00  0.00    -0.089 I  
HETATM   10  I   UNL     1      -9.165  10.749  64.880  1.00  0.00    -0.234 I  
HETATM   11  C   UNL     1      -9.273   7.650  68.817  1.00  0.00    -0.142 A  
HETATM   12  I   UNL     1     -10.702   9.564  70.822  1.00  0.00    -0.377 I  
HETATM   13  C   UNL     1      -9.940   9.819  67.792  1.00  0.00    -0.206 A  
BRANCH  11  14
HETATM   14  C   UNL     1      -9.236   6.703  69.972  1.00  0.00    -0.158 C  
HETATM   15  O   UNL     1      -8.249   6.646  70.696  1.00  0.00    -0.121 OA 
HETATM   16  N   UNL     1     -10.349   5.916  70.169  1.00  0.00    -0.220 N  
HETATM   17  H   UNL     1     -11.152   6.020  69.549  1.00  0.00     0.000 HD 
BRANCH  16  18
HETATM   18  C   UNL     1     -10.399   4.935  71.252  1.00  0.00    -0.148 C  
BRANCH  18  19
HETATM   19  C   UNL     1     -11.369   5.356  72.361  1.00  0.00    -0.179 C  
HETATM   20  H   UNL     1     -12.067   4.563  74.018  1.00  0.00     0.000 HD 
HETATM   21  O   UNL     1     -11.465   4.302  73.331  1.00  0.00    -0.280 OA 
BRANCH  19  22
HETATM   22  C   UNL     1     -10.927   6.667  73.028  1.00  0.00    -0.247 C  
HETATM   23  O   UNL     1     -10.481   6.446  74.366  1.00  0.00    -0.377 OA 
HETATM   24  H   UNL     1     -10.208   7.257  74.778  1.00  0.00     0.000 HD 
ENDBRANCH  19  22
ENDBRANCH  18  19
ENDBRANCH  16  18
ENDBRANCH  11  14
BRANCH  13  25
HETATM   25  C   UNL     1     -10.816  11.036  67.856  1.00  0.00    -0.237 C  
HETATM   26  O   UNL     1     -12.023  10.919  67.672  1.00  0.00    -0.512 OA 
HETATM   27  H   UNL     1      -9.232  12.323  68.312  1.00  0.00     0.000 HD 
HETATM   28  N   UNL     1     -10.231  12.263  68.113  1.00  0.00    -0.206 N  
BRANCH  28  29
HETATM   29  C   UNL     1     -11.048  13.471  68.098  1.00  0.00    -0.257 C  
BRANCH  29  30
HETATM   30  C   UNL     1     -11.092  14.142  66.719  1.00  0.00    -0.310 C  
HETATM   31  H   UNL     1     -12.364  14.241  65.221  1.00  0.00     0.000 HD 
HETATM   32  O   UNL     1     -12.338  13.826  66.074  1.00  0.00    -0.434 OA 
BRANCH  30  33
HETATM   33  C   UNL     1     -10.934  15.667  66.839  1.00  0.00    -0.243 C  
HETATM   34  O   UNL     1     -10.913  16.085  68.203  1.00  0.00    -0.314 OA 
HETATM   35  H   UNL     1     -10.816  17.027  68.277  1.00  0.00     0.000 HD 
ENDBRANCH  30  33
ENDBRANCH  29  30
ENDBRANCH  28  29
ENDBRANCH  13  25
ENDBRANCH   4   5
BRANCH   4  36
HETATM   36  C   UNL     1      -8.050   7.844  64.166  1.00  0.00    -0.093 C  
BRANCH  36  37
HETATM   37  C   UNL     1      -8.168   6.372  63.687  1.00  0.00     0.044 C  
HETATM   38  O   UNL     1      -6.895   5.785  63.380  1.00  0.00    -0.035 OA 
HETATM   39  H   UNL     1      -6.967   4.884  63.087  1.00  0.00     0.000 HD 
BRANCH  37  40
HETATM   40  C   UNL     1      -8.840   5.448  64.708  1.00  0.00    -0.020 C  
HETATM   41  O   UNL     1      -8.486   4.090  64.428  1.00  0.00    -0.100 OA 
HETATM   42  H   UNL     1      -8.903   3.517  65.060  1.00  0.00     0.000 HD 
ENDBRANCH  37  40
ENDBRANCH  36  37
ENDBRANCH   4  36
TORSDOF 12
ENDMDL
MODEL      126
REMARK 921   NORMALIZED FREE ENERGY PREDICTED BY IDOCK:   -1.92 KCAL/MOL
REMARK 922        TOTAL FREE ENERGY PREDICTED BY IDOCK:   -4.46 KCAL/MOL
REMARK 923 INTER-LIGAND FREE ENERGY PREDICTED BY IDOCK:   -4.71 KCAL/MOL
REMARK 924 INTRA-LIGAND FREE ENERGY PREDICTED BY IDOCK:    0.25 KCAL/MOL
REMARK 927      BINDING AFFINITY PREDICTED BY RF-SCORE:    0.00 PKD
ROOT
HETATM    1  C   UNL     1     -10.153  10.287  64.115  1.00  0.00    -0.132 C  
HETATM    2  C   UNL     1      -9.393   9.717  65.281  1.00  0.00    -0.255 C  
HETATM    3  O   UNL     1      -8.406   9.005  65.081  1.00  0.00    -0.139 OA 
HETATM    4  N   UNL     1      -9.862  10.016  66.564  1.00  0.00    -0.198 N  
ENDROOT
BRANCH   4   5
HETATM    5  C   UNL     1      -9.084   9.518  67.660  1.00  0.00    -0.120 A  
HETATM    6  C   UNL     1      -7.802   8.749  70.036  1.00  0.00    -0.094 A  
HETATM    7  C   UNL     1      -9.468   8.313  68.306  1.00  0.00    -0.138 A  
HETATM    8  C   UNL     1      -7.969  10.257  68.131  1.00  0.00    -0.109 A  
HETATM    9  I   UNL     1      -7.271  11.940  66.951  1.00  0.00     0.158 I  
HETATM   10  I   UNL     1     -10.995   7.112  67.349  1.00  0.00     0.150 I  
HETATM   11  C   UNL     1      -7.325   9.889  69.333  1.00  0.00    -0.091 A  
HETATM   12  I   UNL     1      -7.120   8.420  72.076  1.00  0.00    -0.047 I  
HETATM   13  C   UNL     1      -8.832   7.915  69.500  1.00  0.00    -0.142 A  
BRANCH  11  14
HETATM   14  C   UNL     1      -6.262  10.777  69.893  1.00  0.00    -0.106 C  
HETATM   15  O   UNL     1      -5.132  10.345  70.091  1.00  0.00    -0.037 OA 
HETATM   16  N   UNL     1      -6.619  12.079  70.168  1.00  0.00    -0.332 N  
HETATM   17  H   UNL     1      -7.568  12.392  69.963  1.00  0.00     0.000 HD 
BRANCH  16  18
HETATM   18  C   UNL     1      -5.660  13.020  70.747  1.00  0.00    -0.183 C  
BRANCH  18  19
HETATM   19  C   UNL     1      -6.149  14.468  70.645  1.00  0.00    -0.174 C  
HETATM   20  H   UNL     1      -5.480  16.236  71.183  1.00  0.00     0.000 HD 
HETATM   21  O   UNL     1      -5.177  15.338  71.247  1.00  0.00    -0.143 OA 
BRANCH  19  22
HETATM   22  C   UNL     1      -6.408  14.873  69.186  1.00  0.00    -0.108 C  
HETATM   23  O   UNL     1      -7.710  15.434  69.025  1.00  0.00    -0.153 OA 
HETATM   24  H   UNL     1      -7.870  15.684  68.122  1.00  0.00     0.000 HD 
ENDBRANCH  19  22
ENDBRANCH  18  19
ENDBRANCH  16  18
ENDBRANCH  11  14
BRANCH  13  25
HETATM   25  C   UNL     1      -9.151   6.615  70.180  1.00  0.00    -0.155 C  
HETATM   26  O   UNL     1     -10.218   6.491  70.770  1.00  0.00    -0.184 OA 
HETATM   27  H   UNL     1      -7.363   5.706  69.586  1.00  0.00     0.000 HD 
HETATM   28  N   UNL     1      -8.221   5.592  70.127  1.00  0.00    -0.112 N  
BRANCH  28  29
HETATM   29  C   UNL     1      -8.472   4.350  70.849  1.00  0.00    -0.088 C  
BRANCH  29  30
HETATM   30  C   UNL     1      -7.913   4.370  72.279  1.00  0.00    -0.096 C  
HETATM   31  H   UNL     1      -8.497   3.735  74.047  1.00  0.00     0.000 HD 
HETATM   32  O   UNL     1      -8.843   3.723  73.163  1.00  0.00    -0.093 OA 
BRANCH  30  33
HETATM   33  C   UNL     1      -6.545   3.670  72.349  1.00  0.00    -0.018 C  
HETATM   34  O   UNL     1      -5.535   4.546  72.844  1.00  0.00    -0.007 OA 
HETATM   35  H   UNL     1      -4.690   4.115  72.888  1.00  0.00     0.000 HD 
ENDBRANCH  30  33
ENDBRANCH  29  30
ENDBRANCH  28  29
ENDBRANCH  13  25
ENDBRANCH   4   5
BRANCH   4  36
HETATM   36  C   UNL     1     -11.063  10.844  66.866  1.00  0.00    -0.167 C  
BRANCH  36  37
HETATM   37  C   UNL     1     -11.251  12.152  66.052  1.00  0.00    -0.336 C  
HETATM   38  O   UNL     1     -12.562  12.265  65.479  1.00  0.00    -0.548 OA 
HETATM   39  H   UNL     1     -12.677  13.065  64.980  1.00  0.00     0.000 HD 
BRANCH  37  40
HETATM   40  C   UNL     1     -11.024  13.424  66.876  1.00  0.00    -0.284 C  
HETATM   41  O   UNL     1     -11.022  13.096  68.270  1.00  0.00    -0.234 OA 
HETATM   42  H   UNL     1     -10.882  13.885  68.780  1.00  0.00     0.000 HD 
ENDBRANCH  37  40
ENDBRANCH  36  37
ENDBRANCH   4  36
TORSDOF 12
ENDMDL
MODEL      127
REMARK 921   NORMALIZED FREE ENERGY PREDICTED BY IDOCK:   -1.90 KCAL/MOL
REMARK 922        TOTAL FREE ENERGY PREDICTED BY IDOCK:   -4.44 KCAL/MOL
REMARK 923 INTER-LIGAND FREE ENERGY PREDICTED BY IDOCK:   -5.77 KCAL/MOL
REMARK 924 INTRA-LIGAND FREE ENERGY PREDICTED BY IDOCK:    1.33 KCAL/MOL
REMARK 927      BINDING AFFINITY PREDICTED BY RF-SCORE:    0.00 PKD
ROOT
HETATM    1  C   UNL     1     -13.188  11.756  64.480  1.00  0.00     1.116 C  
HETATM    2  C   UNL     1     -12.210  12.495  65.351  1.00  0.00    -0.412 C  
HETATM    3  O   UNL     1     -12.498  12.738  66.526  1.00  0.00    -0.406 OA 
HETATM    4  N   UNL     1     -11.002  12.893  64.771  1.00  0.00    -0.304 N  
ENDROOT
BRANCH   4   5
HETATM    5  C   UNL     1     -10.059  13.536  65.638  1.00  0.00    -0.278 A  
HETATM    6  C   UNL     1      -7.954  14.751  67.043  1.00  0.00    -0.104 A  
HETATM    7  C   UNL     1      -9.902  14.947  65.585  1.00  0.00    -0.337 A  
HETATM    8  C   UNL     1      -9.247  12.759  66.502  1.00  0.00    -0.189 A  
HETATM    9  I   UNL     1      -9.708  10.651  66.735  1.00  0.00    -0.254 I  
HETATM   10  I   UNL     1     -11.369  16.071  64.457  1.00  0.00     0.512 I  
HETATM   11  C   UNL     1      -8.175  13.356  67.204  1.00  0.00    -0.121 A  
HETATM   12  I   UNL     1      -6.081  15.599  67.757  1.00  0.00    -0.117 I  
HETATM   13  C   UNL     1      -8.849  15.570  66.286  1.00  0.00    -0.338 A  
BRANCH  11  14
HETATM   14  C   UNL     1      -7.235  12.488  67.976  1.00  0.00    -0.105 C  
HETATM   15  O   UNL     1      -6.161  12.152  67.491  1.00  0.00    -0.092 OA 
HETATM   16  N   UNL     1      -7.638  12.098  69.233  1.00  0.00    -0.325 N  
HETATM   17  H   UNL     1      -8.533  12.425  69.597  1.00  0.00     0.000 HD 
BRANCH  16  18
HETATM   18  C   UNL     1      -6.804  11.222  70.057  1.00  0.00     0.080 C  
BRANCH  18  19
HETATM   19  C   UNL     1      -6.840   9.772  69.566  1.00  0.00    -0.060 C  
HETATM   20  H   UNL     1      -5.573   8.273  69.463  1.00  0.00     0.000 HD 
HETATM   21  O   UNL     1      -5.551   9.172  69.767  1.00  0.00    -0.032 OA 
BRANCH  19  22
HETATM   22  C   UNL     1      -7.931   8.962  70.282  1.00  0.00    -0.115 C  
HETATM   23  O   UNL     1      -8.772   9.804  71.070  1.00  0.00    -0.336 OA 
HETATM   24  H   UNL     1      -9.446   9.303  71.513  1.00  0.00     0.000 HD 
ENDBRANCH  19  22
ENDBRANCH  18  19
ENDBRANCH  16  18
ENDBRANCH  11  14
BRANCH  13  25
HETATM   25  C   UNL     1      -8.685  17.061  66.323  1.00  0.00    -0.250 C  
HETATM   26  O   UNL     1      -7.831  17.590  65.619  1.00  0.00    -0.507 OA 
HETATM   27  H   UNL     1     -10.238  17.339  67.696  1.00  0.00     0.000 HD 
HETATM   28  N   UNL     1      -9.502  17.800  67.160  1.00  0.00    -0.260 N  
BRANCH  28  29
HETATM   29  C   UNL     1      -9.307  19.241  67.274  1.00  0.00    -0.306 C  
BRANCH  29  30
HETATM   30  C   UNL     1      -8.845  19.669  68.674  1.00  0.00    -0.274 C  
HETATM   31  H   UNL     1      -9.486  19.439  70.519  1.00  0.00     0.000 HD 
HETATM   32  O   UNL     1      -9.772  19.174  69.654  1.00  0.00    -0.036 OA 
BRANCH  30  33
HETATM   33  C   UNL     1      -7.430  19.146  68.975  1.00  0.00    -0.318 C  
HETATM   34  O   UNL     1      -6.490  20.213  69.083  1.00  0.00    -0.315 OA 
HETATM   35  H   UNL     1      -5.616  19.890  69.269  1.00  0.00     0.000 HD 
ENDBRANCH  30  33
ENDBRANCH  29  30
ENDBRANCH  28  29
ENDBRANCH  13  25
ENDBRANCH   4   5
BRANCH   4  36
HETATM   36  C   UNL     1     -10.613  12.655  63.353  1.00  0.00    -0.123 C  
BRANCH  36  37
HETATM   37  C   UNL     1      -9.759  11.394  63.050  1.00  0.00    -0.371 C  
HETATM   38  O   UNL     1      -8.352  11.674  63.010  1.00  0.00    -0.332 OA 
HETATM   39  H   UNL     1      -7.830  10.902  62.825  1.00  0.00     0.000 HD 
BRANCH  37  40
HETATM   40  C   UNL     1      -9.951  10.266  64.069  1.00  0.00    -0.125 C  
HETATM   41  O   UNL     1      -9.342   9.068  63.576  1.00  0.00    -0.338 OA 
HETATM   42  H   UNL     1      -9.461   8.369  64.207  1.00  0.00     0.000 HD 
ENDBRANCH  37  40
ENDBRANCH  36  37
ENDBRANCH   4  36
TORSDOF 12
ENDMDL
MODEL      128
REMARK 921   NORMALIZED FREE ENERGY PREDICTED BY IDOCK:   -1.88 KCAL/MOL
REMARK 922        TOTAL FREE ENERGY PREDICTED BY IDOCK:   -4.40 KCAL/MOL
REMARK 923 INTER-LIGAND FREE ENERGY PREDICTED BY IDOCK:   -3.90 KCAL/MOL
REMARK 924 INTRA-LIGAND FREE ENERGY PREDICTED BY IDOCK:   -0.50 KCAL/MOL
REMARK 927      BINDING AFFINITY PREDICTED BY RF-SCORE:    0.00 PKD
ROOT
HETATM    1  C   UNL     1     -11.551  11.360  64.919  1.00  0.00     0.052 C  
HETATM    2  C   UNL     1     -10.406  10.708  65.645  1.00  0.00    -0.216 C  
HETATM    3  O   UNL     1      -9.442  10.277  65.007  1.00  0.00    -0.211 OA 
HETATM    4  N   UNL     1     -10.499  10.606  67.036  1.00  0.00    -0.231 N  
ENDROOT
BRANCH   4   5
HETATM    5  C   UNL     1      -9.367  10.043  67.711  1.00  0.00    -0.140 A  
HETATM    6  C   UNL     1      -7.326   9.054  69.365  1.00  0.00    -0.075 A  
HETATM    7  C   UNL     1      -9.407   8.690  68.142  1.00  0.00    -0.137 A  
HETATM    8  C   UNL     1      -8.237  10.851  67.997  1.00  0.00    -0.121 A  
HETATM    9  I   UNL     1      -8.119  12.819  67.090  1.00  0.00     0.059 I  
HETATM   10  I   UNL     1     -11.036   7.461  67.418  1.00  0.00     0.377 I  
HETATM   11  C   UNL     1      -7.210  10.369  68.840  1.00  0.00    -0.082 A  
HETATM   12  I   UNL     1      -6.000   8.458  70.985  1.00  0.00    -0.043 I  
HETATM   13  C   UNL     1      -8.388   8.180  68.973  1.00  0.00    -0.128 A  
BRANCH  11  14
HETATM   14  C   UNL     1      -6.116  11.297  69.257  1.00  0.00    -0.062 C  
HETATM   15  O   UNL     1      -5.153  11.492  68.524  1.00  0.00    -0.040 OA 
HETATM   16  N   UNL     1      -6.249  11.905  70.486  1.00  0.00    -0.253 N  
HETATM   17  H   UNL     1      -7.082  11.724  71.047  1.00  0.00     0.000 HD 
BRANCH  16  18
HETATM   18  C   UNL     1      -5.217  12.805  71.000  1.00  0.00    -0.165 C  
BRANCH  18  19
HETATM   19  C   UNL     1      -5.740  14.235  71.170  1.00  0.00    -0.210 C  
HETATM   20  H   UNL     1      -7.462  15.156  70.953  1.00  0.00     0.000 HD 
HETATM   21  O   UNL     1      -7.138  14.269  70.847  1.00  0.00     0.590 OA 
BRANCH  19  22
HETATM   22  C   UNL     1      -5.500  14.756  72.595  1.00  0.00     0.094 C  
HETATM   23  O   UNL     1      -6.371  14.125  73.533  1.00  0.00    -0.071 OA 
HETATM   24  H   UNL     1      -6.224  14.448  74.415  1.00  0.00     0.000 HD 
ENDBRANCH  19  22
ENDBRANCH  18  19
ENDBRANCH  16  18
ENDBRANCH  11  14
BRANCH  13  25
HETATM   25  C   UNL     1      -8.345   6.740  69.395  1.00  0.00    -0.132 C  
HETATM   26  O   UNL     1      -7.468   6.009  68.949  1.00  0.00    -0.082 OA 
HETATM   27  H   UNL     1      -9.996   6.918  70.666  1.00  0.00     0.000 HD 
HETATM   28  N   UNL     1      -9.309   6.275  70.272  1.00  0.00    -0.160 N  
BRANCH  28  29
HETATM   29  C   UNL     1      -9.337   4.862  70.631  1.00  0.00    -0.162 C  
BRANCH  29  30
HETATM   30  C   UNL     1     -10.143   4.590  71.909  1.00  0.00    -0.188 C  
HETATM   31  H   UNL     1     -10.637   3.011  72.974  1.00  0.00     0.000 HD 
HETATM   32  O   UNL     1     -10.138   3.179  72.184  1.00  0.00    -0.166 OA 
BRANCH  30  33
HETATM   33  C   UNL     1      -9.562   5.361  73.106  1.00  0.00    -0.145 C  
HETATM   34  O   UNL     1      -8.154   5.164  73.221  1.00  0.00    -0.109 OA 
HETATM   35  H   UNL     1      -7.795   5.640  73.960  1.00  0.00     0.000 HD 
ENDBRANCH  30  33
ENDBRANCH  29  30
ENDBRANCH  28  29
ENDBRANCH  13  25
ENDBRANCH   4   5
BRANCH   4  36
HETATM   36  C   UNL     1     -11.649  11.081  67.855  1.00  0.00    -0.226 C  
BRANCH  36  37
HETATM   37  C   UNL     1     -11.351  11.520  69.314  1.00  0.00    -0.288 C  
HETATM   38  O   UNL     1     -11.007  12.910  69.416  1.00  0.00    -0.437 OA 
HETATM   39  H   UNL     1     -10.825  13.178  70.309  1.00  0.00     0.000 HD 
BRANCH  37  40
HETATM   40  C   UNL     1     -12.524  11.290  70.273  1.00  0.00    -0.250 C  
HETATM   41  O   UNL     1     -12.837   9.894  70.320  1.00  0.00    -0.538 OA 
HETATM   42  H   UNL     1     -13.564   9.752  70.914  1.00  0.00     0.000 HD 
ENDBRANCH  37  40
ENDBRANCH  36  37
ENDBRANCH   4  36
TORSDOF 12
ENDMDL
MODEL      129
REMARK 921   NORMALIZED FREE ENERGY PREDICTED BY IDOCK:   -1.82 KCAL/MOL
REMARK 922        TOTAL FREE ENERGY PREDICTED BY IDOCK:   -4.29 KCAL/MOL
REMARK 923 INTER-LIGAND FREE ENERGY PREDICTED BY IDOCK:   -5.13 KCAL/MOL
REMARK 924 INTRA-LIGAND FREE ENERGY PREDICTED BY IDOCK:    0.84 KCAL/MOL
REMARK 927      BINDING AFFINITY PREDICTED BY RF-SCORE:    0.00 PKD
ROOT
HETATM    1  C   UNL     1      -7.050   3.210  64.749  1.00  0.00    -0.061 C  
HETATM    2  C   UNL     1      -7.043   4.284  65.802  1.00  0.00    -0.067 C  
HETATM    3  O   UNL     1      -5.975   4.793  66.151  1.00  0.00    -0.022 OA 
HETATM    4  N   UNL     1      -8.272   4.651  66.358  1.00  0.00    -0.107 N  
ENDROOT
BRANCH   4   5
HETATM    5  C   UNL     1      -8.249   5.722  67.309  1.00  0.00    -0.102 A  
HETATM    6  C   UNL     1      -7.819   7.747  69.206  1.00  0.00    -0.116 A  
HETATM    7  C   UNL     1      -7.970   7.045  66.873  1.00  0.00    -0.115 A  
HETATM    8  C   UNL     1      -8.446   5.451  68.687  1.00  0.00    -0.093 A  
HETATM    9  I   UNL     1      -9.127   3.473  69.264  1.00  0.00    -0.230 I  
HETATM   10  I   UNL     1      -7.967   7.410  64.738  1.00  0.00    -0.018 I  
HETATM   11  C   UNL     1      -8.219   6.458  69.652  1.00  0.00    -0.126 A  
HETATM   12  I   UNL     1      -7.055   9.166  70.668  1.00  0.00    -0.116 I  
HETATM   13  C   UNL     1      -7.752   8.071  67.815  1.00  0.00    -0.110 A  
BRANCH  11  14
HETATM   14  C   UNL     1      -8.273   6.103  71.103  1.00  0.00    -0.123 C  
HETATM   15  O   UNL     1      -7.275   5.679  71.676  1.00  0.00    -0.077 OA 
HETATM   16  N   UNL     1      -9.480   6.275  71.742  1.00  0.00    -0.151 N  
HETATM   17  H   UNL     1     -10.273   6.652  71.223  1.00  0.00     0.000 HD 
BRANCH  16  18
HETATM   18  C   UNL     1      -9.645   5.927  73.154  1.00  0.00    -0.146 C  
BRANCH  18  19
HETATM   19  C   UNL     1     -10.820   4.968  73.372  1.00  0.00    -0.299 C  
HETATM   20  H   UNL     1     -12.605   4.705  72.593  1.00  0.00     0.000 HD 
HETATM   21  O   UNL     1     -11.877   5.299  72.458  1.00  0.00    -0.149 OA 
BRANCH  19  22
HETATM   22  C   UNL     1     -10.392   3.503  73.196  1.00  0.00    -0.162 C  
HETATM   23  O   UNL     1      -8.980   3.391  73.018  1.00  0.00    -0.087 OA 
HETATM   24  H   UNL     1      -8.715   2.485  72.909  1.00  0.00     0.000 HD 
ENDBRANCH  19  22
ENDBRANCH  18  19
ENDBRANCH  16  18
ENDBRANCH  11  14
BRANCH  13  25
HETATM   25  C   UNL     1      -7.528   9.498  67.405  1.00  0.00    -0.091 C  
HETATM   26  O   UNL     1      -6.382   9.926  67.321  1.00  0.00    -0.066 OA 
HETATM   27  H   UNL     1      -9.567   9.898  67.171  1.00  0.00     0.000 HD 
HETATM   28  N   UNL     1      -8.628  10.295  67.142  1.00  0.00    -0.126 N  
BRANCH  28  29
HETATM   29  C   UNL     1      -8.438  11.705  66.823  1.00  0.00    -0.177 C  
BRANCH  29  30
HETATM   30  C   UNL     1      -9.734  12.391  66.368  1.00  0.00    -0.240 C  
HETATM   31  H   UNL     1     -10.721  12.598  64.678  1.00  0.00     0.000 HD 
HETATM   32  O   UNL     1      -9.919  12.174  64.959  1.00  0.00    -0.260 OA 
BRANCH  30  33
HETATM   33  C   UNL     1     -10.947  11.855  67.147  1.00  0.00    -0.269 C  
HETATM   34  O   UNL     1     -12.174  12.210  66.512  1.00  0.00    -0.584 OA 
HETATM   35  H   UNL     1     -12.924  11.880  66.993  1.00  0.00     0.000 HD 
ENDBRANCH  30  33
ENDBRANCH  29  30
ENDBRANCH  28  29
ENDBRANCH  13  25
ENDBRANCH   4   5
BRANCH   4  36
HETATM   36  C   UNL     1      -9.588   4.052  65.998  1.00  0.00    -0.194 C  
BRANCH  36  37
HETATM   37  C   UNL     1     -10.210   4.462  64.636  1.00  0.00    -0.032 C  
HETATM   38  O   UNL     1      -9.249   5.039  63.739  1.00  0.00    -0.348 OA 
HETATM   39  H   UNL     1      -9.630   5.290  62.906  1.00  0.00     0.000 HD 
BRANCH  37  40
HETATM   40  C   UNL     1     -10.863   3.297  63.885  1.00  0.00    -0.114 C  
HETATM   41  O   UNL     1     -10.943   3.612  62.491  1.00  0.00    -0.156 OA 
HETATM   42  H   UNL     1     -11.348   2.890  62.026  1.00  0.00     0.000 HD 
ENDBRANCH  37  40
ENDBRANCH  36  37
ENDBRANCH   4  36
TORSDOF 12
ENDMDL
MODEL      130
REMARK 921   NORMALIZED FREE ENERGY PREDICTED BY IDOCK:   -1.76 KCAL/MOL
REMARK 922        TOTAL FREE ENERGY PREDICTED BY IDOCK:   -4.20 KCAL/MOL
REMARK 923 INTER-LIGAND FREE ENERGY PREDICTED BY IDOCK:   -5.16 KCAL/MOL
REMARK 924 INTRA-LIGAND FREE ENERGY PREDICTED BY IDOCK:    0.95 KCAL/MOL
REMARK 927      BINDING AFFINITY PREDICTED BY RF-SCORE:    0.00 PKD
ROOT
HETATM    1  C   UNL     1     -12.606   7.650  71.744  1.00  0.00    -0.359 C  
HETATM    2  C   UNL     1     -11.469   8.173  70.911  1.00  0.00    -0.271 C  
HETATM    3  O   UNL     1     -11.452   9.360  70.573  1.00  0.00    -0.263 OA 
HETATM    4  N   UNL     1     -10.472   7.267  70.538  1.00  0.00    -0.214 N  
ENDROOT
BRANCH   4   5
HETATM    5  C   UNL     1      -9.364   7.802  69.803  1.00  0.00    -0.153 A  
HETATM    6  C   UNL     1      -7.411   9.178  68.329  1.00  0.00    -0.079 A  
HETATM    7  C   UNL     1      -8.348   8.522  70.485  1.00  0.00    -0.135 A  
HETATM    8  C   UNL     1      -9.316   7.662  68.392  1.00  0.00    -0.146 A  
HETATM    9  I   UNL     1     -10.744   6.337  67.436  1.00  0.00    -0.419 I  
HETATM   10  I   UNL     1      -8.351   8.440  72.649  1.00  0.00     0.033 I  
HETATM   11  C   UNL     1      -8.347   8.361  67.638  1.00  0.00    -0.130 A  
HETATM   12  I   UNL     1      -6.204  10.580  67.182  1.00  0.00    -0.077 I  
HETATM   13  C   UNL     1      -7.360   9.217  69.757  1.00  0.00    -0.064 A  
BRANCH  11  14
HETATM   14  C   UNL     1      -8.421   8.328  66.146  1.00  0.00    -0.134 C  
HETATM   15  O   UNL     1      -8.838   9.298  65.524  1.00  0.00    -0.162 OA 
HETATM   16  N   UNL     1      -8.003   7.171  65.527  1.00  0.00    -0.115 N  
HETATM   17  H   UNL     1      -7.644   6.401  66.092  1.00  0.00     0.000 HD 
BRANCH  16  18
HETATM   18  C   UNL     1      -8.066   7.027  64.072  1.00  0.00    -0.011 C  
BRANCH  18  19
HETATM   19  C   UNL     1      -7.189   5.873  63.574  1.00  0.00    -0.058 C  
HETATM   20  H   UNL     1      -5.360   5.671  62.884  1.00  0.00     0.000 HD 
HETATM   21  O   UNL     1      -5.904   6.386  63.193  1.00  0.00    -0.025 OA 
BRANCH  19  22
HETATM   22  C   UNL     1      -7.040   4.779  64.642  1.00  0.00    -0.058 C  
HETATM   23  O   UNL     1      -6.254   5.230  65.744  1.00  0.00    -0.032 OA 
HETATM   24  H   UNL     1      -6.161   4.553  66.404  1.00  0.00     0.000 HD 
ENDBRANCH  19  22
ENDBRANCH  18  19
ENDBRANCH  16  18
ENDBRANCH  11  14
BRANCH  13  25
HETATM   25  C   UNL     1      -6.223   9.929  70.431  1.00  0.00    -0.094 C  
HETATM   26  O   UNL     1      -5.362   9.275  71.009  1.00  0.00    -0.029 OA 
HETATM   27  H   UNL     1      -6.887  11.827  69.855  1.00  0.00     0.000 HD 
HETATM   28  N   UNL     1      -6.185  11.311  70.386  1.00  0.00    -0.129 N  
BRANCH  28  29
HETATM   29  C   UNL     1      -5.136  12.028  71.103  1.00  0.00    -0.130 C  
BRANCH  29  30
HETATM   30  C   UNL     1      -5.311  13.552  71.043  1.00  0.00    -0.174 C  
HETATM   31  H   UNL     1      -6.535  14.813  70.158  1.00  0.00     0.000 HD 
HETATM   32  O   UNL     1      -6.427  13.871  70.195  1.00  0.00    -0.112 OA 
BRANCH  30  33
HETATM   33  C   UNL     1      -5.530  14.140  72.447  1.00  0.00    -0.171 C  
HETATM   34  O   UNL     1      -5.478  13.129  73.451  1.00  0.00    -0.367 OA 
HETATM   35  H   UNL     1      -5.613  13.492  74.319  1.00  0.00     0.000 HD 
ENDBRANCH  30  33
ENDBRANCH  29  30
ENDBRANCH  28  29
ENDBRANCH  13  25
ENDBRANCH   4   5
BRANCH   4  36
HETATM   36  C   UNL     1     -10.454   5.819  70.891  1.00  0.00    -0.252 C  
BRANCH  36  37
HETATM   37  C   UNL     1     -10.344   5.453  72.395  1.00  0.00    -0.209 C  
HETATM   38  O   UNL     1     -11.620   5.188  72.996  1.00  0.00    -0.385 OA 
HETATM   39  H   UNL     1     -11.552   4.964  73.917  1.00  0.00     0.000 HD 
BRANCH  37  40
HETATM   40  C   UNL     1      -9.471   4.223  72.664  1.00  0.00    -0.127 C  
HETATM   41  O   UNL     1      -8.575   4.499  73.746  1.00  0.00    -0.103 OA 
HETATM   42  H   UNL     1      -8.034   3.736  73.912  1.00  0.00     0.000 HD 
ENDBRANCH  37  40
ENDBRANCH  36  37
ENDBRANCH   4  36
TORSDOF 12
ENDMDL
MODEL      131
REMARK 921   NORMALIZED FREE ENERGY PREDICTED BY IDOCK:   -1.70 KCAL/MOL
REMARK 922        TOTAL FREE ENERGY PREDICTED BY IDOCK:   -4.09 KCAL/MOL
REMARK 923 INTER-LIGAND FREE ENERGY PREDICTED BY IDOCK:   -3.50 KCAL/MOL
REMARK 924 INTRA-LIGAND FREE ENERGY PREDICTED BY IDOCK:   -0.59 KCAL/MOL
REMARK 927      BINDING AFFINITY PREDICTED BY RF-SCORE:    0.00 PKD
ROOT
HETATM    1  C   UNL     1     -13.336  12.724  65.344  1.00  0.00     1.247 C  
HETATM    2  C   UNL     1     -11.900  12.878  65.761  1.00  0.00    -0.419 C  
HETATM    3  O   UNL     1     -11.049  13.191  64.923  1.00  0.00    -0.296 OA 
HETATM    4  N   UNL     1     -11.588  12.639  67.102  1.00  0.00    -0.348 N  
ENDROOT
BRANCH   4   5
HETATM    5  C   UNL     1     -10.225  12.858  67.489  1.00  0.00    -0.213 A  
HETATM    6  C   UNL     1      -7.498  13.399  67.877  1.00  0.00    -0.149 A  
HETATM    7  C   UNL     1      -9.823  14.137  67.956  1.00  0.00    -0.223 A  
HETATM    8  C   UNL     1      -9.273  11.816  67.352  1.00  0.00    -0.174 A  
HETATM    9  I   UNL     1      -9.987   9.819  66.891  1.00  0.00    -0.306 I  
HETATM   10  I   UNL     1     -11.383  15.571  68.403  1.00  0.00    -0.318 I  
HETATM   11  C   UNL     1      -7.896  12.079  67.531  1.00  0.00    -0.155 A  
HETATM   12  I   UNL     1      -5.391  13.923  67.734  1.00  0.00     0.241 I  
HETATM   13  C   UNL     1      -8.456  14.422  68.155  1.00  0.00    -0.160 A  
BRANCH  11  14
HETATM   14  C   UNL     1      -6.903  11.007  67.220  1.00  0.00    -0.088 C  
HETATM   15  O   UNL     1      -6.441  10.898  66.089  1.00  0.00    -0.126 OA 
HETATM   16  N   UNL     1      -6.547  10.168  68.252  1.00  0.00    -0.054 N  
HETATM   17  H   UNL     1      -6.945  10.317  69.179  1.00  0.00     0.000 HD 
BRANCH  16  18
HETATM   18  C   UNL     1      -5.606   9.068  68.042  1.00  0.00    -0.038 C  
BRANCH  18  19
HETATM   19  C   UNL     1      -6.248   7.705  68.321  1.00  0.00    -0.040 C  
HETATM   20  H   UNL     1      -7.122   6.300  67.261  1.00  0.00     0.000 HD 
HETATM   21  O   UNL     1      -6.723   7.144  67.087  1.00  0.00    -0.062 OA 
BRANCH  19  22
HETATM   22  C   UNL     1      -5.262   6.748  69.006  1.00  0.00    -0.013 C  
HETATM   23  O   UNL     1      -5.190   6.991  70.411  1.00  0.00    -0.022 OA 
HETATM   24  H   UNL     1      -4.580   6.399  70.834  1.00  0.00     0.000 HD 
ENDBRANCH  19  22
ENDBRANCH  18  19
ENDBRANCH  16  18
ENDBRANCH  11  14
BRANCH  13  25
HETATM   25  C   UNL     1      -7.986  15.733  68.717  1.00  0.00    -0.180 C  
HETATM   26  O   UNL     1      -7.591  15.783  69.877  1.00  0.00    -0.056 OA 
HETATM   27  H   UNL     1      -8.307  16.773  66.931  1.00  0.00     0.000 HD 
HETATM   28  N   UNL     1      -8.021  16.854  67.907  1.00  0.00    -0.180 N  
BRANCH  28  29
HETATM   29  C   UNL     1      -7.648  18.153  68.456  1.00  0.00    -0.289 C  
BRANCH  29  30
HETATM   30  C   UNL     1      -8.352  19.320  67.750  1.00  0.00    -0.300 C  
HETATM   31  H   UNL     1      -7.892  21.164  67.240  1.00  0.00     0.000 HD 
HETATM   32  O   UNL     1      -7.456  20.442  67.677  1.00  0.00    -0.298 OA 
BRANCH  30  33
HETATM   33  C   UNL     1      -8.810  18.919  66.338  1.00  0.00    -0.306 C  
HETATM   34  O   UNL     1      -8.719  20.014  65.428  1.00  0.00    -0.353 OA 
HETATM   35  H   UNL     1      -9.002  19.767  64.556  1.00  0.00     0.000 HD 
ENDBRANCH  30  33
ENDBRANCH  29  30
ENDBRANCH  28  29
ENDBRANCH  13  25
ENDBRANCH   4   5
BRANCH   4  36
HETATM   36  C   UNL     1     -12.565  12.231  68.150  1.00  0.00     1.400 C  
BRANCH  36  37
HETATM   37  C   UNL     1     -11.999  11.567  69.433  1.00  0.00    -0.325 C  
HETATM   38  O   UNL     1     -11.597  12.526  70.423  1.00  0.00    -0.532 OA 
HETATM   39  H   UNL     1     -11.250  12.120  71.209  1.00  0.00     0.000 HD 
BRANCH  37  40
HETATM   40  C   UNL     1     -12.988  10.620  70.120  1.00  0.00     0.013 C  
HETATM   41  O   UNL     1     -12.547  10.356  71.457  1.00  0.00    -0.381 OA 
HETATM   42  H   UNL     1     -13.161   9.769  71.882  1.00  0.00     0.000 HD 
ENDBRANCH  37  40
ENDBRANCH  36  37
ENDBRANCH   4  36
TORSDOF 12
ENDMDL
MODEL      132
REMARK 921   NORMALIZED FREE ENERGY PREDICTED BY IDOCK:   -1.66 KCAL/MOL
REMARK 922        TOTAL FREE ENERGY PREDICTED BY IDOCK:   -4.02 KCAL/MOL
REMARK 923 INTER-LIGAND FREE ENERGY PREDICTED BY IDOCK:   -4.31 KCAL/MOL
REMARK 924 INTRA-LIGAND FREE ENERGY PREDICTED BY IDOCK:    0.29 KCAL/MOL
REMARK 927      BINDING AFFINITY PREDICTED BY RF-SCORE:    0.00 PKD
ROOT
HETATM    1  C   UNL     1      -9.320   6.698  72.064  1.00  0.00    -0.142 C  
HETATM    2  C   UNL     1      -9.208   7.040  70.604  1.00  0.00    -0.158 C  
HETATM    3  O   UNL     1     -10.228   7.262  69.947  1.00  0.00    -0.197 OA 
HETATM    4  N   UNL     1      -7.927   7.077  70.046  1.00  0.00    -0.113 N  
ENDROOT
BRANCH   4   5
HETATM    5  C   UNL     1      -7.841   7.471  68.671  1.00  0.00    -0.121 A  
HETATM    6  C   UNL     1      -8.063   8.226  65.976  1.00  0.00    -0.110 A  
HETATM    7  C   UNL     1      -7.885   8.849  68.329  1.00  0.00    -0.101 A  
HETATM    8  C   UNL     1      -7.768   6.485  67.654  1.00  0.00    -0.106 A  
HETATM    9  I   UNL     1      -7.437   4.421  68.237  1.00  0.00    -0.064 I  
HETATM   10  I   UNL     1      -7.706  10.281  69.944  1.00  0.00     0.217 I  
HETATM   11  C   UNL     1      -7.893   6.851  66.295  1.00  0.00    -0.101 A  
HETATM   12  I   UNL     1      -8.683   8.761  63.960  1.00  0.00     0.420 I  
HETATM   13  C   UNL     1      -7.997   9.242  66.980  1.00  0.00    -0.102 A  
BRANCH  11  14
HETATM   14  C   UNL     1      -7.980   5.780  65.257  1.00  0.00    -0.120 C  
HETATM   15  O   UNL     1      -6.984   5.445  64.626  1.00  0.00    -0.047 OA 
HETATM   16  N   UNL     1      -9.216   5.206  65.055  1.00  0.00    -0.328 N  
HETATM   17  H   UNL     1     -10.007   5.508  65.623  1.00  0.00     0.000 HD 
BRANCH  16  18
HETATM   18  C   UNL     1      -9.412   4.172  64.039  1.00  0.00    -0.152 C  
BRANCH  18  19
HETATM   19  C   UNL     1      -8.687   2.871  64.401  1.00  0.00    -0.096 C  
HETATM   20  H   UNL     1      -8.902   1.446  65.737  1.00  0.00     0.000 HD 
HETATM   21  O   UNL     1      -9.352   2.252  65.513  1.00  0.00    -0.095 OA 
BRANCH  19  22
HETATM   22  C   UNL     1      -8.625   1.910  63.204  1.00  0.00    -0.076 C  
HETATM   23  O   UNL     1      -9.875   1.851  62.518  1.00  0.00    -0.088 OA 
HETATM   24  H   UNL     1      -9.837   1.257  61.778  1.00  0.00     0.000 HD 
ENDBRANCH  19  22
ENDBRANCH  18  19
ENDBRANCH  16  18
ENDBRANCH  11  14
BRANCH  13  25
HETATM   25  C   UNL     1      -7.973  10.684  66.563  1.00  0.00    -0.138 C  
HETATM   26  O   UNL     1      -6.910  11.196  66.229  1.00  0.00    -0.123 OA 
HETATM   27  H   UNL     1     -10.034  10.934  66.808  1.00  0.00     0.000 HD 
HETATM   28  N   UNL     1      -9.157  11.399  66.575  1.00  0.00    -0.180 N  
BRANCH  28  29
HETATM   29  C   UNL     1      -9.145  12.822  66.253  1.00  0.00    -0.024 C  
BRANCH  29  30
HETATM   30  C   UNL     1     -10.384  13.262  65.462  1.00  0.00    -0.291 C  
HETATM   31  H   UNL     1     -10.893  13.396  63.566  1.00  0.00     0.000 HD 
HETATM   32  O   UNL     1     -10.126  13.124  64.055  1.00  0.00    -0.356 OA 
BRANCH  30  33
HETATM   33  C   UNL     1     -11.617  12.431  65.855  1.00  0.00    -0.396 C  
HETATM   34  O   UNL     1     -12.655  12.544  64.884  1.00  0.00    -0.542 OA 
HETATM   35  H   UNL     1     -13.417  12.030  65.126  1.00  0.00     0.000 HD 
ENDBRANCH  30  33
ENDBRANCH  29  30
ENDBRANCH  28  29
ENDBRANCH  13  25
ENDBRANCH   4   5
BRANCH   4  36
HETATM   36  C   UNL     1      -6.663   6.790  70.781  1.00  0.00    -0.054 C  
BRANCH  36  37
HETATM   37  C   UNL     1      -6.692   6.923  72.327  1.00  0.00    -0.058 C  
HETATM   38  O   UNL     1      -6.036   5.832  72.990  1.00  0.00    -0.045 OA 
HETATM   39  H   UNL     1      -6.054   5.914  73.937  1.00  0.00     0.000 HD 
BRANCH  37  40
HETATM   40  C   UNL     1      -6.033   8.207  72.844  1.00  0.00    -0.065 C  
HETATM   41  O   UNL     1      -6.960   8.922  73.668  1.00  0.00    -0.353 OA 
HETATM   42  H   UNL     1      -6.551   9.717  73.988  1.00  0.00     0.000 HD 
ENDBRANCH  37  40
ENDBRANCH  36  37
ENDBRANCH   4  36
TORSDOF 12
ENDMDL
MODEL      133
REMARK 921   NORMALIZED FREE ENERGY PREDICTED BY IDOCK:   -1.58 KCAL/MOL
REMARK 922        TOTAL FREE ENERGY PREDICTED BY IDOCK:   -3.88 KCAL/MOL
REMARK 923 INTER-LIGAND FREE ENERGY PREDICTED BY IDOCK:   -4.91 KCAL/MOL
REMARK 924 INTRA-LIGAND FREE ENERGY PREDICTED BY IDOCK:    1.02 KCAL/MOL
REMARK 927      BINDING AFFINITY PREDICTED BY RF-SCORE:    0.00 PKD
ROOT
HETATM    1  C   UNL     1     -10.688  18.887  67.863  1.00  0.00    -0.362 C  
HETATM    2  C   UNL     1     -10.864  17.397  67.955  1.00  0.00    -0.281 C  
HETATM    3  O   UNL     1     -11.779  16.849  67.335  1.00  0.00     0.539 OA 
HETATM    4  N   UNL     1      -9.972  16.690  68.768  1.00  0.00    -0.252 N  
ENDROOT
BRANCH   4   5
HETATM    5  C   UNL     1     -10.118  15.265  68.787  1.00  0.00    -0.219 A  
HETATM    6  C   UNL     1     -10.702  12.527  68.577  1.00  0.00    -0.239 A  
HETATM    7  C   UNL     1      -9.445  14.476  67.816  1.00  0.00    -0.210 A  
HETATM    8  C   UNL     1     -10.975  14.652  69.735  1.00  0.00    -0.201 A  
HETATM    9  I   UNL     1     -11.764  15.867  71.351  1.00  0.00    -0.457 I  
HETATM   10  I   UNL     1      -7.946  15.457  66.600  1.00  0.00     0.553 I  
HETATM   11  C   UNL     1     -11.288  13.278  69.632  1.00  0.00    -0.191 A  
HETATM   12  I   UNL     1     -11.493  10.547  68.142  1.00  0.00     0.289 I  
HETATM   13  C   UNL     1      -9.729  13.100  67.700  1.00  0.00    -0.213 A  
BRANCH  11  14
HETATM   14  C   UNL     1     -12.321  12.695  70.541  1.00  0.00    -0.268 C  
HETATM   15  O   UNL     1     -13.326  13.335  70.831  1.00  0.00    -0.002 OA 
HETATM   16  N   UNL     1     -12.082  11.427  71.023  1.00  0.00    -0.312 N  
HETATM   17  H   UNL     1     -11.240  10.930  70.733  1.00  0.00     0.000 HD 
BRANCH  16  18
HETATM   18  C   UNL     1     -13.017  10.781  71.945  1.00  0.00    -0.419 C  
BRANCH  18  19
HETATM   19  C   UNL     1     -12.562   9.366  72.320  1.00  0.00    -0.306 C  
HETATM   20  H   UNL     1     -13.207   7.536  72.009  1.00  0.00     0.000 HD 
HETATM   21  O   UNL     1     -13.488   8.413  71.777  1.00  0.00    -0.342 OA 
BRANCH  19  22
HETATM   22  C   UNL     1     -11.138   9.082  71.821  1.00  0.00    -0.374 C  
HETATM   23  O   UNL     1     -10.418   8.262  72.741  1.00  0.00    -0.333 OA 
HETATM   24  H   UNL     1      -9.536   8.087  72.432  1.00  0.00     0.000 HD 
ENDBRANCH  19  22
ENDBRANCH  18  19
ENDBRANCH  16  18
ENDBRANCH  11  14
BRANCH  13  25
HETATM   25  C   UNL     1      -8.992  12.209  66.742  1.00  0.00    -0.203 C  
HETATM   26  O   UNL     1      -9.413  12.080  65.597  1.00  0.00    -0.221 OA 
HETATM   27  H   UNL     1      -7.504  11.716  68.125  1.00  0.00     0.000 HD 
HETATM   28  N   UNL     1      -7.859  11.550  67.183  1.00  0.00    -0.152 N  
BRANCH  28  29
HETATM   29  C   UNL     1      -7.174  10.617  66.296  1.00  0.00    -0.137 C  
BRANCH  29  30
HETATM   30  C   UNL     1      -7.551   9.154  66.567  1.00  0.00    -0.093 C  
HETATM   31  H   UNL     1      -8.829   7.851  65.832  1.00  0.00     0.000 HD 
HETATM   32  O   UNL     1      -8.596   8.756  65.664  1.00  0.00    -0.152 OA 
BRANCH  30  33
HETATM   33  C   UNL     1      -6.334   8.228  66.405  1.00  0.00    -0.050 C  
HETATM   34  O   UNL     1      -6.271   7.259  67.450  1.00  0.00    -0.046 OA 
HETATM   35  H   UNL     1      -5.519   6.688  67.350  1.00  0.00     0.000 HD 
ENDBRANCH  30  33
ENDBRANCH  29  30
ENDBRANCH  28  29
ENDBRANCH  13  25
ENDBRANCH   4   5
BRANCH   4  36
HETATM   36  C   UNL     1      -8.869  17.300  69.561  1.00  0.00     0.595 C  
BRANCH  36  37
HETATM   37  C   UNL     1      -7.525  17.563  68.829  1.00  0.00    -0.258 C  
HETATM   38  O   UNL     1      -7.440  18.888  68.284  1.00  0.00    -0.267 OA 
HETATM   39  H   UNL     1      -6.618  19.048  67.836  1.00  0.00     0.000 HD 
BRANCH  37  40
HETATM   40  C   UNL     1      -6.295  17.380  69.724  1.00  0.00    -0.142 C  
HETATM   41  O   UNL     1      -6.150  15.996  70.060  1.00  0.00    -0.181 OA 
HETATM   42  H   UNL     1      -5.388  15.882  70.615  1.00  0.00     0.000 HD 
ENDBRANCH  37  40
ENDBRANCH  36  37
ENDBRANCH   4  36
TORSDOF 12
ENDMDL
MODEL      134
REMARK 921   NORMALIZED FREE ENERGY PREDICTED BY IDOCK:   -1.56 KCAL/MOL
REMARK 922        TOTAL FREE ENERGY PREDICTED BY IDOCK:   -3.85 KCAL/MOL
REMARK 923 INTER-LIGAND FREE ENERGY PREDICTED BY IDOCK:   -3.58 KCAL/MOL
REMARK 924 INTRA-LIGAND FREE ENERGY PREDICTED BY IDOCK:   -0.28 KCAL/MOL
REMARK 927      BINDING AFFINITY PREDICTED BY RF-SCORE:    0.00 PKD
ROOT
HETATM    1  C   UNL     1      -6.617  12.402  70.328  1.00  0.00     0.495 C  
HETATM    2  C   UNL     1      -7.255  11.675  69.176  1.00  0.00    -0.064 C  
HETATM    3  O   UNL     1      -7.964  10.689  69.391  1.00  0.00    -0.154 OA 
HETATM    4  N   UNL     1      -6.996  12.153  67.888  1.00  0.00    -0.089 N  
ENDROOT
BRANCH   4   5
HETATM    5  C   UNL     1      -7.668  11.486  66.812  1.00  0.00    -0.136 A  
HETATM    6  C   UNL     1      -8.826  10.452  64.473  1.00  0.00    -0.207 A  
HETATM    7  C   UNL     1      -6.998  10.462  66.090  1.00  0.00    -0.126 A  
HETATM    8  C   UNL     1      -8.975  11.886  66.436  1.00  0.00    -0.180 A  
HETATM    9  I   UNL     1     -10.047  13.260  67.730  1.00  0.00    -0.246 I  
HETATM   10  I   UNL     1      -5.133   9.724  66.907  1.00  0.00    -0.042 I  
HETATM   11  C   UNL     1      -9.563  11.384  65.253  1.00  0.00    -0.256 A  
HETATM   12  I   UNL     1      -9.516  10.003  62.458  1.00  0.00     0.344 I  
HETATM   13  C   UNL     1      -7.568   9.934  64.914  1.00  0.00    -0.135 A  
BRANCH  11  14
HETATM   14  C   UNL     1     -10.869  11.946  64.793  1.00  0.00    -0.307 C  
HETATM   15  O   UNL     1     -11.917  11.353  65.026  1.00  0.00     0.068 OA 
HETATM   16  N   UNL     1     -10.827  13.140  64.108  1.00  0.00    -0.457 N  
HETATM   17  H   UNL     1      -9.930  13.602  63.961  1.00  0.00     0.000 HD 
BRANCH  16  18
HETATM   18  C   UNL     1     -12.048  13.757  63.588  1.00  0.00    -0.279 C  
BRANCH  18  19
HETATM   19  C   UNL     1     -12.342  15.100  64.265  1.00  0.00    -0.178 C  
HETATM   20  H   UNL     1     -13.805  15.866  65.329  1.00  0.00     0.000 HD 
HETATM   21  O   UNL     1     -13.623  15.034  64.910  1.00  0.00     0.541 OA 
BRANCH  19  22
HETATM   22  C   UNL     1     -11.246  15.473  65.274  1.00  0.00    -0.275 C  
HETATM   23  O   UNL     1     -10.663  16.738  64.966  1.00  0.00    -0.692 OA 
HETATM   24  H   UNL     1      -9.985  16.969  65.590  1.00  0.00     0.000 HD 
ENDBRANCH  19  22
ENDBRANCH  18  19
ENDBRANCH  16  18
ENDBRANCH  11  14
BRANCH  13  25
HETATM   25  C   UNL     1      -6.936   8.803  64.157  1.00  0.00    -0.089 C  
HETATM   26  O   UNL     1      -6.117   9.050  63.279  1.00  0.00    -0.088 OA 
HETATM   27  H   UNL     1      -7.951   7.328  65.238  1.00  0.00     0.000 HD 
HETATM   28  N   UNL     1      -7.306   7.506  64.468  1.00  0.00    -0.080 N  
BRANCH  28  29
HETATM   29  C   UNL     1      -6.767   6.395  63.692  1.00  0.00    -0.040 C  
BRANCH  29  30
HETATM   30  C   UNL     1      -7.356   5.040  64.106  1.00  0.00    -0.055 C  
HETATM   31  H   UNL     1      -9.148   4.320  64.486  1.00  0.00     0.000 HD 
HETATM   32  O   UNL     1      -8.784   5.158  64.229  1.00  0.00    -0.138 OA 
BRANCH  30  33
HETATM   33  C   UNL     1      -7.005   3.946  63.084  1.00  0.00    -0.044 C  
HETATM   34  O   UNL     1      -5.851   3.209  63.483  1.00  0.00    -0.013 OA 
HETATM   35  H   UNL     1      -5.633   2.534  62.851  1.00  0.00     0.000 HD 
ENDBRANCH  30  33
ENDBRANCH  29  30
ENDBRANCH  28  29
ENDBRANCH  13  25
ENDBRANCH   4   5
BRANCH   4  36
HETATM   36  C   UNL     1      -6.126  13.318  67.565  1.00  0.00    -0.089 C  
BRANCH  36  37
HETATM   37  C   UNL     1      -6.470  14.673  68.240  1.00  0.00    -0.121 C  
HETATM   38  O   UNL     1      -5.338  15.274  68.886  1.00  0.00    -0.096 OA 
HETATM   39  H   UNL     1      -5.549  16.104  69.299  1.00  0.00     0.000 HD 
BRANCH  37  40
HETATM   40  C   UNL     1      -7.023  15.719  67.267  1.00  0.00    -0.197 C  
HETATM   41  O   UNL     1      -7.130  16.982  67.932  1.00  0.00    -0.151 OA 
HETATM   42  H   UNL     1      -7.474  17.630  67.329  1.00  0.00     0.000 HD 
ENDBRANCH  37  40
ENDBRANCH  36  37
ENDBRANCH   4  36
TORSDOF 12
ENDMDL
MODEL      135
REMARK 921   NORMALIZED FREE ENERGY PREDICTED BY IDOCK:   -1.52 KCAL/MOL
REMARK 922        TOTAL FREE ENERGY PREDICTED BY IDOCK:   -3.79 KCAL/MOL
REMARK 923 INTER-LIGAND FREE ENERGY PREDICTED BY IDOCK:   -5.03 KCAL/MOL
REMARK 924 INTRA-LIGAND FREE ENERGY PREDICTED BY IDOCK:    1.24 KCAL/MOL
REMARK 927      BINDING AFFINITY PREDICTED BY RF-SCORE:    0.00 PKD
ROOT
HETATM    1  C   UNL     1     -11.194  11.389  64.769  1.00  0.00    -0.197 C  
HETATM    2  C   UNL     1     -10.553  11.182  66.114  1.00  0.00    -0.248 C  
HETATM    3  O   UNL     1     -11.213  11.363  67.141  1.00  0.00    -0.290 OA 
HETATM    4  N   UNL     1      -9.208  10.801  66.136  1.00  0.00    -0.174 N  
ENDROOT
BRANCH   4   5
HETATM    5  C   UNL     1      -8.639  10.544  67.426  1.00  0.00    -0.122 A  
HETATM    6  C   UNL     1      -7.207   9.918  69.758  1.00  0.00    -0.118 A  
HETATM    7  C   UNL     1      -7.869  11.550  68.068  1.00  0.00    -0.126 A  
HETATM    8  C   UNL     1      -8.798   9.272  68.031  1.00  0.00    -0.128 A  
HETATM    9  I   UNL     1     -10.195   7.871  67.139  1.00  0.00    -0.367 I  
HETATM   10  I   UNL     1      -7.918  13.540  67.215  1.00  0.00     0.120 I  
HETATM   11  C   UNL     1      -8.071   8.940  69.197  1.00  0.00    -0.117 A  
HETATM   12  I   UNL     1      -5.773   9.297  71.274  1.00  0.00    -0.063 I  
HETATM   13  C   UNL     1      -7.144  11.249  69.240  1.00  0.00    -0.112 A  
BRANCH  11  14
HETATM   14  C   UNL     1      -8.129   7.540  69.718  1.00  0.00    -0.126 C  
HETATM   15  O   UNL     1      -7.609   6.623  69.093  1.00  0.00    -0.096 OA 
HETATM   16  N   UNL     1      -8.785   7.347  70.913  1.00  0.00    -0.142 N  
HETATM   17  H   UNL     1      -9.181   8.149  71.403  1.00  0.00     0.000 HD 
BRANCH  16  18
HETATM   18  C   UNL     1      -8.925   6.011  71.492  1.00  0.00    -0.143 C  
BRANCH  18  19
HETATM   19  C   UNL     1     -10.339   5.452  71.305  1.00  0.00    -0.228 C  
HETATM   20  H   UNL     1     -11.187   3.680  71.359  1.00  0.00     0.000 HD 
HETATM   21  O   UNL     1     -10.310   4.026  71.475  1.00  0.00    -0.075 OA 
BRANCH  19  22
HETATM   22  C   UNL     1     -11.332   6.094  72.285  1.00  0.00    -0.300 C  
HETATM   23  O   UNL     1     -10.655   6.790  73.331  1.00  0.00    -0.279 OA 
HETATM   24  H   UNL     1     -11.270   7.187  73.937  1.00  0.00     0.000 HD 
ENDBRANCH  19  22
ENDBRANCH  18  19
ENDBRANCH  16  18
ENDBRANCH  11  14
BRANCH  13  25
HETATM   25  C   UNL     1      -6.376  12.294  69.996  1.00  0.00    -0.019 C  
HETATM   26  O   UNL     1      -6.151  12.129  71.190  1.00  0.00    -0.178 OA 
HETATM   27  H   UNL     1      -6.108  13.512  68.317  1.00  0.00     0.000 HD 
HETATM   28  N   UNL     1      -5.950  13.425  69.321  1.00  0.00    -0.087 N  
BRANCH  28  29
HETATM   29  C   UNL     1      -5.275  14.491  70.052  1.00  0.00    -0.094 C  
BRANCH  29  30
HETATM   30  C   UNL     1      -6.055  15.812  70.033  1.00  0.00    -0.143 C  
HETATM   31  H   UNL     1      -5.955  17.542  70.965  1.00  0.00     0.000 HD 
HETATM   32  O   UNL     1      -5.471  16.725  70.977  1.00  0.00    -0.108 OA 
BRANCH  30  33
HETATM   33  C   UNL     1      -6.054  16.436  68.627  1.00  0.00    -0.126 C  
HETATM   34  O   UNL     1      -5.137  17.525  68.539  1.00  0.00    -0.136 OA 
HETATM   35  H   UNL     1      -5.136  17.910  67.671  1.00  0.00     0.000 HD 
ENDBRANCH  30  33
ENDBRANCH  29  30
ENDBRANCH  28  29
ENDBRANCH  13  25
ENDBRANCH   4   5
BRANCH   4  36
HETATM   36  C   UNL     1      -8.356  10.596  64.932  1.00  0.00    -0.085 C  
BRANCH  36  37
HETATM   37  C   UNL     1      -8.048   9.133  64.516  1.00  0.00    -0.139 C  
HETATM   38  O   UNL     1      -8.910   8.661  63.470  1.00  0.00    -0.426 OA 
HETATM   39  H   UNL     1      -8.722   7.765  63.215  1.00  0.00     0.000 HD 
BRANCH  37  40
HETATM   40  C   UNL     1      -6.612   8.925  64.026  1.00  0.00    -0.083 C  
HETATM   41  O   UNL     1      -5.724   9.760  64.777  1.00  0.00    -0.072 OA 
HETATM   42  H   UNL     1      -4.834   9.631  64.473  1.00  0.00     0.000 HD 
ENDBRANCH  37  40
ENDBRANCH  36  37
ENDBRANCH   4  36
TORSDOF 12
ENDMDL
MODEL      136
REMARK 921   NORMALIZED FREE ENERGY PREDICTED BY IDOCK:   -1.50 KCAL/MOL
REMARK 922        TOTAL FREE ENERGY PREDICTED BY IDOCK:   -3.75 KCAL/MOL
REMARK 923 INTER-LIGAND FREE ENERGY PREDICTED BY IDOCK:   -4.70 KCAL/MOL
REMARK 924 INTRA-LIGAND FREE ENERGY PREDICTED BY IDOCK:    0.95 KCAL/MOL
REMARK 927      BINDING AFFINITY PREDICTED BY RF-SCORE:    0.00 PKD
ROOT
HETATM    1  C   UNL     1      -7.237   4.186  64.186  1.00  0.00    -0.051 C  
HETATM    2  C   UNL     1      -7.425   4.485  65.648  1.00  0.00    -0.081 C  
HETATM    3  O   UNL     1      -6.440   4.594  66.383  1.00  0.00    -0.039 OA 
HETATM    4  N   UNL     1      -8.735   4.613  66.117  1.00  0.00    -0.114 N  
ENDROOT
BRANCH   4   5
HETATM    5  C   UNL     1      -8.888   4.964  67.498  1.00  0.00    -0.103 A  
HETATM    6  C   UNL     1      -8.795   5.650  70.219  1.00  0.00    -0.139 A  
HETATM    7  C   UNL     1      -8.906   6.333  67.878  1.00  0.00    -0.112 A  
HETATM    8  C   UNL     1      -8.962   3.948  68.484  1.00  0.00    -0.121 A  
HETATM    9  I   UNL     1      -9.196   1.891  67.833  1.00  0.00    -0.101 I  
HETATM   10  I   UNL     1      -9.076   7.804  66.298  1.00  0.00    -0.135 I  
HETATM   11  C   UNL     1      -8.902   4.280  69.857  1.00  0.00    -0.130 A  
HETATM   12  I   UNL     1      -8.272   6.149  72.272  1.00  0.00    -0.106 I  
HETATM   13  C   UNL     1      -8.860   6.691  69.241  1.00  0.00    -0.133 A  
BRANCH  11  14
HETATM   14  C   UNL     1      -8.816   3.183  70.868  1.00  0.00    -0.082 C  
HETATM   15  O   UNL     1      -9.814   2.825  71.483  1.00  0.00    -0.161 OA 
HETATM   16  N   UNL     1      -7.578   2.613  71.065  1.00  0.00    -0.036 N  
HETATM   17  H   UNL     1      -6.784   2.934  70.511  1.00  0.00     0.000 HD 
BRANCH  16  18
HETATM   18  C   UNL     1      -7.382   1.554  72.055  1.00  0.00    -0.038 C  
BRANCH  18  19
HETATM   19  C   UNL     1      -6.369   1.959  73.131  1.00  0.00    -0.013 C  
HETATM   20  H   UNL     1      -5.113   3.444  73.417  1.00  0.00     0.000 HD 
HETATM   21  O   UNL     1      -5.741   3.193  72.750  1.00  0.00    -0.007 OA 
BRANCH  19  22
HETATM   22  C   UNL     1      -7.035   2.095  74.509  1.00  0.00    -0.027 C  
HETATM   23  O   UNL     1      -8.362   2.609  74.397  1.00  0.00    -0.066 OA 
HETATM   24  H   UNL     1      -8.773   2.693  75.249  1.00  0.00     0.000 HD 
ENDBRANCH  19  22
ENDBRANCH  18  19
ENDBRANCH  16  18
ENDBRANCH  11  14
BRANCH  13  25
HETATM   25  C   UNL     1      -8.952   8.119  69.696  1.00  0.00    -0.154 C  
HETATM   26  O   UNL     1      -8.140   8.544  70.510  1.00  0.00    -0.097 OA 
HETATM   27  H   UNL     1     -10.592   8.550  68.472  1.00  0.00     0.000 HD 
HETATM   28  N   UNL     1      -9.962   8.916  69.186  1.00  0.00    -0.184 N  
BRANCH  28  29
HETATM   29  C   UNL     1     -10.121  10.281  69.675  1.00  0.00    -0.224 C  
BRANCH  29  30
HETATM   30  C   UNL     1     -11.431  10.486  70.447  1.00  0.00    -0.341 C  
HETATM   31  H   UNL     1     -13.142  11.406  70.134  1.00  0.00     0.000 HD 
HETATM   32  O   UNL     1     -12.332  11.279  69.656  1.00  0.00    -0.276 OA 
BRANCH  30  33
HETATM   33  C   UNL     1     -12.085   9.139  70.798  1.00  0.00    -0.149 C  
HETATM   34  O   UNL     1     -13.508   9.222  70.758  1.00  0.00    -0.557 OA 
HETATM   35  H   UNL     1     -13.912   8.391  70.975  1.00  0.00     0.000 HD 
ENDBRANCH  30  33
ENDBRANCH  29  30
ENDBRANCH  28  29
ENDBRANCH  13  25
ENDBRANCH   4   5
BRANCH   4  36
HETATM   36  C   UNL     1      -9.962   4.463  65.285  1.00  0.00    -0.200 C  
BRANCH  36  37
HETATM   37  C   UNL     1      -9.934   3.393  64.161  1.00  0.00    -0.185 C  
HETATM   38  O   UNL     1     -10.324   2.091  64.624  1.00  0.00    -0.270 OA 
HETATM   39  H   UNL     1     -10.307   1.436  63.936  1.00  0.00     0.000 HD 
BRANCH  37  40
HETATM   40  C   UNL     1     -10.848   3.725  62.976  1.00  0.00    -0.110 C  
HETATM   41  O   UNL     1     -11.347   2.512  62.403  1.00  0.00    -0.161 OA 
HETATM   42  H   UNL     1     -11.913   2.718  61.669  1.00  0.00     0.000 HD 
ENDBRANCH  37  40
ENDBRANCH  36  37
ENDBRANCH   4  36
TORSDOF 12
ENDMDL
MODEL      137
REMARK 921   NORMALIZED FREE ENERGY PREDICTED BY IDOCK:   -1.43 KCAL/MOL
REMARK 922        TOTAL FREE ENERGY PREDICTED BY IDOCK:   -3.64 KCAL/MOL
REMARK 923 INTER-LIGAND FREE ENERGY PREDICTED BY IDOCK:   -4.74 KCAL/MOL
REMARK 924 INTRA-LIGAND FREE ENERGY PREDICTED BY IDOCK:    1.11 KCAL/MOL
REMARK 927      BINDING AFFINITY PREDICTED BY RF-SCORE:    0.00 PKD
ROOT
HETATM    1  C   UNL     1     -13.867  10.129  71.645  1.00  0.00    -0.017 C  
HETATM    2  C   UNL     1     -12.771   9.774  70.678  1.00  0.00    -0.088 C  
HETATM    3  O   UNL     1     -12.803   8.690  70.089  1.00  0.00     0.941 OA 
HETATM    4  N   UNL     1     -11.741  10.701  70.500  1.00  0.00    -0.333 N  
ENDROOT
BRANCH   4   5
HETATM    5  C   UNL     1     -10.745  10.370  69.524  1.00  0.00    -0.251 A  
HETATM    6  C   UNL     1      -9.052   9.459  67.478  1.00  0.00    -0.124 A  
HETATM    7  C   UNL     1     -10.742  11.033  68.268  1.00  0.00    -0.196 A  
HETATM    8  C   UNL     1      -9.803   9.345  69.792  1.00  0.00    -0.201 A  
HETATM    9  I   UNL     1      -9.683   8.554  71.810  1.00  0.00    -0.376 I  
HETATM   10  I   UNL     1     -12.021  12.768  68.055  1.00  0.00     0.154 I  
HETATM   11  C   UNL     1      -8.956   8.868  68.767  1.00  0.00    -0.134 A  
HETATM   12  I   UNL     1      -8.084   8.468  65.800  1.00  0.00    -0.146 I  
HETATM   13  C   UNL     1      -9.897  10.586  67.232  1.00  0.00    -0.209 A  
BRANCH  11  14
HETATM   14  C   UNL     1      -8.091   7.678  69.030  1.00  0.00    -0.126 C  
HETATM   15  O   UNL     1      -6.913   7.822  69.338  1.00  0.00    -0.059 OA 
HETATM   16  N   UNL     1      -8.681   6.440  68.909  1.00  0.00    -0.126 N  
HETATM   17  H   UNL     1      -9.671   6.377  68.671  1.00  0.00     0.000 HD 
BRANCH  16  18
HETATM   18  C   UNL     1      -7.912   5.212  69.115  1.00  0.00    -0.081 C  
BRANCH  18  19
HETATM   19  C   UNL     1      -8.373   4.086  68.184  1.00  0.00    -0.092 C  
HETATM   20  H   UNL     1      -9.328   3.958  66.471  1.00  0.00     0.000 HD 
HETATM   21  O   UNL     1      -9.042   4.656  67.048  1.00  0.00    -0.114 OA 
BRANCH  19  22
HETATM   22  C   UNL     1      -7.194   3.210  67.734  1.00  0.00    -0.054 C  
HETATM   23  O   UNL     1      -5.949   3.888  67.898  1.00  0.00    -0.025 OA 
HETATM   24  H   UNL     1      -5.220   3.346  67.619  1.00  0.00     0.000 HD 
ENDBRANCH  19  22
ENDBRANCH  18  19
ENDBRANCH  16  18
ENDBRANCH  11  14
BRANCH  13  25
HETATM   25  C   UNL     1      -9.804  11.298  65.913  1.00  0.00    -0.232 C  
HETATM   26  O   UNL     1      -8.882  12.082  65.718  1.00  0.00    -0.003 OA 
HETATM   27  H   UNL     1     -11.497  10.356  65.126  1.00  0.00     0.000 HD 
HETATM   28  N   UNL     1     -10.771  11.052  64.955  1.00  0.00    -0.241 N  
BRANCH  28  29
HETATM   29  C   UNL     1     -10.748  11.792  63.699  1.00  0.00    -0.440 C  
BRANCH  29  30
HETATM   30  C   UNL     1     -12.005  12.647  63.489  1.00  0.00    -0.548 C  
HETATM   31  H   UNL     1     -13.896  12.557  64.025  1.00  0.00     0.000 HD 
HETATM   32  O   UNL     1     -13.118  12.028  64.155  1.00  0.00    -0.661 OA 
BRANCH  30  33
HETATM   33  C   UNL     1     -11.800  14.075  64.023  1.00  0.00    -0.308 C  
HETATM   34  O   UNL     1     -10.450  14.291  64.432  1.00  0.00    -0.572 OA 
HETATM   35  H   UNL     1     -10.323  15.173  64.761  1.00  0.00     0.000 HD 
ENDBRANCH  30  33
ENDBRANCH  29  30
ENDBRANCH  28  29
ENDBRANCH  13  25
ENDBRANCH   4   5
BRANCH   4  36
HETATM   36  C   UNL     1     -11.635  12.010  71.204  1.00  0.00     1.408 C  
BRANCH  36  37
HETATM   37  C   UNL     1     -12.947  12.811  71.421  1.00  0.00    -0.266 C  
HETATM   38  O   UNL     1     -13.401  12.772  72.782  1.00  0.00    -0.515 OA 
HETATM   39  H   UNL     1     -14.204  13.263  72.915  1.00  0.00     0.000 HD 
BRANCH  37  40
HETATM   40  C   UNL     1     -12.830  14.291  71.042  1.00  0.00    -0.357 C  
HETATM   41  O   UNL     1     -11.677  14.857  71.674  1.00  0.00    -0.349 OA 
HETATM   42  H   UNL     1     -11.605  15.774  71.439  1.00  0.00     0.000 HD 
ENDBRANCH  37  40
ENDBRANCH  36  37
ENDBRANCH   4  36
TORSDOF 12
ENDMDL
MODEL      138
REMARK 921   NORMALIZED FREE ENERGY PREDICTED BY IDOCK:   -1.41 KCAL/MOL
REMARK 922        TOTAL FREE ENERGY PREDICTED BY IDOCK:   -3.60 KCAL/MOL
REMARK 923 INTER-LIGAND FREE ENERGY PREDICTED BY IDOCK:   -5.31 KCAL/MOL
REMARK 924 INTRA-LIGAND FREE ENERGY PREDICTED BY IDOCK:    1.71 KCAL/MOL
REMARK 927      BINDING AFFINITY PREDICTED BY RF-SCORE:    0.00 PKD
ROOT
HETATM    1  C   UNL     1     -12.317  13.312  69.202  1.00  0.00    -0.016 C  
HETATM    2  C   UNL     1     -11.779  11.973  68.778  1.00  0.00    -0.321 C  
HETATM    3  O   UNL     1     -12.546  11.014  68.664  1.00  0.00    -0.304 OA 
HETATM    4  N   UNL     1     -10.405  11.875  68.543  1.00  0.00    -0.215 N  
ENDROOT
BRANCH   4   5
HETATM    5  C   UNL     1      -9.926  10.607  68.075  1.00  0.00    -0.160 A  
HETATM    6  C   UNL     1      -8.632   8.255  67.256  1.00  0.00    -0.124 A  
HETATM    7  C   UNL     1      -9.795   9.525  68.985  1.00  0.00    -0.176 A  
HETATM    8  C   UNL     1      -9.532  10.454  66.722  1.00  0.00    -0.166 A  
HETATM    9  I   UNL     1      -9.999  12.047  65.323  1.00  0.00    -0.173 I  
HETATM   10  I   UNL     1     -10.682   9.760  70.947  1.00  0.00    -0.016 I  
HETATM   11  C   UNL     1      -8.868   9.280  66.300  1.00  0.00    -0.172 A  
HETATM   12  I   UNL     1      -7.251   6.652  66.746  1.00  0.00    -0.080 I  
HETATM   13  C   UNL     1      -9.148   8.337  68.587  1.00  0.00    -0.140 A  
BRANCH  11  14
HETATM   14  C   UNL     1      -8.317   9.213  64.913  1.00  0.00    -0.162 C  
HETATM   15  O   UNL     1      -7.445   9.996  64.552  1.00  0.00    -0.137 OA 
HETATM   16  N   UNL     1      -8.834   8.243  64.083  1.00  0.00    -0.296 N  
HETATM   17  H   UNL     1      -9.543   7.603  64.442  1.00  0.00     0.000 HD 
BRANCH  16  18
HETATM   18  C   UNL     1      -8.385   8.115  62.697  1.00  0.00    -0.102 C  
BRANCH  18  19
HETATM   19  C   UNL     1      -7.366   6.983  62.529  1.00  0.00    -0.071 C  
HETATM   20  H   UNL     1      -5.868   6.252  63.571  1.00  0.00     0.000 HD 
HETATM   21  O   UNL     1      -6.500   6.953  63.674  1.00  0.00    -0.041 OA 
BRANCH  19  22
HETATM   22  C   UNL     1      -8.058   5.626  62.339  1.00  0.00    -0.099 C  
HETATM   23  O   UNL     1      -9.041   5.396  63.348  1.00  0.00    -0.344 OA 
HETATM   24  H   UNL     1      -9.469   4.556  63.230  1.00  0.00     0.000 HD 
ENDBRANCH  19  22
ENDBRANCH  18  19
ENDBRANCH  16  18
ENDBRANCH  11  14
BRANCH  13  25
HETATM   25  C   UNL     1      -9.050   7.140  69.486  1.00  0.00    -0.146 C  
HETATM   26  O   UNL     1      -9.838   6.212  69.340  1.00  0.00    -0.150 OA 
HETATM   27  H   UNL     1      -7.397   7.883  70.530  1.00  0.00     0.000 HD 
HETATM   28  N   UNL     1      -8.072   7.121  70.465  1.00  0.00    -0.112 N  
BRANCH  28  29
HETATM   29  C   UNL     1      -8.009   6.006  71.402  1.00  0.00    -0.113 C  
BRANCH  29  30
HETATM   30  C   UNL     1      -7.784   6.460  72.851  1.00  0.00    -0.102 C  
HETATM   31  H   UNL     1      -6.436   6.148  74.250  1.00  0.00     0.000 HD 
HETATM   32  O   UNL     1      -6.575   5.868  73.354  1.00  0.00    -0.071 OA 
BRANCH  30  33
HETATM   33  C   UNL     1      -7.699   7.992  72.945  1.00  0.00    -0.134 C  
HETATM   34  O   UNL     1      -8.124   8.462  74.223  1.00  0.00    -0.273 OA 
HETATM   35  H   UNL     1      -8.072   9.409  74.281  1.00  0.00     0.000 HD 
ENDBRANCH  30  33
ENDBRANCH  29  30
ENDBRANCH  28  29
ENDBRANCH  13  25
ENDBRANCH   4   5
BRANCH   4  36
HETATM   36  C   UNL     1      -9.427  12.989  68.693  1.00  0.00    -0.001 C  
BRANCH  36  37
HETATM   37  C   UNL     1      -9.934  14.426  68.398  1.00  0.00    -0.241 C  
HETATM   38  O   UNL     1      -9.878  15.282  69.549  1.00  0.00    -0.234 OA 
HETATM   39  H   UNL     1     -10.188  16.161  69.368  1.00  0.00     0.000 HD 
BRANCH  37  40
HETATM   40  C   UNL     1      -9.151  15.136  67.288  1.00  0.00    -0.198 C  
HETATM   41  O   UNL     1      -9.381  16.547  67.369  1.00  0.00    -0.219 OA 
HETATM   42  H   UNL     1      -8.896  16.986  66.681  1.00  0.00     0.000 HD 
ENDBRANCH  37  40
ENDBRANCH  36  37
ENDBRANCH   4  36
TORSDOF 12
ENDMDL
MODEL      139
REMARK 921   NORMALIZED FREE ENERGY PREDICTED BY IDOCK:   -1.33 KCAL/MOL
REMARK 922        TOTAL FREE ENERGY PREDICTED BY IDOCK:   -3.46 KCAL/MOL
REMARK 923 INTER-LIGAND FREE ENERGY PREDICTED BY IDOCK:   -3.50 KCAL/MOL
REMARK 924 INTRA-LIGAND FREE ENERGY PREDICTED BY IDOCK:    0.04 KCAL/MOL
REMARK 927      BINDING AFFINITY PREDICTED BY RF-SCORE:    0.00 PKD
ROOT
HETATM    1  C   UNL     1     -13.622   9.859  71.624  1.00  0.00    -0.340 C  
HETATM    2  C   UNL     1     -12.270  10.376  71.217  1.00  0.00    -0.389 C  
HETATM    3  O   UNL     1     -11.832  11.412  71.725  1.00  0.00     0.669 OA 
HETATM    4  N   UNL     1     -11.567   9.652  70.250  1.00  0.00    -0.233 N  
ENDROOT
BRANCH   4   5
HETATM    5  C   UNL     1     -10.253  10.126  69.928  1.00  0.00    -0.237 A  
HETATM    6  C   UNL     1      -7.672  10.769  69.029  1.00  0.00    -0.133 A  
HETATM    7  C   UNL     1     -10.087  11.099  68.906  1.00  0.00    -0.186 A  
HETATM    8  C   UNL     1      -9.122   9.584  70.588  1.00  0.00    -0.174 A  
HETATM    9  I   UNL     1      -9.445   8.307  72.312  1.00  0.00    -0.357 I  
HETATM   10  I   UNL     1     -11.871  12.073  68.158  1.00  0.00     0.085 I  
HETATM   11  C   UNL     1      -7.818   9.889  70.136  1.00  0.00    -0.186 A  
HETATM   12  I   UNL     1      -5.731  10.909  68.056  1.00  0.00    -0.041 I  
HETATM   13  C   UNL     1      -8.797  11.431  68.445  1.00  0.00    -0.167 A  
BRANCH  11  14
HETATM   14  C   UNL     1      -6.652   9.177  70.741  1.00  0.00    -0.074 C  
HETATM   15  O   UNL     1      -5.902   9.760  71.516  1.00  0.00    -0.171 OA 
HETATM   16  N   UNL     1      -6.473   7.859  70.386  1.00  0.00    -0.037 N  
HETATM   17  H   UNL     1      -7.140   7.415  69.754  1.00  0.00     0.000 HD 
BRANCH  16  18
HETATM   18  C   UNL     1      -5.344   7.083  70.899  1.00  0.00    -0.023 C  
BRANCH  18  19
HETATM   19  C   UNL     1      -5.702   5.605  71.082  1.00  0.00    -0.017 C  
HETATM   20  H   UNL     1      -6.709   4.536  72.388  1.00  0.00     0.000 HD 
HETATM   21  O   UNL     1      -6.486   5.452  72.275  1.00  0.00    -0.051 OA 
BRANCH  19  22
HETATM   22  C   UNL     1      -6.459   5.054  69.864  1.00  0.00    -0.035 C  
HETATM   23  O   UNL     1      -5.820   3.893  69.335  1.00  0.00    -0.020 OA 
HETATM   24  H   UNL     1      -6.288   3.553  68.581  1.00  0.00     0.000 HD 
ENDBRANCH  19  22
ENDBRANCH  18  19
ENDBRANCH  16  18
ENDBRANCH  11  14
BRANCH  13  25
HETATM   25  C   UNL     1      -8.565  12.504  67.421  1.00  0.00    -0.187 C  
HETATM   26  O   UNL     1      -8.356  12.187  66.255  1.00  0.00     0.020 OA 
HETATM   27  H   UNL     1      -8.811  14.062  68.793  1.00  0.00     0.000 HD 
HETATM   28  N   UNL     1      -8.584  13.826  67.827  1.00  0.00    -0.171 N  
BRANCH  28  29
HETATM   29  C   UNL     1      -8.280  14.881  66.867  1.00  0.00    -0.143 C  
BRANCH  29  30
HETATM   30  C   UNL     1      -9.502  15.747  66.529  1.00  0.00    -0.272 C  
HETATM   31  H   UNL     1      -9.842  17.400  65.517  1.00  0.00     0.000 HD 
HETATM   32  O   UNL     1      -9.087  16.864  65.726  1.00  0.00    -0.523 OA 
BRANCH  30  33
HETATM   33  C   UNL     1     -10.571  14.931  65.784  1.00  0.00    -0.331 C  
HETATM   34  O   UNL     1     -11.356  15.757  64.927  1.00  0.00    -0.350 OA 
HETATM   35  H   UNL     1     -12.017  15.254  64.466  1.00  0.00     0.000 HD 
ENDBRANCH  30  33
ENDBRANCH  29  30
ENDBRANCH  28  29
ENDBRANCH  13  25
ENDBRANCH   4   5
BRANCH   4  36
HETATM   36  C   UNL     1     -12.057   8.414  69.582  1.00  0.00     1.353 C  
BRANCH  36  37
HETATM   37  C   UNL     1     -10.998   7.348  69.191  1.00  0.00    -0.033 C  
HETATM   38  O   UNL     1     -11.578   6.063  68.923  1.00  0.00    -0.209 OA 
HETATM   39  H   UNL     1     -10.930   5.410  68.683  1.00  0.00     0.000 HD 
BRANCH  37  40
HETATM   40  C   UNL     1     -10.180   7.724  67.951  1.00  0.00    -0.206 C  
HETATM   41  O   UNL     1     -11.038   8.330  66.978  1.00  0.00    -0.332 OA 
HETATM   42  H   UNL     1     -10.531   8.563  66.209  1.00  0.00     0.000 HD 
ENDBRANCH  37  40
ENDBRANCH  36  37
ENDBRANCH   4  36
TORSDOF 12
ENDMDL
MODEL      140
REMARK 921   NORMALIZED FREE ENERGY PREDICTED BY IDOCK:   -1.32 KCAL/MOL
REMARK 922        TOTAL FREE ENERGY PREDICTED BY IDOCK:   -3.44 KCAL/MOL
REMARK 923 INTER-LIGAND FREE ENERGY PREDICTED BY IDOCK:   -4.72 KCAL/MOL
REMARK 924 INTRA-LIGAND FREE ENERGY PREDICTED BY IDOCK:    1.27 KCAL/MOL
REMARK 927      BINDING AFFINITY PREDICTED BY RF-SCORE:    0.00 PKD
ROOT
HETATM    1  C   UNL     1      -8.144  10.574  65.048  1.00  0.00    -0.096 C  
HETATM    2  C   UNL     1      -8.328  10.391  66.529  1.00  0.00    -0.130 C  
HETATM    3  O   UNL     1      -7.753  11.148  67.316  1.00  0.00    -0.118 OA 
HETATM    4  N   UNL     1      -9.149   9.342  66.954  1.00  0.00    -0.129 N  
ENDROOT
BRANCH   4   5
HETATM    5  C   UNL     1      -9.362   9.230  68.366  1.00  0.00    -0.138 A  
HETATM    6  C   UNL     1      -9.999   8.695  71.048  1.00  0.00    -0.215 A  
HETATM    7  C   UNL     1      -8.488   8.430  69.149  1.00  0.00    -0.123 A  
HETATM    8  C   UNL     1     -10.476   9.869  68.968  1.00  0.00    -0.210 A  
HETATM    9  I   UNL     1     -11.619  11.283  67.783  1.00  0.00     0.028 I  
HETATM   10  I   UNL     1      -6.666   7.732  68.209  1.00  0.00    -0.071 I  
HETATM   11  C   UNL     1     -10.815   9.597  70.312  1.00  0.00    -0.339 A  
HETATM   12  I   UNL     1     -10.734   7.937  72.951  1.00  0.00    -0.143 I  
HETATM   13  C   UNL     1      -8.795   8.154  70.497  1.00  0.00    -0.144 A  
BRANCH  11  14
HETATM   14  C   UNL     1     -12.085  10.153  70.871  1.00  0.00    -0.356 C  
HETATM   15  O   UNL     1     -13.093   9.458  70.932  1.00  0.00    -0.199 OA 
HETATM   16  N   UNL     1     -12.056  11.460  71.302  1.00  0.00    -0.190 N  
HETATM   17  H   UNL     1     -11.184  11.987  71.249  1.00  0.00     0.000 HD 
BRANCH  16  18
HETATM   18  C   UNL     1     -13.255  12.107  71.836  1.00  0.00    -0.369 C  
BRANCH  18  19
HETATM   19  C   UNL     1     -13.431  13.527  71.287  1.00  0.00    -0.083 C  
HETATM   20  H   UNL     1     -14.451  15.129  71.789  1.00  0.00     0.000 HD 
HETATM   21  O   UNL     1     -14.343  14.249  72.129  1.00  0.00    -0.511 OA 
BRANCH  19  22
HETATM   22  C   UNL     1     -12.086  14.263  71.190  1.00  0.00    -0.336 C  
HETATM   23  O   UNL     1     -11.552  14.200  69.868  1.00  0.00    -0.264 OA 
HETATM   24  H   UNL     1     -10.720  14.655  69.808  1.00  0.00     0.000 HD 
ENDBRANCH  19  22
ENDBRANCH  18  19
ENDBRANCH  16  18
ENDBRANCH  11  14
BRANCH  13  25
HETATM   25  C   UNL     1      -7.868   7.378  71.386  1.00  0.00    -0.095 C  
HETATM   26  O   UNL     1      -8.303   6.425  72.024  1.00  0.00    -0.109 OA 
HETATM   27  H   UNL     1      -6.197   8.531  70.887  1.00  0.00     0.000 HD 
HETATM   28  N   UNL     1      -6.543   7.767  71.467  1.00  0.00    -0.044 N  
BRANCH  28  29
HETATM   29  C   UNL     1      -5.642   7.079  72.386  1.00  0.00    -0.038 C  
BRANCH  29  30
HETATM   30  C   UNL     1      -5.142   5.737  71.834  1.00  0.00    -0.016 C  
HETATM   31  H   UNL     1      -5.334   3.838  72.312  1.00  0.00     0.000 HD 
HETATM   32  O   UNL     1      -5.644   4.668  72.653  1.00  0.00    -0.007 OA 
BRANCH  30  33
HETATM   33  C   UNL     1      -5.587   5.537  70.376  1.00  0.00    -0.009 C  
HETATM   34  O   UNL     1      -6.239   4.281  70.196  1.00  0.00    -0.024 OA 
HETATM   35  H   UNL     1      -6.514   4.157  69.296  1.00  0.00     0.000 HD 
ENDBRANCH  30  33
ENDBRANCH  29  30
ENDBRANCH  28  29
ENDBRANCH  13  25
ENDBRANCH   4   5
BRANCH   4  36
HETATM   36  C   UNL     1      -9.845   8.381  66.053  1.00  0.00    -0.012 C  
BRANCH  36  37
HETATM   37  C   UNL     1      -9.287   6.934  65.986  1.00  0.00     0.023 C  
HETATM   38  O   UNL     1     -10.302   5.938  66.180  1.00  0.00    -0.416 OA 
HETATM   39  H   UNL     1      -9.961   5.053  66.139  1.00  0.00     0.000 HD 
BRANCH  37  40
HETATM   40  C   UNL     1      -8.600   6.604  64.657  1.00  0.00     0.237 C  
HETATM   41  O   UNL     1      -7.568   5.636  64.880  1.00  0.00    -0.075 OA 
HETATM   42  H   UNL     1      -7.142   5.432  64.056  1.00  0.00     0.000 HD 
ENDBRANCH  37  40
ENDBRANCH  36  37
ENDBRANCH   4  36
TORSDOF 12
ENDMDL
MODEL      141
REMARK 921   NORMALIZED FREE ENERGY PREDICTED BY IDOCK:   -1.20 KCAL/MOL
REMARK 922        TOTAL FREE ENERGY PREDICTED BY IDOCK:   -3.24 KCAL/MOL
REMARK 923 INTER-LIGAND FREE ENERGY PREDICTED BY IDOCK:   -4.74 KCAL/MOL
REMARK 924 INTRA-LIGAND FREE ENERGY PREDICTED BY IDOCK:    1.50 KCAL/MOL
REMARK 927      BINDING AFFINITY PREDICTED BY RF-SCORE:    0.00 PKD
ROOT
HETATM    1  C   UNL     1      -6.647  16.584  70.200  1.00  0.00     0.342 C  
HETATM    2  C   UNL     1      -7.175  15.224  69.834  1.00  0.00    -0.080 C  
HETATM    3  O   UNL     1      -7.470  14.422  70.724  1.00  0.00     0.898 OA 
HETATM    4  N   UNL     1      -7.295  14.922  68.475  1.00  0.00    -0.113 N  
ENDROOT
BRANCH   4   5
HETATM    5  C   UNL     1      -7.863  13.647  68.151  1.00  0.00    -0.143 A  
HETATM    6  C   UNL     1      -8.841  11.212  67.155  1.00  0.00    -0.143 A  
HETATM    7  C   UNL     1      -7.067  12.475  68.257  1.00  0.00    -0.104 A  
HETATM    8  C   UNL     1      -9.195  13.565  67.674  1.00  0.00    -0.214 A  
HETATM    9  I   UNL     1     -10.443  15.337  67.783  1.00  0.00    -0.268 I  
HETATM   10  I   UNL     1      -5.156  12.655  69.259  1.00  0.00    -0.073 I  
HETATM   11  C   UNL     1      -9.695  12.348  67.156  1.00  0.00    -0.207 A  
HETATM   12  I   UNL     1      -9.425   9.470  65.987  1.00  0.00    -0.348 I  
HETATM   13  C   UNL     1      -7.547  11.245  67.761  1.00  0.00    -0.104 A  
BRANCH  11  14
HETATM   14  C   UNL     1     -11.041  12.330  66.509  1.00  0.00    -0.299 C  
HETATM   15  O   UNL     1     -12.044  12.080  67.168  1.00  0.00    -0.587 OA 
HETATM   16  N   UNL     1     -11.088  12.603  65.160  1.00  0.00    -0.287 N  
HETATM   17  H   UNL     1     -10.225  12.826  64.663  1.00  0.00     0.000 HD 
BRANCH  16  18
HETATM   18  C   UNL     1     -12.354  12.578  64.427  1.00  0.00    -0.455 C  
BRANCH  18  19
HETATM   19  C   UNL     1     -12.987  13.970  64.334  1.00  0.00     0.446 C  
HETATM   20  H   UNL     1     -14.162  15.076  65.455  1.00  0.00     0.000 HD 
HETATM   21  O   UNL     1     -13.770  14.213  65.513  1.00  0.00    -0.396 OA 
BRANCH  19  22
HETATM   22  C   UNL     1     -11.922  15.062  64.157  1.00  0.00    -0.201 C  
HETATM   23  O   UNL     1     -12.485  16.257  63.617  1.00  0.00    -0.756 OA 
HETATM   24  H   UNL     1     -11.826  16.933  63.507  1.00  0.00     0.000 HD 
ENDBRANCH  19  22
ENDBRANCH  18  19
ENDBRANCH  16  18
ENDBRANCH  11  14
BRANCH  13  25
HETATM   25  C   UNL     1      -6.777   9.966  67.915  1.00  0.00    -0.068 C  
HETATM   26  O   UNL     1      -5.793   9.768  67.210  1.00  0.00    -0.050 OA 
HETATM   27  H   UNL     1      -7.997   9.253  69.456  1.00  0.00     0.000 HD 
HETATM   28  N   UNL     1      -7.206   9.039  68.848  1.00  0.00    -0.072 N  
BRANCH  28  29
HETATM   29  C   UNL     1      -6.524   7.755  68.959  1.00  0.00    -0.037 C  
BRANCH  29  30
HETATM   30  C   UNL     1      -6.888   6.997  70.242  1.00  0.00    -0.057 C  
HETATM   31  H   UNL     1      -6.443   7.132  72.154  1.00  0.00     0.000 HD 
HETATM   32  O   UNL     1      -6.217   7.602  71.360  1.00  0.00    -0.035 OA 
BRANCH  30  33
HETATM   33  C   UNL     1      -8.409   7.001  70.475  1.00  0.00    -0.132 C  
HETATM   34  O   UNL     1      -8.822   5.878  71.251  1.00  0.00    -0.135 OA 
HETATM   35  H   UNL     1      -9.761   5.880  71.395  1.00  0.00     0.000 HD 
ENDBRANCH  30  33
ENDBRANCH  29  30
ENDBRANCH  28  29
ENDBRANCH  13  25
ENDBRANCH   4   5
BRANCH   4  36
HETATM   36  C   UNL     1      -6.928  15.838  67.358  1.00  0.00    -0.202 C  
BRANCH  36  37
HETATM   37  C   UNL     1      -7.922  16.980  67.017  1.00  0.00    -0.203 C  
HETATM   38  O   UNL     1      -8.207  17.822  68.144  1.00  0.00    -0.243 OA 
HETATM   39  H   UNL     1      -8.816  18.521  67.935  1.00  0.00     0.000 HD 
BRANCH  37  40
HETATM   40  C   UNL     1      -7.433  17.903  65.896  1.00  0.00    -0.177 C  
HETATM   41  O   UNL     1      -7.471  19.262  66.345  1.00  0.00    -0.235 OA 
HETATM   42  H   UNL     1      -7.168  19.834  65.650  1.00  0.00     0.000 HD 
ENDBRANCH  37  40
ENDBRANCH  36  37
ENDBRANCH   4  36
TORSDOF 12
ENDMDL
MODEL      142
REMARK 921   NORMALIZED FREE ENERGY PREDICTED BY IDOCK:   -1.17 KCAL/MOL
REMARK 922        TOTAL FREE ENERGY PREDICTED BY IDOCK:   -3.20 KCAL/MOL
REMARK 923 INTER-LIGAND FREE ENERGY PREDICTED BY IDOCK:   -3.51 KCAL/MOL
REMARK 924 INTRA-LIGAND FREE ENERGY PREDICTED BY IDOCK:    0.31 KCAL/MOL
REMARK 927      BINDING AFFINITY PREDICTED BY RF-SCORE:    0.00 PKD
ROOT
HETATM    1  C   UNL     1     -10.232   9.777  71.718  1.00  0.00     0.996 C  
HETATM    2  C   UNL     1      -9.644   8.637  70.932  1.00  0.00    -0.203 C  
HETATM    3  O   UNL     1      -8.428   8.434  70.964  1.00  0.00    -0.120 OA 
HETATM    4  N   UNL     1     -10.522   7.855  70.175  1.00  0.00    -0.226 N  
ENDROOT
BRANCH   4   5
HETATM    5  C   UNL     1      -9.948   6.735  69.488  1.00  0.00    -0.162 A  
HETATM    6  C   UNL     1      -8.482   4.667  68.283  1.00  0.00    -0.097 A  
HETATM    7  C   UNL     1      -9.787   5.500  70.170  1.00  0.00    -0.198 A  
HETATM    8  C   UNL     1      -9.493   6.879  68.153  1.00  0.00    -0.122 A  
HETATM    9  I   UNL     1     -10.000   8.695  67.079  1.00  0.00    -0.376 I  
HETATM   10  I   UNL     1     -10.763   5.287  72.091  1.00  0.00    -0.152 I  
HETATM   11  C   UNL     1      -8.741   5.851  67.541  1.00  0.00    -0.104 A  
HETATM   12  I   UNL     1      -6.986   3.275  67.535  1.00  0.00    -0.051 I  
HETATM   13  C   UNL     1      -9.053   4.453  69.576  1.00  0.00    -0.175 A  
BRANCH  11  14
HETATM   14  C   UNL     1      -8.133   6.094  66.197  1.00  0.00    -0.115 C  
HETATM   15  O   UNL     1      -7.152   6.821  66.082  1.00  0.00    -0.063 OA 
HETATM   16  N   UNL     1      -8.726   5.470  65.123  1.00  0.00    -0.228 N  
HETATM   17  H   UNL     1      -9.527   4.858  65.278  1.00  0.00     0.000 HD 
BRANCH  16  18
HETATM   18  C   UNL     1      -8.226   5.668  63.762  1.00  0.00    -0.091 C  
BRANCH  18  19
HETATM   19  C   UNL     1      -7.881   4.340  63.081  1.00  0.00    -0.071 C  
HETATM   20  H   UNL     1      -6.410   3.040  63.160  1.00  0.00     0.000 HD 
HETATM   21  O   UNL     1      -6.623   3.864  63.583  1.00  0.00    -0.036 OA 
BRANCH  19  22
HETATM   22  C   UNL     1      -8.983   3.293  63.300  1.00  0.00    -0.092 C  
HETATM   23  O   UNL     1      -8.437   2.042  63.718  1.00  0.00    -0.080 OA 
HETATM   24  H   UNL     1      -9.119   1.394  63.853  1.00  0.00     0.000 HD 
ENDBRANCH  19  22
ENDBRANCH  18  19
ENDBRANCH  16  18
ENDBRANCH  11  14
BRANCH  13  25
HETATM   25  C   UNL     1      -8.917   3.105  70.222  1.00  0.00    -0.097 C  
HETATM   26  O   UNL     1      -9.523   2.148  69.751  1.00  0.00    -0.113 OA 
HETATM   27  H   UNL     1      -7.582   3.783  71.681  1.00  0.00     0.000 HD 
HETATM   28  N   UNL     1      -8.114   2.982  71.342  1.00  0.00    -0.058 N  
BRANCH  28  29
HETATM   29  C   UNL     1      -8.032   1.701  72.035  1.00  0.00    -0.045 C  
BRANCH  29  30
HETATM   30  C   UNL     1      -8.812   1.689  73.356  1.00  0.00    -0.061 C  
HETATM   31  H   UNL     1      -9.088   2.926  74.861  1.00  0.00     0.000 HD 
HETATM   32  O   UNL     1      -8.605   2.934  74.044  1.00  0.00    -0.072 OA 
BRANCH  30  33
HETATM   33  C   UNL     1     -10.315   1.467  73.110  1.00  0.00    -0.106 C  
HETATM   34  O   UNL     1     -11.091   1.851  74.243  1.00  0.00    -0.135 OA 
HETATM   35  H   UNL     1     -12.019   1.714  74.092  1.00  0.00     0.000 HD 
ENDBRANCH  30  33
ENDBRANCH  29  30
ENDBRANCH  28  29
ENDBRANCH  13  25
ENDBRANCH   4   5
BRANCH   4  36
HETATM   36  C   UNL     1     -11.992   8.071  70.074  1.00  0.00     0.552 C  
BRANCH  36  37
HETATM   37  C   UNL     1     -12.643   9.038  71.099  1.00  0.00    -0.211 C  
HETATM   38  O   UNL     1     -13.053  10.279  70.506  1.00  0.00    -0.542 OA 
HETATM   39  H   UNL     1     -13.451  10.872  71.133  1.00  0.00     0.000 HD 
BRANCH  37  40
HETATM   40  C   UNL     1     -13.879   8.456  71.791  1.00  0.00    -0.408 C  
HETATM   41  O   UNL     1     -14.189   7.179  71.222  1.00  0.00    -0.452 OA 
HETATM   42  H   UNL     1     -14.956   6.819  71.651  1.00  0.00     0.000 HD 
ENDBRANCH  37  40
ENDBRANCH  36  37
ENDBRANCH   4  36
TORSDOF 12
ENDMDL
MODEL      143
REMARK 921   NORMALIZED FREE ENERGY PREDICTED BY IDOCK:   -1.12 KCAL/MOL
REMARK 922        TOTAL FREE ENERGY PREDICTED BY IDOCK:   -3.10 KCAL/MOL
REMARK 923 INTER-LIGAND FREE ENERGY PREDICTED BY IDOCK:   -4.29 KCAL/MOL
REMARK 924 INTRA-LIGAND FREE ENERGY PREDICTED BY IDOCK:    1.19 KCAL/MOL
REMARK 927      BINDING AFFINITY PREDICTED BY RF-SCORE:    0.00 PKD
ROOT
HETATM    1  C   UNL     1     -11.432   6.795  67.060  1.00  0.00     0.334 C  
HETATM    2  C   UNL     1     -10.149   6.988  67.821  1.00  0.00    -0.165 C  
HETATM    3  O   UNL     1      -9.086   6.584  67.342  1.00  0.00    -0.114 OA 
HETATM    4  N   UNL     1     -10.226   7.616  69.068  1.00  0.00    -0.202 N  
ENDROOT
BRANCH   4   5
HETATM    5  C   UNL     1      -8.984   7.849  69.743  1.00  0.00    -0.146 A  
HETATM    6  C   UNL     1      -6.761   8.511  71.325  1.00  0.00    -0.066 A  
HETATM    7  C   UNL     1      -8.564   6.961  70.769  1.00  0.00    -0.144 A  
HETATM    8  C   UNL     1      -8.208   8.992  69.426  1.00  0.00    -0.117 A  
HETATM    9  I   UNL     1      -8.756  10.162  67.681  1.00  0.00    -0.125 I  
HETATM   10  I   UNL     1      -9.654   5.103  70.988  1.00  0.00    -0.271 I  
HETATM   11  C   UNL     1      -7.095   9.344  70.223  1.00  0.00    -0.097 A  
HETATM   12  I   UNL     1      -5.344   9.252  72.801  1.00  0.00     0.066 I  
HETATM   13  C   UNL     1      -7.449   7.281  71.571  1.00  0.00    -0.082 A  
BRANCH  11  14
HETATM   14  C   UNL     1      -6.396  10.640  69.968  1.00  0.00    -0.126 C  
HETATM   15  O   UNL     1      -5.183  10.731  70.119  1.00  0.00    -0.045 OA 
HETATM   16  N   UNL     1      -7.176  11.700  69.564  1.00  0.00    -0.345 N  
HETATM   17  H   UNL     1      -8.179  11.564  69.433  1.00  0.00     0.000 HD 
BRANCH  16  18
HETATM   18  C   UNL     1      -6.592  13.019  69.320  1.00  0.00    -0.089 C  
BRANCH  18  19
HETATM   19  C   UNL     1      -6.332  13.261  67.830  1.00  0.00    -0.159 C  
HETATM   20  H   UNL     1      -5.526  14.684  66.739  1.00  0.00     0.000 HD 
HETATM   21  O   UNL     1      -5.688  14.534  67.663  1.00  0.00    -0.303 OA 
BRANCH  19  22
HETATM   22  C   UNL     1      -5.480  12.139  67.218  1.00  0.00    -0.124 C  
HETATM   23  O   UNL     1      -6.091  11.601  66.046  1.00  0.00    -0.473 OA 
HETATM   24  H   UNL     1      -5.563  10.907  65.668  1.00  0.00     0.000 HD 
ENDBRANCH  19  22
ENDBRANCH  18  19
ENDBRANCH  16  18
ENDBRANCH  11  14
BRANCH  13  25
HETATM   25  C   UNL     1      -6.921   6.344  72.618  1.00  0.00    -0.074 C  
HETATM   26  O   UNL     1      -7.228   6.519  73.792  1.00  0.00    -0.085 OA 
HETATM   27  H   UNL     1      -5.894   5.156  71.236  1.00  0.00     0.000 HD 
HETATM   28  N   UNL     1      -6.092   5.308  72.226  1.00  0.00    -0.029 N  
BRANCH  28  29
HETATM   29  C   UNL     1      -5.501   4.434  73.233  1.00  0.00    -0.008 C  
BRANCH  29  30
HETATM   30  C   UNL     1      -5.384   2.979  72.762  1.00  0.00     0.000 C  
HETATM   31  H   UNL     1      -5.061   1.229  73.603  1.00  0.00     0.000 HD 
HETATM   32  O   UNL     1      -5.134   2.130  73.894  1.00  0.00     0.000 OA 
BRANCH  30  33
HETATM   33  C   UNL     1      -6.663   2.526  72.038  1.00  0.00    -0.015 C  
HETATM   34  O   UNL     1      -7.642   2.045  72.957  1.00  0.00    -0.038 OA 
HETATM   35  H   UNL     1      -8.432   1.765  72.510  1.00  0.00     0.000 HD 
ENDBRANCH  30  33
ENDBRANCH  29  30
ENDBRANCH  28  29
ENDBRANCH  13  25
ENDBRANCH   4   5
BRANCH   4  36
HETATM   36  C   UNL     1     -11.482   8.098  69.708  1.00  0.00     0.260 C  
BRANCH  36  37
HETATM   37  C   UNL     1     -11.346   9.145  70.845  1.00  0.00    -0.295 C  
HETATM   38  O   UNL     1     -11.320  10.494  70.356  1.00  0.00    -0.303 OA 
HETATM   39  H   UNL     1     -11.237  11.135  71.053  1.00  0.00     0.000 HD 
BRANCH  37  40
HETATM   40  C   UNL     1     -12.476   9.077  71.878  1.00  0.00    -0.384 C  
HETATM   41  O   UNL     1     -13.650   8.532  71.267  1.00  0.00    -0.529 OA 
HETATM   42  H   UNL     1     -14.351   8.490  71.907  1.00  0.00     0.000 HD 
ENDBRANCH  37  40
ENDBRANCH  36  37
ENDBRANCH   4  36
TORSDOF 12
ENDMDL
MODEL      144
REMARK 921   NORMALIZED FREE ENERGY PREDICTED BY IDOCK:   -1.08 KCAL/MOL
REMARK 922        TOTAL FREE ENERGY PREDICTED BY IDOCK:   -3.03 KCAL/MOL
REMARK 923 INTER-LIGAND FREE ENERGY PREDICTED BY IDOCK:   -6.34 KCAL/MOL
REMARK 924 INTRA-LIGAND FREE ENERGY PREDICTED BY IDOCK:    3.31 KCAL/MOL
REMARK 927      BINDING AFFINITY PREDICTED BY RF-SCORE:    0.00 PKD
ROOT
HETATM    1  C   UNL     1     -12.891  12.292  64.484  1.00  0.00    -0.228 C  
HETATM    2  C   UNL     1     -11.910  12.513  65.603  1.00  0.00    -0.438 C  
HETATM    3  O   UNL     1     -12.305  12.515  66.772  1.00  0.00    -0.457 OA 
HETATM    4  N   UNL     1     -10.573  12.724  65.256  1.00  0.00    -0.284 N  
ENDROOT
BRANCH   4   5
HETATM    5  C   UNL     1      -9.646  12.864  66.340  1.00  0.00    -0.252 A  
HETATM    6  C   UNL     1      -7.554  13.049  68.203  1.00  0.00    -0.136 A  
HETATM    7  C   UNL     1      -9.031  14.121  66.582  1.00  0.00    -0.169 A  
HETATM    8  C   UNL     1      -9.305  11.738  67.131  1.00  0.00    -0.177 A  
HETATM    9  I   UNL     1     -10.463   9.918  66.892  1.00  0.00    -0.156 I  
HETATM   10  I   UNL     1      -9.818  15.837  65.521  1.00  0.00     0.057 I  
HETATM   11  C   UNL     1      -8.244  11.814  68.062  1.00  0.00    -0.152 A  
HETATM   12  I   UNL     1      -5.671  13.072  69.293  1.00  0.00    -0.105 I  
HETATM   13  C   UNL     1      -7.979  14.228  67.515  1.00  0.00    -0.203 A  
BRANCH  11  14
HETATM   14  C   UNL     1      -7.797  10.571  68.761  1.00  0.00    -0.116 C  
HETATM   15  O   UNL     1      -6.983  10.632  69.676  1.00  0.00    -0.105 OA 
HETATM   16  N   UNL     1      -8.339   9.383  68.327  1.00  0.00    -0.118 N  
HETATM   17  H   UNL     1      -9.030   9.391  67.576  1.00  0.00     0.000 HD 
BRANCH  16  18
HETATM   18  C   UNL     1      -7.943   8.107  68.925  1.00  0.00    -0.114 C  
BRANCH  18  19
HETATM   19  C   UNL     1      -6.804   7.441  68.147  1.00  0.00    -0.063 C  
HETATM   20  H   UNL     1      -4.878   7.155  68.412  1.00  0.00     0.000 HD 
HETATM   21  O   UNL     1      -5.584   7.568  68.894  1.00  0.00    -0.021 OA 
BRANCH  19  22
HETATM   22  C   UNL     1      -7.109   5.964  67.857  1.00  0.00    -0.071 C  
HETATM   23  O   UNL     1      -8.461   5.639  68.176  1.00  0.00    -0.100 OA 
HETATM   24  H   UNL     1      -8.650   4.725  67.997  1.00  0.00     0.000 HD 
ENDBRANCH  19  22
ENDBRANCH  18  19
ENDBRANCH  16  18
ENDBRANCH  11  14
BRANCH  13  25
HETATM   25  C   UNL     1      -7.346  15.545  67.859  1.00  0.00    -0.140 C  
HETATM   26  O   UNL     1      -6.309  15.879  67.297  1.00  0.00    -0.212 OA 
HETATM   27  H   UNL     1      -8.841  16.064  69.227  1.00  0.00     0.000 HD 
HETATM   28  N   UNL     1      -7.951  16.344  68.813  1.00  0.00    -0.220 N  
BRANCH  28  29
HETATM   29  C   UNL     1      -7.312  17.589  69.223  1.00  0.00    -0.043 C  
BRANCH  29  30
HETATM   30  C   UNL     1      -8.005  18.831  68.645  1.00  0.00    -0.336 C  
HETATM   31  H   UNL     1      -7.730  20.032  67.112  1.00  0.00     0.000 HD 
HETATM   32  O   UNL     1      -7.301  19.264  67.469  1.00  0.00    -0.227 OA 
BRANCH  30  33
HETATM   33  C   UNL     1      -9.475  18.537  68.302  1.00  0.00    -0.335 C  
HETATM   34  O   UNL     1     -10.340  19.559  68.791  1.00  0.00    -0.534 OA 
HETATM   35  H   UNL     1     -11.248  19.378  68.579  1.00  0.00     0.000 HD 
ENDBRANCH  30  33
ENDBRANCH  29  30
ENDBRANCH  28  29
ENDBRANCH  13  25
ENDBRANCH   4   5
BRANCH   4  36
HETATM   36  C   UNL     1     -10.044  12.761  63.863  1.00  0.00    -0.128 C  
BRANCH  36  37
HETATM   37  C   UNL     1      -9.177  11.561  63.398  1.00  0.00    -0.081 C  
HETATM   38  O   UNL     1      -8.314  11.066  64.432  1.00  0.00    -0.372 OA 
HETATM   39  H   UNL     1      -7.783  10.331  64.147  1.00  0.00     0.000 HD 
BRANCH  37  40
HETATM   40  C   UNL     1     -10.000  10.365  62.907  1.00  0.00     0.043 C  
HETATM   41  O   UNL     1      -9.505   9.165  63.511  1.00  0.00    -0.347 OA 
HETATM   42  H   UNL     1     -10.015   8.424  63.206  1.00  0.00     0.000 HD 
ENDBRANCH  37  40
ENDBRANCH  36  37
ENDBRANCH   4  36
TORSDOF 12
ENDMDL
MODEL      145
REMARK 921   NORMALIZED FREE ENERGY PREDICTED BY IDOCK:   -1.03 KCAL/MOL
REMARK 922        TOTAL FREE ENERGY PREDICTED BY IDOCK:   -2.96 KCAL/MOL
REMARK 923 INTER-LIGAND FREE ENERGY PREDICTED BY IDOCK:   -5.48 KCAL/MOL
REMARK 924 INTRA-LIGAND FREE ENERGY PREDICTED BY IDOCK:    2.52 KCAL/MOL
REMARK 927      BINDING AFFINITY PREDICTED BY RF-SCORE:    0.00 PKD
ROOT
HETATM    1  C   UNL     1      -8.148   7.205  64.401  1.00  0.00    -0.056 C  
HETATM    2  C   UNL     1      -8.716   7.384  65.782  1.00  0.00    -0.109 C  
HETATM    3  O   UNL     1      -9.820   6.907  66.058  1.00  0.00     0.086 OA 
HETATM    4  N   UNL     1      -7.956   8.111  66.703  1.00  0.00    -0.101 N  
ENDROOT
BRANCH   4   5
HETATM    5  C   UNL     1      -8.486   8.212  68.031  1.00  0.00    -0.133 A  
HETATM    6  C   UNL     1      -9.821   8.190  70.500  1.00  0.00    -0.186 A  
HETATM    7  C   UNL     1      -8.162   7.220  68.995  1.00  0.00    -0.125 A  
HETATM    8  C   UNL     1      -9.374   9.267  68.362  1.00  0.00    -0.138 A  
HETATM    9  I   UNL     1      -9.623  10.891  66.944  1.00  0.00    -0.231 I  
HETATM   10  I   UNL     1      -6.587   5.821  68.494  1.00  0.00    -0.057 I  
HETATM   11  C   UNL     1     -10.063   9.259  69.596  1.00  0.00    -0.208 A  
HETATM   12  I   UNL     1     -11.167   7.927  72.189  1.00  0.00    -0.465 I  
HETATM   13  C   UNL     1      -8.825   7.197  70.239  1.00  0.00    -0.148 A  
BRANCH  11  14
HETATM   14  C   UNL     1     -11.114  10.290  69.850  1.00  0.00    -0.304 C  
HETATM   15  O   UNL     1     -11.967  10.107  70.712  1.00  0.00    -0.297 OA 
HETATM   16  N   UNL     1     -11.070  11.429  69.078  1.00  0.00    -0.225 N  
HETATM   17  H   UNL     1     -10.325  11.540  68.390  1.00  0.00     0.000 HD 
BRANCH  16  18
HETATM   18  C   UNL     1     -12.072  12.484  69.228  1.00  0.00    -0.161 C  
BRANCH  18  19
HETATM   19  C   UNL     1     -11.432  13.842  69.533  1.00  0.00    -0.267 C  
HETATM   20  H   UNL     1     -11.371  15.610  68.678  1.00  0.00     0.000 HD 
HETATM   21  O   UNL     1     -11.768  14.768  68.489  1.00  0.00    -0.306 OA 
BRANCH  19  22
HETATM   22  C   UNL     1     -11.881  14.381  70.899  1.00  0.00    -0.283 C  
HETATM   23  O   UNL     1     -12.230  15.763  70.825  1.00  0.00    -0.391 OA 
HETATM   24  H   UNL     1     -12.508  16.096  71.670  1.00  0.00     0.000 HD 
ENDBRANCH  19  22
ENDBRANCH  18  19
ENDBRANCH  16  18
ENDBRANCH  11  14
BRANCH  13  25
HETATM   25  C   UNL     1      -8.467   6.217  71.317  1.00  0.00    -0.125 C  
HETATM   26  O   UNL     1      -7.777   6.586  72.261  1.00  0.00    -0.096 OA 
HETATM   27  H   UNL     1      -9.537   4.648  70.441  1.00  0.00     0.000 HD 
HETATM   28  N   UNL     1      -8.923   4.915  71.210  1.00  0.00    -0.131 N  
BRANCH  28  29
HETATM   29  C   UNL     1      -8.520   3.924  72.202  1.00  0.00    -0.099 C  
BRANCH  29  30
HETATM   30  C   UNL     1      -9.665   3.529  73.145  1.00  0.00    -0.117 C  
HETATM   31  H   UNL     1      -9.957   2.177  74.544  1.00  0.00     0.000 HD 
HETATM   32  O   UNL     1      -9.249   2.421  73.961  1.00  0.00    -0.076 OA 
BRANCH  30  33
HETATM   33  C   UNL     1     -10.083   4.711  74.036  1.00  0.00    -0.186 C  
HETATM   34  O   UNL     1     -11.487   4.705  74.288  1.00  0.00    -0.116 OA 
HETATM   35  H   UNL     1     -11.745   5.435  74.838  1.00  0.00     0.000 HD 
ENDBRANCH  30  33
ENDBRANCH  29  30
ENDBRANCH  28  29
ENDBRANCH  13  25
ENDBRANCH   4   5
BRANCH   4  36
HETATM   36  C   UNL     1      -6.632   8.734  66.419  1.00  0.00    -0.063 C  
BRANCH  36  37
HETATM   37  C   UNL     1      -6.623  10.227  65.993  1.00  0.00    -0.109 C  
HETATM   38  O   UNL     1      -5.966  11.072  66.948  1.00  0.00    -0.066 OA 
HETATM   39  H   UNL     1      -5.961  11.986  66.687  1.00  0.00     0.000 HD 
BRANCH  37  40
HETATM   40  C   UNL     1      -5.936  10.474  64.646  1.00  0.00    -0.062 C  
HETATM   41  O   UNL     1      -6.843  10.165  63.582  1.00  0.00    -0.130 OA 
HETATM   42  H   UNL     1      -6.417  10.318  62.748  1.00  0.00     0.000 HD 
ENDBRANCH  37  40
ENDBRANCH  36  37
ENDBRANCH   4  36
TORSDOF 12
ENDMDL
MODEL      146
REMARK 921   NORMALIZED FREE ENERGY PREDICTED BY IDOCK:   -1.00 KCAL/MOL
REMARK 922        TOTAL FREE ENERGY PREDICTED BY IDOCK:   -2.90 KCAL/MOL
REMARK 923 INTER-LIGAND FREE ENERGY PREDICTED BY IDOCK:   -4.33 KCAL/MOL
REMARK 924 INTRA-LIGAND FREE ENERGY PREDICTED BY IDOCK:    1.43 KCAL/MOL
REMARK 927      BINDING AFFINITY PREDICTED BY RF-SCORE:    0.00 PKD
ROOT
HETATM    1  C   UNL     1     -11.238   5.711  66.252  1.00  0.00     0.336 C  
HETATM    2  C   UNL     1      -9.952   5.875  67.014  1.00  0.00    -0.166 C  
HETATM    3  O   UNL     1      -8.874   5.711  66.437  1.00  0.00    -0.121 OA 
HETATM    4  N   UNL     1     -10.042   6.197  68.371  1.00  0.00    -0.146 N  
ENDROOT
BRANCH   4   5
HETATM    5  C   UNL     1      -8.804   6.413  69.059  1.00  0.00    -0.129 A  
HETATM    6  C   UNL     1      -6.599   6.925  70.720  1.00  0.00    -0.052 A  
HETATM    7  C   UNL     1      -8.196   5.343  69.768  1.00  0.00    -0.100 A  
HETATM    8  C   UNL     1      -8.221   7.706  69.078  1.00  0.00    -0.127 A  
HETATM    9  I   UNL     1      -9.042   9.230  67.771  1.00  0.00    -0.142 I  
HETATM   10  I   UNL     1      -8.995   3.356  69.449  1.00  0.00    -0.226 I  
HETATM   11  C   UNL     1      -7.119   7.979  69.921  1.00  0.00    -0.057 A  
HETATM   12  I   UNL     1      -5.208   7.417  72.319  1.00  0.00    -0.036 I  
HETATM   13  C   UNL     1      -7.088   5.586  70.605  1.00  0.00    -0.062 A  
BRANCH  11  14
HETATM   14  C   UNL     1      -6.629   9.385  70.047  1.00  0.00    -0.059 C  
HETATM   15  O   UNL     1      -6.936  10.065  71.020  1.00  0.00    -0.339 OA 
HETATM   16  N   UNL     1      -5.833   9.861  69.030  1.00  0.00    -0.035 N  
HETATM   17  H   UNL     1      -5.590   9.246  68.253  1.00  0.00     0.000 HD 
BRANCH  16  18
HETATM   18  C   UNL     1      -5.328  11.235  69.044  1.00  0.00    -0.040 C  
BRANCH  18  19
HETATM   19  C   UNL     1      -6.448  12.257  68.820  1.00  0.00    -0.082 C  
HETATM   20  H   UNL     1      -6.959  13.995  69.580  1.00  0.00     0.000 HD 
HETATM   21  O   UNL     1      -6.265  13.362  69.719  1.00  0.00    -0.121 OA 
BRANCH  19  22
HETATM   22  C   UNL     1      -6.482  12.744  67.364  1.00  0.00    -0.137 C  
HETATM   23  O   UNL     1      -7.814  12.763  66.852  1.00  0.00    -0.383 OA 
HETATM   24  H   UNL     1      -7.835  13.064  65.952  1.00  0.00     0.000 HD 
ENDBRANCH  19  22
ENDBRANCH  18  19
ENDBRANCH  16  18
ENDBRANCH  11  14
BRANCH  13  25
HETATM   25  C   UNL     1      -6.365   4.479  71.316  1.00  0.00    -0.019 C  
HETATM   26  O   UNL     1      -5.183   4.623  71.608  1.00  0.00    -0.003 OA 
HETATM   27  H   UNL     1      -8.051   3.245  71.404  1.00  0.00     0.000 HD 
HETATM   28  N   UNL     1      -7.055   3.318  71.614  1.00  0.00    -0.031 N  
BRANCH  28  29
HETATM   29  C   UNL     1      -6.353   2.198  72.230  1.00  0.00    -0.014 C  
BRANCH  29  30
HETATM   30  C   UNL     1      -6.863   1.882  73.643  1.00  0.00    -0.022 C  
HETATM   31  H   UNL     1      -6.069   1.662  75.430  1.00  0.00     0.000 HD 
HETATM   32  O   UNL     1      -5.753   1.858  74.556  1.00  0.00     0.000 OA 
BRANCH  30  33
HETATM   33  C   UNL     1      -7.901   2.919  74.103  1.00  0.00    -0.064 C  
HETATM   34  O   UNL     1      -7.284   4.158  74.449  1.00  0.00    -0.067 OA 
HETATM   35  H   UNL     1      -7.925   4.799  74.733  1.00  0.00     0.000 HD 
ENDBRANCH  30  33
ENDBRANCH  29  30
ENDBRANCH  28  29
ENDBRANCH  13  25
ENDBRANCH   4   5
BRANCH   4  36
HETATM   36  C   UNL     1     -11.314   6.378  69.126  1.00  0.00    -0.296 C  
BRANCH  36  37
HETATM   37  C   UNL     1     -11.247   7.183  70.451  1.00  0.00    -0.287 C  
HETATM   38  O   UNL     1     -12.251   8.205  70.530  1.00  0.00    -0.491 OA 
HETATM   39  H   UNL     1     -12.211   8.698  71.341  1.00  0.00     0.000 HD 
BRANCH  37  40
HETATM   40  C   UNL     1     -11.410   6.315  71.704  1.00  0.00    -0.294 C  
HETATM   41  O   UNL     1     -12.566   6.741  72.433  1.00  0.00    -0.519 OA 
HETATM   42  H   UNL     1     -12.666   6.203  73.210  1.00  0.00     0.000 HD 
ENDBRANCH  37  40
ENDBRANCH  36  37
ENDBRANCH   4  36
TORSDOF 12
ENDMDL
MODEL      147
REMARK 921   NORMALIZED FREE ENERGY PREDICTED BY IDOCK:   -0.99 KCAL/MOL
REMARK 922        TOTAL FREE ENERGY PREDICTED BY IDOCK:   -2.88 KCAL/MOL
REMARK 923 INTER-LIGAND FREE ENERGY PREDICTED BY IDOCK:   -4.74 KCAL/MOL
REMARK 924 INTRA-LIGAND FREE ENERGY PREDICTED BY IDOCK:    1.86 KCAL/MOL
REMARK 927      BINDING AFFINITY PREDICTED BY RF-SCORE:    0.00 PKD
ROOT
HETATM    1  C   UNL     1     -10.560   6.377  72.679  1.00  0.00    -0.250 C  
HETATM    2  C   UNL     1     -10.037   6.535  71.278  1.00  0.00    -0.186 C  
HETATM    3  O   UNL     1     -10.374   5.732  70.405  1.00  0.00    -0.208 OA 
HETATM    4  N   UNL     1      -9.163   7.597  71.032  1.00  0.00    -0.148 N  
ENDROOT
BRANCH   4   5
HETATM    5  C   UNL     1      -8.732   7.767  69.676  1.00  0.00    -0.135 A  
HETATM    6  C   UNL     1      -8.174   7.852  66.926  1.00  0.00    -0.116 A  
HETATM    7  C   UNL     1      -9.321   8.778  68.871  1.00  0.00    -0.145 A  
HETATM    8  C   UNL     1      -7.761   6.892  69.126  1.00  0.00    -0.106 A  
HETATM    9  I   UNL     1      -6.707   5.546  70.463  1.00  0.00    -0.051 I  
HETATM   10  I   UNL     1     -10.573  10.240  69.864  1.00  0.00    -0.201 I  
HETATM   11  C   UNL     1      -7.482   6.915  67.741  1.00  0.00    -0.098 A  
HETATM   12  I   UNL     1      -8.085   7.619  64.764  1.00  0.00     0.025 I  
HETATM   13  C   UNL     1      -9.049   8.832  67.488  1.00  0.00    -0.146 A  
BRANCH  11  14
HETATM   14  C   UNL     1      -6.580   5.874  67.161  1.00  0.00    -0.056 C  
HETATM   15  O   UNL     1      -5.369   5.928  67.348  1.00  0.00    -0.004 OA 
HETATM   16  N   UNL     1      -7.174   4.876  66.423  1.00  0.00    -0.075 N  
HETATM   17  H   UNL     1      -8.189   4.866  66.317  1.00  0.00     0.000 HD 
BRANCH  16  18
HETATM   18  C   UNL     1      -6.376   3.827  65.787  1.00  0.00    -0.032 C  
BRANCH  18  19
HETATM   19  C   UNL     1      -7.244   2.863  64.972  1.00  0.00    -0.066 C  
HETATM   20  H   UNL     1      -8.459   2.998  63.433  1.00  0.00     0.000 HD 
HETATM   21  O   UNL     1      -7.921   3.596  63.939  1.00  0.00    -0.083 OA 
BRANCH  19  22
HETATM   22  C   UNL     1      -6.407   1.726  64.369  1.00  0.00    -0.018 C  
HETATM   23  O   UNL     1      -5.549   2.203  63.332  1.00  0.00    -0.008 OA 
HETATM   24  H   UNL     1      -5.032   1.499  62.959  1.00  0.00     0.000 HD 
ENDBRANCH  19  22
ENDBRANCH  18  19
ENDBRANCH  16  18
ENDBRANCH  11  14
BRANCH  13  25
HETATM   25  C   UNL     1      -9.588   9.924  66.610  1.00  0.00    -0.184 C  
HETATM   26  O   UNL     1     -10.253   9.628  65.623  1.00  0.00    -0.253 OA 
HETATM   27  H   UNL     1      -8.797  11.457  67.791  1.00  0.00     0.000 HD 
HETATM   28  N   UNL     1      -9.309  11.239  66.936  1.00  0.00    -0.175 N  
BRANCH  28  29
HETATM   29  C   UNL     1      -9.752  12.312  66.053  1.00  0.00    -0.242 C  
BRANCH  29  30
HETATM   30  C   UNL     1      -9.532  13.706  66.656  1.00  0.00    -0.277 C  
HETATM   31  H   UNL     1     -10.625  15.312  66.973  1.00  0.00     0.000 HD 
HETATM   32  O   UNL     1     -10.761  14.449  66.600  1.00  0.00    -0.286 OA 
BRANCH  30  33
HETATM   33  C   UNL     1      -9.041  13.610  68.111  1.00  0.00    -0.195 C  
HETATM   34  O   UNL     1     -10.075  13.946  69.035  1.00  0.00    -0.402 OA 
HETATM   35  H   UNL     1      -9.772  13.886  69.933  1.00  0.00     0.000 HD 
ENDBRANCH  30  33
ENDBRANCH  29  30
ENDBRANCH  28  29
ENDBRANCH  13  25
ENDBRANCH   4   5
BRANCH   4  36
HETATM   36  C   UNL     1      -8.699   8.579  72.051  1.00  0.00    -0.196 C  
BRANCH  36  37
HETATM   37  C   UNL     1      -7.483   8.176  72.927  1.00  0.00    -0.125 C  
HETATM   38  O   UNL     1      -7.288   6.755  72.985  1.00  0.00    -0.079 OA 
HETATM   39  H   UNL     1      -6.544   6.508  73.522  1.00  0.00     0.000 HD 
BRANCH  37  40
HETATM   40  C   UNL     1      -6.157   8.779  72.449  1.00  0.00    -0.066 C  
HETATM   41  O   UNL     1      -6.368   9.483  71.221  1.00  0.00    -0.156 OA 
HETATM   42  H   UNL     1      -5.546   9.856  70.925  1.00  0.00     0.000 HD 
ENDBRANCH  37  40
ENDBRANCH  36  37
ENDBRANCH   4  36
TORSDOF 12
ENDMDL
MODEL      148
REMARK 921   NORMALIZED FREE ENERGY PREDICTED BY IDOCK:   -0.97 KCAL/MOL
REMARK 922        TOTAL FREE ENERGY PREDICTED BY IDOCK:   -2.85 KCAL/MOL
REMARK 923 INTER-LIGAND FREE ENERGY PREDICTED BY IDOCK:   -4.39 KCAL/MOL
REMARK 924 INTRA-LIGAND FREE ENERGY PREDICTED BY IDOCK:    1.53 KCAL/MOL
REMARK 927      BINDING AFFINITY PREDICTED BY RF-SCORE:    0.00 PKD
ROOT
HETATM    1  C   UNL     1      -9.681   9.908  64.007  1.00  0.00    -0.007 C  
HETATM    2  C   UNL     1      -9.523   9.720  65.491  1.00  0.00    -0.262 C  
HETATM    3  O   UNL     1     -10.363  10.194  66.261  1.00  0.00    -0.226 OA 
HETATM    4  N   UNL     1      -8.402   9.015  65.936  1.00  0.00    -0.119 N  
ENDROOT
BRANCH   4   5
HETATM    5  C   UNL     1      -8.308   8.790  67.349  1.00  0.00    -0.109 A  
HETATM    6  C   UNL     1      -7.807   8.137  70.033  1.00  0.00    -0.103 A  
HETATM    7  C   UNL     1      -7.529   9.666  68.151  1.00  0.00    -0.082 A  
HETATM    8  C   UNL     1      -8.945   7.665  67.931  1.00  0.00    -0.128 A  
HETATM    9  I   UNL     1     -10.331   6.518  66.717  1.00  0.00    -0.161 I  
HETATM   10  I   UNL     1      -6.835  11.502  67.236  1.00  0.00    -0.139 I  
HETATM   11  C   UNL     1      -8.690   7.318  69.277  1.00  0.00    -0.137 A  
HETATM   12  I   UNL     1      -7.070   7.393  71.940  1.00  0.00    -0.068 I  
HETATM   13  C   UNL     1      -7.270   9.350  69.500  1.00  0.00    -0.067 A  
BRANCH  11  14
HETATM   14  C   UNL     1      -9.242   6.039  69.817  1.00  0.00    -0.143 C  
HETATM   15  O   UNL     1     -10.141   6.053  70.651  1.00  0.00    -0.182 OA 
HETATM   16  N   UNL     1      -8.694   4.871  69.335  1.00  0.00    -0.086 N  
HETATM   17  H   UNL     1      -7.963   4.916  68.625  1.00  0.00     0.000 HD 
BRANCH  16  18
HETATM   18  C   UNL     1      -9.143   3.567  69.823  1.00  0.00    -0.127 C  
BRANCH  18  19
HETATM   19  C   UNL     1      -8.664   2.424  68.922  1.00  0.00    -0.084 C  
HETATM   20  H   UNL     1      -9.111   1.738  67.136  1.00  0.00     0.000 HD 
HETATM   21  O   UNL     1      -9.408   2.447  67.694  1.00  0.00    -0.184 OA 
BRANCH  19  22
HETATM   22  C   UNL     1      -7.157   2.521  68.644  1.00  0.00    -0.044 C  
HETATM   23  O   UNL     1      -6.899   3.130  67.379  1.00  0.00    -0.044 OA 
HETATM   24  H   UNL     1      -5.966   3.189  67.207  1.00  0.00     0.000 HD 
ENDBRANCH  19  22
ENDBRANCH  18  19
ENDBRANCH  16  18
ENDBRANCH  11  14
BRANCH  13  25
HETATM   25  C   UNL     1      -6.516  10.277  70.408  1.00  0.00    -0.131 C  
HETATM   26  O   UNL     1      -6.504  10.060  71.615  1.00  0.00    -0.291 OA 
HETATM   27  H   UNL     1      -5.842  11.489  68.842  1.00  0.00     0.000 HD 
HETATM   28  N   UNL     1      -5.858  11.362  69.854  1.00  0.00    -0.093 N  
BRANCH  28  29
HETATM   29  C   UNL     1      -5.188  12.322  70.723  1.00  0.00    -0.149 C  
BRANCH  29  30
HETATM   30  C   UNL     1      -6.002  13.606  70.929  1.00  0.00    -0.110 C  
HETATM   31  H   UNL     1      -6.255  14.918  72.374  1.00  0.00     0.000 HD 
HETATM   32  O   UNL     1      -5.751  14.124  72.247  1.00  0.00    -0.264 OA 
BRANCH  30  33
HETATM   33  C   UNL     1      -5.646  14.664  69.872  1.00  0.00    -0.104 C  
HETATM   34  O   UNL     1      -5.629  15.977  70.430  1.00  0.00    -0.171 OA 
HETATM   35  H   UNL     1      -5.409  16.630  69.777  1.00  0.00     0.000 HD 
ENDBRANCH  30  33
ENDBRANCH  29  30
ENDBRANCH  28  29
ENDBRANCH  13  25
ENDBRANCH   4   5
BRANCH   4  36
HETATM   36  C   UNL     1      -7.342   8.446  65.057  1.00  0.00    -0.086 C  
BRANCH  36  37
HETATM   37  C   UNL     1      -7.515   6.975  64.592  1.00  0.00    -0.098 C  
HETATM   38  O   UNL     1      -8.502   6.833  63.559  1.00  0.00    -0.344 OA 
HETATM   39  H   UNL     1      -8.608   5.933  63.274  1.00  0.00     0.000 HD 
BRANCH  37  40
HETATM   40  C   UNL     1      -6.226   6.348  64.052  1.00  0.00    -0.030 C  
HETATM   41  O   UNL     1      -5.296   6.168  65.126  1.00  0.00    -0.016 OA 
HETATM   42  H   UNL     1      -4.497   5.780  64.791  1.00  0.00     0.000 HD 
ENDBRANCH  37  40
ENDBRANCH  36  37
ENDBRANCH   4  36
TORSDOF 12
ENDMDL
MODEL      149
REMARK 921   NORMALIZED FREE ENERGY PREDICTED BY IDOCK:   -0.95 KCAL/MOL
REMARK 922        TOTAL FREE ENERGY PREDICTED BY IDOCK:   -2.82 KCAL/MOL
REMARK 923 INTER-LIGAND FREE ENERGY PREDICTED BY IDOCK:   -4.61 KCAL/MOL
REMARK 924 INTRA-LIGAND FREE ENERGY PREDICTED BY IDOCK:    1.79 KCAL/MOL
REMARK 927      BINDING AFFINITY PREDICTED BY RF-SCORE:    0.00 PKD
ROOT
HETATM    1  C   UNL     1      -9.928  10.304  64.409  1.00  0.00    -0.331 C  
HETATM    2  C   UNL     1      -9.669  10.194  65.886  1.00  0.00    -0.232 C  
HETATM    3  O   UNL     1     -10.183  11.006  66.660  1.00  0.00    -0.218 OA 
HETATM    4  N   UNL     1      -8.828   9.165  66.319  1.00  0.00    -0.141 N  
ENDROOT
BRANCH   4   5
HETATM    5  C   UNL     1      -8.650   9.039  67.736  1.00  0.00    -0.121 A  
HETATM    6  C   UNL     1      -8.016   8.538  70.424  1.00  0.00    -0.099 A  
HETATM    7  C   UNL     1      -7.718   9.876  68.405  1.00  0.00    -0.084 A  
HETATM    8  C   UNL     1      -9.361   8.044  68.454  1.00  0.00    -0.138 A  
HETATM    9  I   UNL     1     -10.955   6.978  67.439  1.00  0.00     0.042 I  
HETATM   10  I   UNL     1      -6.898  11.543  67.292  1.00  0.00    -0.139 I  
HETATM   11  C   UNL     1      -9.041   7.773  69.803  1.00  0.00    -0.147 A  
HETATM   12  I   UNL     1      -7.219   7.861  72.333  1.00  0.00    -0.133 I  
HETATM   13  C   UNL     1      -7.391   9.636  69.755  1.00  0.00    -0.104 A  
BRANCH  11  14
HETATM   14  C   UNL     1      -9.687   6.612  70.486  1.00  0.00    -0.176 C  
HETATM   15  O   UNL     1     -10.761   6.749  71.062  1.00  0.00    -0.223 OA 
HETATM   16  N   UNL     1      -9.022   5.408  70.433  1.00  0.00    -0.131 N  
HETATM   17  H   UNL     1      -8.141   5.344  69.921  1.00  0.00     0.000 HD 
BRANCH  16  18
HETATM   18  C   UNL     1      -9.555   4.218  71.097  1.00  0.00    -0.179 C  
BRANCH  18  19
HETATM   19  C   UNL     1      -8.697   3.800  72.295  1.00  0.00    -0.096 C  
HETATM   20  H   UNL     1      -6.864   4.136  72.919  1.00  0.00     0.000 HD 
HETATM   21  O   UNL     1      -7.396   4.395  72.176  1.00  0.00    -0.060 OA 
BRANCH  19  22
HETATM   22  C   UNL     1      -9.355   4.198  73.625  1.00  0.00    -0.103 C  
HETATM   23  O   UNL     1     -10.334   5.220  73.436  1.00  0.00    -0.178 OA 
HETATM   24  H   UNL     1     -10.741   5.466  74.259  1.00  0.00     0.000 HD 
ENDBRANCH  19  22
ENDBRANCH  18  19
ENDBRANCH  16  18
ENDBRANCH  11  14
BRANCH  13  25
HETATM   25  C   UNL     1      -6.470  10.536  70.527  1.00  0.00    -0.067 C  
HETATM   26  O   UNL     1      -6.182  10.251  71.684  1.00  0.00    -0.288 OA 
HETATM   27  H   UNL     1      -6.191  11.855  68.928  1.00  0.00     0.000 HD 
HETATM   28  N   UNL     1      -5.976  11.670  69.908  1.00  0.00    -0.121 N  
BRANCH  28  29
HETATM   29  C   UNL     1      -5.146  12.602  70.664  1.00  0.00    -0.121 C  
BRANCH  29  30
HETATM   30  C   UNL     1      -5.938  13.800  71.204  1.00  0.00    -0.094 C  
HETATM   31  H   UNL     1      -6.271  14.612  72.965  1.00  0.00     0.000 HD 
HETATM   32  O   UNL     1      -5.781  13.871  72.631  1.00  0.00    -0.421 OA 
BRANCH  30  33
HETATM   33  C   UNL     1      -5.467  15.113  70.557  1.00  0.00    -0.136 C  
HETATM   34  O   UNL     1      -5.463  15.022  69.134  1.00  0.00    -0.093 OA 
HETATM   35  H   UNL     1      -5.173  15.833  68.734  1.00  0.00     0.000 HD 
ENDBRANCH  30  33
ENDBRANCH  29  30
ENDBRANCH  28  29
ENDBRANCH  13  25
ENDBRANCH   4   5
BRANCH   4  36
HETATM   36  C   UNL     1      -8.158   8.175  65.430  1.00  0.00    -0.130 C  
BRANCH  36  37
HETATM   37  C   UNL     1      -6.611   8.078  65.510  1.00  0.00    -0.045 C  
HETATM   38  O   UNL     1      -6.155   7.477  66.731  1.00  0.00    -0.041 OA 
HETATM   39  H   UNL     1      -5.208   7.418  66.780  1.00  0.00     0.000 HD 
BRANCH  37  40
HETATM   40  C   UNL     1      -5.988   7.269  64.367  1.00  0.00    -0.037 C  
HETATM   41  O   UNL     1      -5.877   5.896  64.759  1.00  0.00    -0.023 OA 
HETATM   42  H   UNL     1      -5.491   5.395  64.050  1.00  0.00     0.000 HD 
ENDBRANCH  37  40
ENDBRANCH  36  37
ENDBRANCH   4  36
TORSDOF 12
ENDMDL
MODEL      150
REMARK 921   NORMALIZED FREE ENERGY PREDICTED BY IDOCK:   -0.89 KCAL/MOL
REMARK 922        TOTAL FREE ENERGY PREDICTED BY IDOCK:   -2.71 KCAL/MOL
REMARK 923 INTER-LIGAND FREE ENERGY PREDICTED BY IDOCK:   -3.40 KCAL/MOL
REMARK 924 INTRA-LIGAND FREE ENERGY PREDICTED BY IDOCK:    0.69 KCAL/MOL
REMARK 927      BINDING AFFINITY PREDICTED BY RF-SCORE:    0.00 PKD
ROOT
HETATM    1  C   UNL     1     -11.763  11.427  70.124  1.00  0.00    -0.414 C  
HETATM    2  C   UNL     1     -11.413   9.967  70.022  1.00  0.00    -0.248 C  
HETATM    3  O   UNL     1     -12.300   9.116  70.125  1.00  0.00     0.285 OA 
HETATM    4  N   UNL     1     -10.068   9.638  69.827  1.00  0.00    -0.217 N  
ENDROOT
BRANCH   4   5
HETATM    5  C   UNL     1      -9.769   8.246  69.666  1.00  0.00    -0.173 A  
HETATM    6  C   UNL     1      -8.809   5.620  69.412  1.00  0.00    -0.111 A  
HETATM    7  C   UNL     1      -9.743   7.395  70.803  1.00  0.00    -0.171 A  
HETATM    8  C   UNL     1      -9.445   7.735  68.383  1.00  0.00    -0.147 A  
HETATM    9  I   UNL     1      -9.758   9.008  66.654  1.00  0.00    -0.352 I  
HETATM   10  I   UNL     1     -10.523   8.190  72.660  1.00  0.00    -0.180 I  
HETATM   11  C   UNL     1      -8.948   6.419  68.244  1.00  0.00    -0.116 A  
HETATM   12  I   UNL     1      -7.658   3.778  69.284  1.00  0.00    -0.054 I  
HETATM   13  C   UNL     1      -9.263   6.074  70.689  1.00  0.00    -0.161 A  
BRANCH  11  14
HETATM   14  C   UNL     1      -8.459   5.962  66.908  1.00  0.00    -0.108 C  
HETATM   15  O   UNL     1      -7.492   6.503  66.383  1.00  0.00    -0.082 OA 
HETATM   16  N   UNL     1      -9.142   4.923  66.317  1.00  0.00    -0.123 N  
HETATM   17  H   UNL     1      -9.927   4.495  66.808  1.00  0.00     0.000 HD 
BRANCH  16  18
HETATM   18  C   UNL     1      -8.762   4.423  64.995  1.00  0.00    -0.133 C  
BRANCH  18  19
HETATM   19  C   UNL     1      -9.277   3.001  64.753  1.00  0.00    -0.146 C  
HETATM   20  H   UNL     1     -11.031   2.133  64.574  1.00  0.00     0.000 HD 
HETATM   21  O   UNL     1     -10.712   3.015  64.725  1.00  0.00     0.361 OA 
BRANCH  19  22
HETATM   22  C   UNL     1      -8.716   2.414  63.449  1.00  0.00    -0.085 C  
HETATM   23  O   UNL     1      -8.168   3.433  62.612  1.00  0.00    -0.071 OA 
HETATM   24  H   UNL     1      -7.822   3.070  61.806  1.00  0.00     0.000 HD 
ENDBRANCH  19  22
ENDBRANCH  18  19
ENDBRANCH  16  18
ENDBRANCH  11  14
BRANCH  13  25
HETATM   25  C   UNL     1      -9.284   5.114  71.843  1.00  0.00    -0.137 C  
HETATM   26  O   UNL     1      -8.314   5.052  72.591  1.00  0.00    -0.114 OA 
HETATM   27  H   UNL     1     -11.212   4.427  71.418  1.00  0.00     0.000 HD 
HETATM   28  N   UNL     1     -10.400   4.317  72.025  1.00  0.00    -0.145 N  
BRANCH  28  29
HETATM   29  C   UNL     1     -10.409   3.320  73.089  1.00  0.00    -0.159 C  
BRANCH  29  30
HETATM   30  C   UNL     1     -10.017   1.920  72.595  1.00  0.00    -0.124 C  
HETATM   31  H   UNL     1      -9.712   1.056  70.854  1.00  0.00     0.000 HD 
HETATM   32  O   UNL     1      -9.954   1.922  71.159  1.00  0.00    -0.105 OA 
BRANCH  30  33
HETATM   33  C   UNL     1      -8.664   1.485  73.181  1.00  0.00    -0.061 C  
HETATM   34  O   UNL     1      -7.578   2.147  72.536  1.00  0.00    -0.042 OA 
HETATM   35  H   UNL     1      -6.741   1.878  72.897  1.00  0.00     0.000 HD 
ENDBRANCH  30  33
ENDBRANCH  29  30
ENDBRANCH  28  29
ENDBRANCH  13  25
ENDBRANCH   4   5
BRANCH   4  36
HETATM   36  C   UNL     1      -8.952  10.619  69.725  1.00  0.00     0.312 C  
BRANCH  36  37
HETATM   37  C   UNL     1      -7.506  10.056  69.722  1.00  0.00    -0.151 C  
HETATM   38  O   UNL     1      -6.513  11.078  69.545  1.00  0.00    -0.080 OA 
HETATM   39  H   UNL     1      -5.628  10.733  69.543  1.00  0.00     0.000 HD 
BRANCH  37  40
HETATM   40  C   UNL     1      -7.138   9.309  71.008  1.00  0.00    -0.078 C  
HETATM   41  O   UNL     1      -5.753   9.523  71.305  1.00  0.00    -0.064 OA 
HETATM   42  H   UNL     1      -5.525   9.059  72.102  1.00  0.00     0.000 HD 
ENDBRANCH  37  40
ENDBRANCH  36  37
ENDBRANCH   4  36
TORSDOF 12
ENDMDL
MODEL      151
REMARK 921   NORMALIZED FREE ENERGY PREDICTED BY IDOCK:   -0.86 KCAL/MOL
REMARK 922        TOTAL FREE ENERGY PREDICTED BY IDOCK:   -2.67 KCAL/MOL
REMARK 923 INTER-LIGAND FREE ENERGY PREDICTED BY IDOCK:   -7.99 KCAL/MOL
REMARK 924 INTRA-LIGAND FREE ENERGY PREDICTED BY IDOCK:    5.32 KCAL/MOL
REMARK 927      BINDING AFFINITY PREDICTED BY RF-SCORE:    0.00 PKD
ROOT
HETATM    1  C   UNL     1     -10.995  11.545  64.118  1.00  0.00    -0.434 C  
HETATM    2  C   UNL     1     -11.298  11.416  65.586  1.00  0.00     0.001 C  
HETATM    3  O   UNL     1     -12.277  11.997  66.062  1.00  0.00    -0.546 OA 
HETATM    4  N   UNL     1     -10.430  10.640  66.359  1.00  0.00    -0.235 N  
ENDROOT
BRANCH   4   5
HETATM    5  C   UNL     1     -10.777  10.477  67.740  1.00  0.00    -0.272 A  
HETATM    6  C   UNL     1     -11.822  10.096  70.317  1.00  0.00    -0.261 A  
HETATM    7  C   UNL     1     -10.746   9.184  68.326  1.00  0.00    -0.122 A  
HETATM    8  C   UNL     1     -11.204  11.596  68.500  1.00  0.00    -0.256 A  
HETATM    9  I   UNL     1     -10.980  13.576  67.640  1.00  0.00    -0.319 I  
HETATM   10  I   UNL     1      -9.815   7.596  67.185  1.00  0.00    -0.343 I  
HETATM   11  C   UNL     1     -11.745  11.415  69.793  1.00  0.00    -0.418 A  
HETATM   12  I   UNL     1     -13.029   9.749  72.095  1.00  0.00    -0.227 I  
HETATM   13  C   UNL     1     -11.267   8.978  69.619  1.00  0.00     0.007 A  
BRANCH  11  14
HETATM   14  C   UNL     1     -12.339  12.587  70.505  1.00  0.00    -0.262 C  
HETATM   15  O   UNL     1     -13.515  12.572  70.852  1.00  0.00     0.332 OA 
HETATM   16  N   UNL     1     -11.508  13.659  70.742  1.00  0.00    -0.340 N  
HETATM   17  H   UNL     1     -10.531  13.610  70.451  1.00  0.00     0.000 HD 
BRANCH  16  18
HETATM   18  C   UNL     1     -12.001  14.867  71.403  1.00  0.00    -0.345 C  
BRANCH  18  19
HETATM   19  C   UNL     1     -12.743  14.543  72.704  1.00  0.00    -0.357 C  
HETATM   20  H   UNL     1     -12.306  14.502  74.619  1.00  0.00     0.000 HD 
HETATM   21  O   UNL     1     -11.846  14.703  73.813  1.00  0.00    -0.165 OA 
BRANCH  19  22
HETATM   22  C   UNL     1     -13.984  15.432  72.880  1.00  0.00    -0.291 C  
HETATM   23  O   UNL     1     -13.668  16.634  73.581  1.00  0.00    -0.575 OA 
HETATM   24  H   UNL     1     -14.436  17.184  73.690  1.00  0.00     0.000 HD 
ENDBRANCH  19  22
ENDBRANCH  18  19
ENDBRANCH  16  18
ENDBRANCH  11  14
BRANCH  13  25
HETATM   25  C   UNL     1     -11.191   7.648  70.310  1.00  0.00    -0.216 C  
HETATM   26  O   UNL     1     -12.013   6.780  70.037  1.00  0.00    -0.291 OA 
HETATM   27  H   UNL     1      -9.493   8.162  71.417  1.00  0.00     0.000 HD 
HETATM   28  N   UNL     1     -10.194   7.441  71.247  1.00  0.00    -0.189 N  
BRANCH  28  29
HETATM   29  C   UNL     1     -10.149   6.187  71.990  1.00  0.00    -0.181 C  
BRANCH  29  30
HETATM   30  C   UNL     1     -10.112   6.398  73.510  1.00  0.00    -0.226 C  
HETATM   31  H   UNL     1     -10.120   5.252  75.109  1.00  0.00     0.000 HD 
HETATM   32  O   UNL     1     -10.143   5.121  74.169  1.00  0.00    -0.182 OA 
BRANCH  30  33
HETATM   33  C   UNL     1      -8.854   7.177  73.930  1.00  0.00    -0.186 C  
HETATM   34  O   UNL     1      -7.666   6.543  73.461  1.00  0.00    -0.092 OA 
HETATM   35  H   UNL     1      -6.888   7.024  73.720  1.00  0.00     0.000 HD 
ENDBRANCH  30  33
ENDBRANCH  29  30
ENDBRANCH  28  29
ENDBRANCH  13  25
ENDBRANCH   4   5
BRANCH   4  36
HETATM   36  C   UNL     1      -9.219   9.941  65.846  1.00  0.00    -0.176 C  
BRANCH  36  37
HETATM   37  C   UNL     1      -8.212  10.778  65.012  1.00  0.00    -0.005 C  
HETATM   38  O   UNL     1      -6.950  10.948  65.675  1.00  0.00    -0.333 OA 
HETATM   39  H   UNL     1      -6.334  11.461  65.165  1.00  0.00     0.000 HD 
BRANCH  37  40
HETATM   40  C   UNL     1      -7.904  10.174  63.638  1.00  0.00    -0.154 C  
HETATM   41  O   UNL     1      -8.640   8.957  63.475  1.00  0.00    -0.331 OA 
HETATM   42  H   UNL     1      -8.449   8.582  62.623  1.00  0.00     0.000 HD 
ENDBRANCH  37  40
ENDBRANCH  36  37
ENDBRANCH   4  36
TORSDOF 12
ENDMDL
MODEL      152
REMARK 921   NORMALIZED FREE ENERGY PREDICTED BY IDOCK:   -0.86 KCAL/MOL
REMARK 922        TOTAL FREE ENERGY PREDICTED BY IDOCK:   -2.66 KCAL/MOL
REMARK 923 INTER-LIGAND FREE ENERGY PREDICTED BY IDOCK:   -5.70 KCAL/MOL
REMARK 924 INTRA-LIGAND FREE ENERGY PREDICTED BY IDOCK:    3.04 KCAL/MOL
REMARK 927      BINDING AFFINITY PREDICTED BY RF-SCORE:    0.00 PKD
ROOT
HETATM    1  C   UNL     1     -13.406  12.618  71.523  1.00  0.00    -0.208 C  
HETATM    2  C   UNL     1     -12.149  12.697  70.701  1.00  0.00    -0.226 C  
HETATM    3  O   UNL     1     -11.430  13.697  70.776  1.00  0.00     0.064 OA 
HETATM    4  N   UNL     1     -11.857  11.617  69.863  1.00  0.00    -0.337 N  
ENDROOT
BRANCH   4   5
HETATM    5  C   UNL     1     -10.621  11.685  69.141  1.00  0.00    -0.108 A  
HETATM    6  C   UNL     1      -8.086  12.075  67.999  1.00  0.00    -0.153 A  
HETATM    7  C   UNL     1      -9.552  10.818  69.492  1.00  0.00     0.054 A  
HETATM    8  C   UNL     1     -10.450  12.653  68.119  1.00  0.00    -0.231 A  
HETATM    9  I   UNL     1     -12.188  13.765  67.446  1.00  0.00     0.200 I  
HETATM   10  I   UNL     1      -9.993   9.194  70.855  1.00  0.00    -0.334 I  
HETATM   11  C   UNL     1      -9.176  12.869  67.547  1.00  0.00    -0.192 A  
HETATM   12  I   UNL     1      -6.065  12.673  67.458  1.00  0.00    -0.003 I  
HETATM   13  C   UNL     1      -8.274  11.003  68.926  1.00  0.00    -0.127 A  
BRANCH  11  14
HETATM   14  C   UNL     1      -8.987  14.004  66.594  1.00  0.00    -0.154 C  
HETATM   15  O   UNL     1      -9.291  13.880  65.412  1.00  0.00     0.127 OA 
HETATM   16  N   UNL     1      -8.464  15.169  67.108  1.00  0.00    -0.197 N  
HETATM   17  H   UNL     1      -8.249  15.226  68.103  1.00  0.00     0.000 HD 
BRANCH  16  18
HETATM   18  C   UNL     1      -8.212  16.328  66.251  1.00  0.00    -0.277 C  
BRANCH  18  19
HETATM   19  C   UNL     1      -9.098  17.520  66.627  1.00  0.00    -0.269 C  
HETATM   20  H   UNL     1     -10.711  18.379  65.902  1.00  0.00     0.000 HD 
HETATM   21  O   UNL     1     -10.161  17.640  65.669  1.00  0.00    -0.593 OA 
BRANCH  19  22
HETATM   22  C   UNL     1      -9.664  17.375  68.047  1.00  0.00    -0.281 C  
HETATM   23  O   UNL     1      -9.389  18.531  68.838  1.00  0.00    -0.300 OA 
HETATM   24  H   UNL     1      -9.738  18.441  69.717  1.00  0.00     0.000 HD 
ENDBRANCH  19  22
ENDBRANCH  18  19
ENDBRANCH  16  18
ENDBRANCH  11  14
BRANCH  13  25
HETATM   25  C   UNL     1      -7.133  10.070  69.208  1.00  0.00    -0.074 C  
HETATM   26  O   UNL     1      -6.793   9.260  68.352  1.00  0.00    -0.062 OA 
HETATM   27  H   UNL     1      -6.769  10.864  71.108  1.00  0.00     0.000 HD 
HETATM   28  N   UNL     1      -6.499  10.146  70.436  1.00  0.00    -0.121 N  
BRANCH  28  29
HETATM   29  C   UNL     1      -5.442   9.196  70.763  1.00  0.00    -0.030 C  
BRANCH  29  30
HETATM   30  C   UNL     1      -5.885   8.145  71.790  1.00  0.00    -0.037 C  
HETATM   31  H   UNL     1      -5.476   6.258  72.167  1.00  0.00     0.000 HD 
HETATM   32  O   UNL     1      -5.201   6.908  71.532  1.00  0.00    -0.026 OA 
BRANCH  30  33
HETATM   33  C   UNL     1      -5.597   8.617  73.226  1.00  0.00    -0.089 C  
HETATM   34  O   UNL     1      -6.609   8.182  74.132  1.00  0.00    -0.109 OA 
HETATM   35  H   UNL     1      -6.431   8.474  75.018  1.00  0.00     0.000 HD 
ENDBRANCH  30  33
ENDBRANCH  29  30
ENDBRANCH  28  29
ENDBRANCH  13  25
ENDBRANCH   4   5
BRANCH   4  36
HETATM   36  C   UNL     1     -12.701  10.399  69.710  1.00  0.00     0.200 C  
BRANCH  36  37
HETATM   37  C   UNL     1     -13.394   9.847  70.984  1.00  0.00    -0.256 C  
HETATM   38  O   UNL     1     -14.360   8.826  70.692  1.00  0.00    -0.387 OA 
HETATM   39  H   UNL     1     -14.784   8.488  71.472  1.00  0.00     0.000 HD 
BRANCH  37  40
HETATM   40  C   UNL     1     -12.418   9.245  72.000  1.00  0.00    -0.378 C  
HETATM   41  O   UNL     1     -13.125   8.902  73.197  1.00  0.00    -0.788 OA 
HETATM   42  H   UNL     1     -12.519   8.530  73.827  1.00  0.00     0.000 HD 
ENDBRANCH  37  40
ENDBRANCH  36  37
ENDBRANCH   4  36
TORSDOF 12
ENDMDL
MODEL      153
REMARK 921   NORMALIZED FREE ENERGY PREDICTED BY IDOCK:   -0.82 KCAL/MOL
REMARK 922        TOTAL FREE ENERGY PREDICTED BY IDOCK:   -2.59 KCAL/MOL
REMARK 923 INTER-LIGAND FREE ENERGY PREDICTED BY IDOCK:   -4.09 KCAL/MOL
REMARK 924 INTRA-LIGAND FREE ENERGY PREDICTED BY IDOCK:    1.50 KCAL/MOL
REMARK 927      BINDING AFFINITY PREDICTED BY RF-SCORE:    0.00 PKD
ROOT
HETATM    1  C   UNL     1      -6.353  11.688  66.940  1.00  0.00    -0.142 C  
HETATM    2  C   UNL     1      -6.936  10.354  67.316  1.00  0.00    -0.086 C  
HETATM    3  O   UNL     1      -6.428   9.699  68.230  1.00  0.00    -0.056 OA 
HETATM    4  N   UNL     1      -8.040   9.903  66.587  1.00  0.00    -0.116 N  
ENDROOT
BRANCH   4   5
HETATM    5  C   UNL     1      -8.619   8.661  67.007  1.00  0.00    -0.117 A  
HETATM    6  C   UNL     1      -9.418   6.170  68.025  1.00  0.00    -0.113 A  
HETATM    7  C   UNL     1      -9.353   8.602  68.222  1.00  0.00    -0.137 A  
HETATM    8  C   UNL     1      -8.411   7.487  66.241  1.00  0.00    -0.140 A  
HETATM    9  I   UNL     1      -7.517   7.682  64.273  1.00  0.00    -0.117 I  
HETATM   10  I   UNL     1      -9.861  10.481  69.171  1.00  0.00    -0.145 I  
HETATM   11  C   UNL     1      -8.796   6.225  66.749  1.00  0.00    -0.126 A  
HETATM   12  I   UNL     1      -9.623   4.237  69.004  1.00  0.00    -0.080 I  
HETATM   13  C   UNL     1      -9.760   7.358  68.745  1.00  0.00    -0.149 A  
BRANCH  11  14
HETATM   14  C   UNL     1      -8.417   4.990  65.998  1.00  0.00    -0.116 C  
HETATM   15  O   UNL     1      -9.221   4.448  65.248  1.00  0.00    -0.139 OA 
HETATM   16  N   UNL     1      -7.142   4.509  66.192  1.00  0.00    -0.073 N  
HETATM   17  H   UNL     1      -6.505   5.012  66.811  1.00  0.00     0.000 HD 
BRANCH  16  18
HETATM   18  C   UNL     1      -6.684   3.289  65.528  1.00  0.00    -0.044 C  
BRANCH  18  19
HETATM   19  C   UNL     1      -5.465   3.546  64.636  1.00  0.00    -0.010 C  
HETATM   20  H   UNL     1      -4.437   2.532  63.304  1.00  0.00     0.000 HD 
HETATM   21  O   UNL     1      -5.193   2.372  63.856  1.00  0.00    -0.007 OA 
BRANCH  19  22
HETATM   22  C   UNL     1      -5.682   4.763  63.724  1.00  0.00    -0.017 C  
HETATM   23  O   UNL     1      -6.525   4.442  62.619  1.00  0.00    -0.025 OA 
HETATM   24  H   UNL     1      -6.658   5.195  62.055  1.00  0.00     0.000 HD 
ENDBRANCH  19  22
ENDBRANCH  18  19
ENDBRANCH  16  18
ENDBRANCH  11  14
BRANCH  13  25
HETATM   25  C   UNL     1     -10.600   7.247  69.984  1.00  0.00    -0.233 C  
HETATM   26  O   UNL     1     -10.105   6.784  71.006  1.00  0.00    -0.189 OA 
HETATM   27  H   UNL     1     -12.287   8.095  69.086  1.00  0.00     0.000 HD 
HETATM   28  N   UNL     1     -11.917   7.666  69.935  1.00  0.00     0.400 N  
BRANCH  28  29
HETATM   29  C   UNL     1     -12.775   7.493  71.102  1.00  0.00    -0.241 C  
BRANCH  29  30
HETATM   30  C   UNL     1     -12.733   8.696  72.054  1.00  0.00    -0.376 C  
HETATM   31  H   UNL     1     -11.425   9.490  73.292  1.00  0.00     0.000 HD 
HETATM   32  O   UNL     1     -11.451   8.745  72.703  1.00  0.00    -0.227 OA 
BRANCH  30  33
HETATM   33  C   UNL     1     -12.991  10.011  71.298  1.00  0.00    -0.400 C  
HETATM   34  O   UNL     1     -13.600  10.987  72.141  1.00  0.00    -0.484 OA 
HETATM   35  H   UNL     1     -13.759  11.799  71.675  1.00  0.00     0.000 HD 
ENDBRANCH  30  33
ENDBRANCH  29  30
ENDBRANCH  28  29
ENDBRANCH  13  25
ENDBRANCH   4   5
BRANCH   4  36
HETATM   36  C   UNL     1      -8.677  10.635  65.456  1.00  0.00    -0.188 C  
BRANCH  36  37
HETATM   37  C   UNL     1      -9.782   9.892  64.658  1.00  0.00    -0.195 C  
HETATM   38  O   UNL     1     -11.098  10.132  65.177  1.00  0.00     0.657 OA 
HETATM   39  H   UNL     1     -11.774   9.677  64.689  1.00  0.00     0.000 HD 
BRANCH  37  40
HETATM   40  C   UNL     1      -9.823  10.269  63.174  1.00  0.00    -0.039 C  
HETATM   41  O   UNL     1     -10.492  11.526  63.019  1.00  0.00    -0.619 OA 
HETATM   42  H   UNL     1     -10.518  11.760  62.098  1.00  0.00     0.000 HD 
ENDBRANCH  37  40
ENDBRANCH  36  37
ENDBRANCH   4  36
TORSDOF 12
ENDMDL
MODEL      154
REMARK 921   NORMALIZED FREE ENERGY PREDICTED BY IDOCK:   -0.76 KCAL/MOL
REMARK 922        TOTAL FREE ENERGY PREDICTED BY IDOCK:   -2.50 KCAL/MOL
REMARK 923 INTER-LIGAND FREE ENERGY PREDICTED BY IDOCK:   -6.59 KCAL/MOL
REMARK 924 INTRA-LIGAND FREE ENERGY PREDICTED BY IDOCK:    4.09 KCAL/MOL
REMARK 927      BINDING AFFINITY PREDICTED BY RF-SCORE:    0.00 PKD
ROOT
HETATM    1  C   UNL     1      -5.381  16.498  70.436  1.00  0.00    -0.200 C  
HETATM    2  C   UNL     1      -6.313  15.363  70.111  1.00  0.00    -0.089 C  
HETATM    3  O   UNL     1      -6.782  14.676  71.022  1.00  0.00     0.196 OA 
HETATM    4  N   UNL     1      -6.597  15.126  68.763  1.00  0.00    -0.091 N  
ENDROOT
BRANCH   4   5
HETATM    5  C   UNL     1      -7.539  14.083  68.483  1.00  0.00    -0.130 A  
HETATM    6  C   UNL     1      -9.504  12.086  68.303  1.00  0.00    -0.199 A  
HETATM    7  C   UNL     1      -8.834  14.414  68.004  1.00  0.00    -0.178 A  
HETATM    8  C   UNL     1      -7.195  12.730  68.736  1.00  0.00    -0.077 A  
HETATM    9  I   UNL     1      -5.130  12.260  69.209  1.00  0.00    -0.072 I  
HETATM   10  I   UNL     1      -9.172  16.460  67.378  1.00  0.00    -0.230 I  
HETATM   11  C   UNL     1      -8.179  11.718  68.663  1.00  0.00    -0.091 A  
HETATM   12  I   UNL     1     -11.105  10.642  68.601  1.00  0.00    -0.349 I  
HETATM   13  C   UNL     1      -9.831  13.421  67.909  1.00  0.00    -0.237 A  
BRANCH  11  14
HETATM   14  C   UNL     1      -7.831  10.331  69.095  1.00  0.00    -0.127 C  
HETATM   15  O   UNL     1      -7.738   9.429  68.269  1.00  0.00    -0.082 OA 
HETATM   16  N   UNL     1      -7.627  10.130  70.441  1.00  0.00    -0.230 N  
HETATM   17  H   UNL     1      -7.695  10.921  71.082  1.00  0.00     0.000 HD 
BRANCH  16  18
HETATM   18  C   UNL     1      -7.313   8.802  70.969  1.00  0.00    -0.092 C  
BRANCH  18  19
HETATM   19  C   UNL     1      -8.383   8.309  71.948  1.00  0.00    -0.157 C  
HETATM   20  H   UNL     1     -10.285   8.672  72.278  1.00  0.00     0.000 HD 
HETATM   21  O   UNL     1      -9.622   8.978  71.671  1.00  0.00    -0.288 OA 
BRANCH  19  22
HETATM   22  C   UNL     1      -8.561   6.785  71.866  1.00  0.00    -0.120 C  
HETATM   23  O   UNL     1      -9.936   6.428  71.729  1.00  0.00    -0.177 OA 
HETATM   24  H   UNL     1     -10.045   5.486  71.678  1.00  0.00     0.000 HD 
ENDBRANCH  19  22
ENDBRANCH  18  19
ENDBRANCH  16  18
ENDBRANCH  11  14
BRANCH  13  25
HETATM   25  C   UNL     1     -11.191  13.706  67.341  1.00  0.00    -0.302 C  
HETATM   26  O   UNL     1     -12.043  14.226  68.053  1.00  0.00    -0.338 OA 
HETATM   27  H   UNL     1     -10.705  12.977  65.443  1.00  0.00     0.000 HD 
HETATM   28  N   UNL     1     -11.448  13.362  66.026  1.00  0.00    -0.318 N  
BRANCH  28  29
HETATM   29  C   UNL     1     -12.786  13.553  65.477  1.00  0.00    -0.440 C  
BRANCH  29  30
HETATM   30  C   UNL     1     -12.867  13.220  63.981  1.00  0.00     0.166 C  
HETATM   31  H   UNL     1     -12.153  13.976  62.311  1.00  0.00     0.000 HD 
HETATM   32  O   UNL     1     -12.103  14.182  63.236  1.00  0.00    -0.329 OA 
BRANCH  30  33
HETATM   33  C   UNL     1     -12.344  11.801  63.700  1.00  0.00    -0.379 C  
HETATM   34  O   UNL     1     -11.023  11.827  63.163  1.00  0.00    -0.644 OA 
HETATM   35  H   UNL     1     -10.700  10.951  62.989  1.00  0.00     0.000 HD 
ENDBRANCH  30  33
ENDBRANCH  29  30
ENDBRANCH  28  29
ENDBRANCH  13  25
ENDBRANCH   4   5
BRANCH   4  36
HETATM   36  C   UNL     1      -6.038  15.901  67.621  1.00  0.00    -0.156 C  
BRANCH  36  37
HETATM   37  C   UNL     1      -5.836  17.427  67.825  1.00  0.00    -0.127 C  
HETATM   38  O   UNL     1      -6.195  18.194  66.666  1.00  0.00    -0.159 OA 
HETATM   39  H   UNL     1      -6.071  19.128  66.791  1.00  0.00     0.000 HD 
BRANCH  37  40
HETATM   40  C   UNL     1      -6.644  18.000  68.994  1.00  0.00    -0.251 C  
HETATM   41  O   UNL     1      -6.888  19.393  68.769  1.00  0.00    -0.288 OA 
HETATM   42  H   UNL     1      -7.388  19.748  69.494  1.00  0.00     0.000 HD 
ENDBRANCH  37  40
ENDBRANCH  36  37
ENDBRANCH   4  36
TORSDOF 12
ENDMDL
MODEL      155
REMARK 921   NORMALIZED FREE ENERGY PREDICTED BY IDOCK:   -0.66 KCAL/MOL
REMARK 922        TOTAL FREE ENERGY PREDICTED BY IDOCK:   -2.32 KCAL/MOL
REMARK 923 INTER-LIGAND FREE ENERGY PREDICTED BY IDOCK:   -3.89 KCAL/MOL
REMARK 924 INTRA-LIGAND FREE ENERGY PREDICTED BY IDOCK:    1.57 KCAL/MOL
REMARK 927      BINDING AFFINITY PREDICTED BY RF-SCORE:    0.00 PKD
ROOT
HETATM    1  C   UNL     1      -6.192  10.221  70.387  1.00  0.00    -0.120 C  
HETATM    2  C   UNL     1      -6.532   9.799  68.984  1.00  0.00    -0.045 C  
HETATM    3  O   UNL     1      -5.629   9.512  68.194  1.00  0.00    -0.037 OA 
HETATM    4  N   UNL     1      -7.885   9.765  68.631  1.00  0.00    -0.080 N  
ENDROOT
BRANCH   4   5
HETATM    5  C   UNL     1      -8.188   9.295  67.311  1.00  0.00    -0.121 A  
HETATM    6  C   UNL     1      -8.420   8.489  64.632  1.00  0.00    -0.108 A  
HETATM    7  C   UNL     1      -7.877   7.957  66.952  1.00  0.00    -0.104 A  
HETATM    8  C   UNL     1      -8.745  10.181  66.354  1.00  0.00    -0.130 A  
HETATM    9  I   UNL     1      -9.442  12.123  67.026  1.00  0.00    -0.226 I  
HETATM   10  I   UNL     1      -7.302   6.606  68.543  1.00  0.00    -0.091 I  
HETATM   11  C   UNL     1      -8.853   9.792  65.000  1.00  0.00    -0.224 A  
HETATM   12  I   UNL     1      -8.176   8.028  62.519  1.00  0.00     0.025 I  
HETATM   13  C   UNL     1      -7.989   7.539  65.610  1.00  0.00    -0.117 A  
BRANCH  11  14
HETATM   14  C   UNL     1      -9.287  10.799  63.985  1.00  0.00    -0.252 C  
HETATM   15  O   UNL     1      -8.524  11.147  63.090  1.00  0.00    -0.034 OA 
HETATM   16  N   UNL     1     -10.563  11.301  64.110  1.00  0.00    -0.353 N  
HETATM   17  H   UNL     1     -11.164  10.960  64.861  1.00  0.00     0.000 HD 
BRANCH  16  18
HETATM   18  C   UNL     1     -11.072  12.315  63.186  1.00  0.00    -0.148 C  
BRANCH  18  19
HETATM   19  C   UNL     1     -12.160  13.180  63.829  1.00  0.00    -0.495 C  
HETATM   20  H   UNL     1     -12.924  14.965  63.524  1.00  0.00     0.000 HD 
HETATM   21  O   UNL     1     -12.249  14.428  63.126  1.00  0.00    -0.266 OA 
BRANCH  19  22
HETATM   22  C   UNL     1     -13.519  12.463  63.833  1.00  0.00     0.801 C  
HETATM   23  O   UNL     1     -13.387  11.094  63.455  1.00  0.00     0.139 OA 
HETATM   24  H   UNL     1     -14.228  10.651  63.457  1.00  0.00     0.000 HD 
ENDBRANCH  19  22
ENDBRANCH  18  19
ENDBRANCH  16  18
ENDBRANCH  11  14
BRANCH  13  25
HETATM   25  C   UNL     1      -7.743   6.118  65.192  1.00  0.00    -0.097 C  
HETATM   26  O   UNL     1      -6.607   5.768  64.890  1.00  0.00    -0.040 OA 
HETATM   27  H   UNL     1      -9.738   5.548  65.456  1.00  0.00     0.000 HD 
HETATM   28  N   UNL     1      -8.814   5.242  65.151  1.00  0.00    -0.150 N  
BRANCH  28  29
HETATM   29  C   UNL     1      -8.614   3.880  64.670  1.00  0.00    -0.110 C  
BRANCH  29  30
HETATM   30  C   UNL     1      -9.471   2.853  65.422  1.00  0.00    -0.039 C  
HETATM   31  H   UNL     1      -9.931   0.952  65.212  1.00  0.00     0.000 HD 
HETATM   32  O   UNL     1      -9.401   1.587  64.746  1.00  0.00    -0.126 OA 
BRANCH  30  33
HETATM   33  C   UNL     1      -9.001   2.699  66.878  1.00  0.00    -0.145 C  
HETATM   34  O   UNL     1      -7.871   1.833  66.974  1.00  0.00    -0.064 OA 
HETATM   35  H   UNL     1      -7.581   1.737  67.873  1.00  0.00     0.000 HD 
ENDBRANCH  30  33
ENDBRANCH  29  30
ENDBRANCH  28  29
ENDBRANCH  13  25
ENDBRANCH   4   5
BRANCH   4  36
HETATM   36  C   UNL     1      -9.015  10.128  69.531  1.00  0.00    -0.188 C  
BRANCH  36  37
HETATM   37  C   UNL     1      -9.661   8.986  70.360  1.00  0.00    -0.208 C  
HETATM   38  O   UNL     1     -10.310   8.004  69.539  1.00  0.00    -0.212 OA 
HETATM   39  H   UNL     1     -10.706   7.304  70.047  1.00  0.00     0.000 HD 
BRANCH  37  40
HETATM   40  C   UNL     1      -8.661   8.227  71.240  1.00  0.00    -0.152 C  
HETATM   41  O   UNL     1      -8.833   8.619  72.606  1.00  0.00    -0.371 OA 
HETATM   42  H   UNL     1      -8.213   8.149  73.151  1.00  0.00     0.000 HD 
ENDBRANCH  37  40
ENDBRANCH  36  37
ENDBRANCH   4  36
TORSDOF 12
ENDMDL
MODEL      156
REMARK 921   NORMALIZED FREE ENERGY PREDICTED BY IDOCK:   -0.61 KCAL/MOL
REMARK 922        TOTAL FREE ENERGY PREDICTED BY IDOCK:   -2.23 KCAL/MOL
REMARK 923 INTER-LIGAND FREE ENERGY PREDICTED BY IDOCK:   -5.89 KCAL/MOL
REMARK 924 INTRA-LIGAND FREE ENERGY PREDICTED BY IDOCK:    3.66 KCAL/MOL
REMARK 927      BINDING AFFINITY PREDICTED BY RF-SCORE:    0.00 PKD
ROOT
HETATM    1  C   UNL     1     -10.537  17.308  67.067  1.00  0.00    -0.231 C  
HETATM    2  C   UNL     1     -10.383  15.825  67.259  1.00  0.00    -0.290 C  
HETATM    3  O   UNL     1     -10.916  15.046  66.465  1.00  0.00    -0.321 OA 
HETATM    4  N   UNL     1      -9.639  15.390  68.359  1.00  0.00    -0.197 N  
ENDROOT
BRANCH   4   5
HETATM    5  C   UNL     1      -9.449  13.975  68.483  1.00  0.00    -0.191 A  
HETATM    6  C   UNL     1      -9.236  11.178  68.368  1.00  0.00    -0.175 A  
HETATM    7  C   UNL     1      -8.250  13.381  68.005  1.00  0.00    -0.161 A  
HETATM    8  C   UNL     1     -10.478  13.167  69.029  1.00  0.00    -0.002 A  
HETATM    9  I   UNL     1     -12.165  14.145  69.981  1.00  0.00    -0.319 I  
HETATM   10  I   UNL     1      -6.630  14.709  67.456  1.00  0.00     0.348 I  
HETATM   11  C   UNL     1     -10.389  11.758  68.964  1.00  0.00    -0.087 A  
HETATM   12  I   UNL     1      -9.272   9.059  67.873  1.00  0.00    -0.165 I  
HETATM   13  C   UNL     1      -8.130  11.978  67.942  1.00  0.00    -0.150 A  
BRANCH  11  14
HETATM   14  C   UNL     1     -11.558  10.933  69.395  1.00  0.00    -0.316 C  
HETATM   15  O   UNL     1     -12.612  10.975  68.769  1.00  0.00    -0.350 OA 
HETATM   16  N   UNL     1     -11.387  10.143  70.510  1.00  0.00    -0.316 N  
HETATM   17  H   UNL     1     -10.482  10.129  70.980  1.00  0.00     0.000 HD 
BRANCH  16  18
HETATM   18  C   UNL     1     -12.480   9.323  71.031  1.00  0.00    -0.211 C  
BRANCH  18  19
HETATM   19  C   UNL     1     -11.963   8.117  71.822  1.00  0.00    -0.305 C  
HETATM   20  H   UNL     1     -12.112   6.161  71.693  1.00  0.00     0.000 HD 
HETATM   21  O   UNL     1     -12.433   6.909  71.203  1.00  0.00    -0.378 OA 
BRANCH  19  22
HETATM   22  C   UNL     1     -10.430   8.118  71.911  1.00  0.00    -0.248 C  
HETATM   23  O   UNL     1      -9.969   7.284  72.973  1.00  0.00    -0.186 OA 
HETATM   24  H   UNL     1      -9.021   7.285  73.029  1.00  0.00     0.000 HD 
ENDBRANCH  19  22
ENDBRANCH  18  19
ENDBRANCH  16  18
ENDBRANCH  11  14
BRANCH  13  25
HETATM   25  C   UNL     1      -6.859  11.302  67.515  1.00  0.00    -0.086 C  
HETATM   26  O   UNL     1      -5.794  11.900  67.625  1.00  0.00    -0.062 OA 
HETATM   27  H   UNL     1      -7.822   9.529  66.966  1.00  0.00     0.000 HD 
HETATM   28  N   UNL     1      -6.929  10.021  66.998  1.00  0.00    -0.087 N  
BRANCH  28  29
HETATM   29  C   UNL     1      -5.719   9.376  66.501  1.00  0.00    -0.054 C  
BRANCH  29  30
HETATM   30  C   UNL     1      -5.808   9.013  65.012  1.00  0.00    -0.059 C  
HETATM   31  H   UNL     1      -7.233   8.518  63.748  1.00  0.00     0.000 HD 
HETATM   32  O   UNL     1      -7.178   8.743  64.669  1.00  0.00    -0.092 OA 
BRANCH  30  33
HETATM   33  C   UNL     1      -5.258  10.146  64.131  1.00  0.00    -0.108 C  
HETATM   34  O   UNL     1      -6.309  10.929  63.569  1.00  0.00    -0.360 OA 
HETATM   35  H   UNL     1      -5.970  11.630  63.025  1.00  0.00     0.000 HD 
ENDBRANCH  30  33
ENDBRANCH  29  30
ENDBRANCH  28  29
ENDBRANCH  13  25
ENDBRANCH   4   5
BRANCH   4  36
HETATM   36  C   UNL     1      -8.997  16.282  69.366  1.00  0.00    -0.071 C  
BRANCH  36  37
HETATM   37  C   UNL     1      -8.139  17.459  68.831  1.00  0.00    -0.183 C  
HETATM   38  O   UNL     1      -8.706  18.742  69.136  1.00  0.00    -0.149 OA 
HETATM   39  H   UNL     1      -8.180  19.463  68.808  1.00  0.00     0.000 HD 
BRANCH  37  40
HETATM   40  C   UNL     1      -6.708  17.473  69.381  1.00  0.00    -0.179 C  
HETATM   41  O   UNL     1      -5.784  17.661  68.303  1.00  0.00    -0.152 OA 
HETATM   42  H   UNL     1      -4.898  17.670  68.644  1.00  0.00     0.000 HD 
ENDBRANCH  37  40
ENDBRANCH  36  37
ENDBRANCH   4  36
TORSDOF 12
ENDMDL
MODEL      157
REMARK 921   NORMALIZED FREE ENERGY PREDICTED BY IDOCK:   -0.56 KCAL/MOL
REMARK 922        TOTAL FREE ENERGY PREDICTED BY IDOCK:   -2.16 KCAL/MOL
REMARK 923 INTER-LIGAND FREE ENERGY PREDICTED BY IDOCK:   -4.03 KCAL/MOL
REMARK 924 INTRA-LIGAND FREE ENERGY PREDICTED BY IDOCK:    1.87 KCAL/MOL
REMARK 927      BINDING AFFINITY PREDICTED BY RF-SCORE:    0.00 PKD
ROOT
HETATM    1  C   UNL     1     -11.493   6.013  66.686  1.00  0.00     0.538 C  
HETATM    2  C   UNL     1     -10.203   6.646  67.131  1.00  0.00    -0.213 C  
HETATM    3  O   UNL     1      -9.201   6.560  66.416  1.00  0.00    -0.155 OA 
HETATM    4  N   UNL     1     -10.198   7.301  68.365  1.00  0.00    -0.175 N  
ENDROOT
BRANCH   4   5
HETATM    5  C   UNL     1      -8.977   7.954  68.737  1.00  0.00    -0.141 A  
HETATM    6  C   UNL     1      -6.795   9.400  69.751  1.00  0.00    -0.055 A  
HETATM    7  C   UNL     1      -8.120   7.350  69.694  1.00  0.00    -0.128 A  
HETATM    8  C   UNL     1      -8.658   9.223  68.191  1.00  0.00    -0.125 A  
HETATM    9  I   UNL     1      -9.859   9.973  66.547  1.00  0.00    -0.300 I  
HETATM   10  I   UNL     1      -8.537   5.300  70.253  1.00  0.00    -0.152 I  
HETATM   11  C   UNL     1      -7.571   9.967  68.703  1.00  0.00    -0.080 A  
HETATM   12  I   UNL     1      -5.409  10.681  70.834  1.00  0.00    -0.046 I  
HETATM   13  C   UNL     1      -7.020   8.065  70.212  1.00  0.00    -0.044 A  
BRANCH  11  14
HETATM   14  C   UNL     1      -7.357  11.367  68.227  1.00  0.00    -0.089 C  
HETATM   15  O   UNL     1      -6.638  11.591  67.260  1.00  0.00    -0.089 OA 
HETATM   16  N   UNL     1      -7.999  12.367  68.923  1.00  0.00    -0.335 N  
HETATM   17  H   UNL     1      -8.604  12.123  69.707  1.00  0.00     0.000 HD 
BRANCH  16  18
HETATM   18  C   UNL     1      -7.829  13.773  68.556  1.00  0.00    -0.132 C  
BRANCH  18  19
HETATM   19  C   UNL     1      -9.019  14.300  67.746  1.00  0.00    -0.188 C  
HETATM   20  H   UNL     1     -10.783  15.068  68.145  1.00  0.00     0.000 HD 
HETATM   21  O   UNL     1     -10.046  14.742  68.647  1.00  0.00    -0.224 OA 
BRANCH  19  22
HETATM   22  C   UNL     1      -8.598  15.438  66.804  1.00  0.00    -0.273 C  
HETATM   23  O   UNL     1      -8.387  16.655  67.520  1.00  0.00    -0.172 OA 
HETATM   24  H   UNL     1      -8.127  17.359  66.937  1.00  0.00     0.000 HD 
ENDBRANCH  19  22
ENDBRANCH  18  19
ENDBRANCH  16  18
ENDBRANCH  11  14
BRANCH  13  25
HETATM   25  C   UNL     1      -6.043   7.446  71.168  1.00  0.00    -0.036 C  
HETATM   26  O   UNL     1      -5.127   8.127  71.617  1.00  0.00    -0.033 OA 
HETATM   27  H   UNL     1      -7.000   5.587  71.163  1.00  0.00     0.000 HD 
HETATM   28  N   UNL     1      -6.200   6.115  71.511  1.00  0.00    -0.043 N  
BRANCH  28  29
HETATM   29  C   UNL     1      -5.217   5.470  72.374  1.00  0.00    -0.017 C  
BRANCH  29  30
HETATM   30  C   UNL     1      -5.770   4.224  73.079  1.00  0.00    -0.008 C  
HETATM   31  H   UNL     1      -7.461   3.709  73.944  1.00  0.00     0.000 HD 
HETATM   32  O   UNL     1      -7.118   4.479  73.508  1.00  0.00    -0.064 OA 
BRANCH  30  33
HETATM   33  C   UNL     1      -5.737   3.000  72.148  1.00  0.00    -0.008 C  
HETATM   34  O   UNL     1      -6.782   2.080  72.458  1.00  0.00    -0.017 OA 
HETATM   35  H   UNL     1      -6.761   1.323  71.884  1.00  0.00     0.000 HD 
ENDBRANCH  30  33
ENDBRANCH  29  30
ENDBRANCH  28  29
ENDBRANCH  13  25
ENDBRANCH   4   5
BRANCH   4  36
HETATM   36  C   UNL     1     -11.367   7.411  69.282  1.00  0.00     0.226 C  
BRANCH  36  37
HETATM   37  C   UNL     1     -11.397   8.617  70.258  1.00  0.00    -0.136 C  
HETATM   38  O   UNL     1     -11.771   9.844  69.614  1.00  0.00    -0.440 OA 
HETATM   39  H   UNL     1     -11.789  10.582  70.212  1.00  0.00     0.000 HD 
BRANCH  37  40
HETATM   40  C   UNL     1     -12.363   8.430  71.433  1.00  0.00    -0.299 C  
HETATM   41  O   UNL     1     -13.675   8.850  71.045  1.00  0.00    -0.574 OA 
HETATM   42  H   UNL     1     -14.273   8.734  71.774  1.00  0.00     0.000 HD 
ENDBRANCH  37  40
ENDBRANCH  36  37
ENDBRANCH   4  36
TORSDOF 12
ENDMDL
MODEL      158
REMARK 921   NORMALIZED FREE ENERGY PREDICTED BY IDOCK:   -0.53 KCAL/MOL
REMARK 922        TOTAL FREE ENERGY PREDICTED BY IDOCK:   -2.11 KCAL/MOL
REMARK 923 INTER-LIGAND FREE ENERGY PREDICTED BY IDOCK:   -4.15 KCAL/MOL
REMARK 924 INTRA-LIGAND FREE ENERGY PREDICTED BY IDOCK:    2.04 KCAL/MOL
REMARK 927      BINDING AFFINITY PREDICTED BY RF-SCORE:    0.00 PKD
ROOT
HETATM    1  C   UNL     1     -14.212  11.636  71.854  1.00  0.00     1.311 C  
HETATM    2  C   UNL     1     -13.143  11.281  70.857  1.00  0.00    -0.008 C  
HETATM    3  O   UNL     1     -13.219  10.222  70.229  1.00  0.00    -0.144 OA 
HETATM    4  N   UNL     1     -12.084  12.181  70.699  1.00  0.00    -0.331 N  
ENDROOT
BRANCH   4   5
HETATM    5  C   UNL     1     -11.114  11.854  69.696  1.00  0.00    -0.037 A  
HETATM    6  C   UNL     1      -8.963  11.429  67.942  1.00  0.00    -0.153 A  
HETATM    7  C   UNL     1     -10.288  10.710  69.862  1.00  0.00    -0.026 A  
HETATM    8  C   UNL     1     -10.943  12.701  68.572  1.00  0.00    -0.261 A  
HETATM    9  I   UNL     1     -12.399  14.275  68.233  1.00  0.00     0.743 I  
HETATM   10  I   UNL     1     -10.808   9.327  71.445  1.00  0.00    -0.269 I  
HETATM   11  C   UNL     1      -9.856  12.507  67.690  1.00  0.00    -0.202 A  
HETATM   12  I   UNL     1      -7.069  11.372  66.872  1.00  0.00    -0.057 I  
HETATM   13  C   UNL     1      -9.204  10.485  68.989  1.00  0.00    -0.193 A  
BRANCH  11  14
HETATM   14  C   UNL     1      -9.603  13.510  66.612  1.00  0.00    -0.278 C  
HETATM   15  O   UNL     1      -9.922  13.270  65.453  1.00  0.00    -0.266 OA 
HETATM   16  N   UNL     1      -9.005  14.692  66.989  1.00  0.00    -0.228 N  
HETATM   17  H   UNL     1      -8.780  14.849  67.971  1.00  0.00     0.000 HD 
BRANCH  16  18
HETATM   18  C   UNL     1      -8.686  15.726  66.004  1.00  0.00    -0.134 C  
BRANCH  18  19
HETATM   19  C   UNL     1      -8.208  17.020  66.669  1.00  0.00    -0.260 C  
HETATM   20  H   UNL     1      -7.416  18.717  66.073  1.00  0.00     0.000 HD 
HETATM   21  O   UNL     1      -7.713  17.915  65.660  1.00  0.00    -0.541 OA 
BRANCH  19  22
HETATM   22  C   UNL     1      -9.331  17.686  67.478  1.00  0.00    -0.248 C  
HETATM   23  O   UNL     1     -10.607  17.139  67.145  1.00  0.00    -0.313 OA 
HETATM   24  H   UNL     1     -11.302  17.551  67.646  1.00  0.00     0.000 HD 
ENDBRANCH  19  22
ENDBRANCH  18  19
ENDBRANCH  16  18
ENDBRANCH  11  14
BRANCH  13  25
HETATM   25  C   UNL     1      -8.348   9.255  69.077  1.00  0.00    -0.123 C  
HETATM   26  O   UNL     1      -8.624   8.280  68.386  1.00  0.00    -0.131 OA 
HETATM   27  H   UNL     1      -7.037  10.098  70.471  1.00  0.00     0.000 HD 
HETATM   28  N   UNL     1      -7.272   9.255  69.947  1.00  0.00    -0.063 N  
BRANCH  28  29
HETATM   29  C   UNL     1      -6.476   8.044  70.110  1.00  0.00    -0.036 C  
BRANCH  29  30
HETATM   30  C   UNL     1      -6.262   7.668  71.583  1.00  0.00    -0.035 C  
HETATM   31  H   UNL     1      -6.683   8.462  73.333  1.00  0.00     0.000 HD 
HETATM   32  O   UNL     1      -6.815   8.695  72.422  1.00  0.00    -0.174 OA 
BRANCH  30  33
HETATM   33  C   UNL     1      -6.913   6.313  71.909  1.00  0.00    -0.077 C  
HETATM   34  O   UNL     1      -8.294   6.463  72.237  1.00  0.00    -0.108 OA 
HETATM   35  H   UNL     1      -8.696   5.626  72.439  1.00  0.00     0.000 HD 
ENDBRANCH  30  33
ENDBRANCH  29  30
ENDBRANCH  28  29
ENDBRANCH  13  25
ENDBRANCH   4   5
BRANCH   4  36
HETATM   36  C   UNL     1     -11.925  13.457  71.449  1.00  0.00     0.476 C  
BRANCH  36  37
HETATM   37  C   UNL     1     -13.185  14.037  72.147  1.00  0.00    -0.435 C  
HETATM   38  O   UNL     1     -13.001  14.223  73.558  1.00  0.00    -0.494 OA 
HETATM   39  H   UNL     1     -13.772  14.578  73.985  1.00  0.00     0.000 HD 
BRANCH  37  40
HETATM   40  C   UNL     1     -13.629  15.390  71.582  1.00  0.00    -0.509 C  
HETATM   41  O   UNL     1     -12.537  16.314  71.640  1.00  0.00    -0.550 OA 
HETATM   42  H   UNL     1     -12.813  17.153  71.291  1.00  0.00     0.000 HD 
ENDBRANCH  37  40
ENDBRANCH  36  37
ENDBRANCH   4  36
TORSDOF 12
ENDMDL
MODEL      159
REMARK 921   NORMALIZED FREE ENERGY PREDICTED BY IDOCK:   -0.50 KCAL/MOL
REMARK 922        TOTAL FREE ENERGY PREDICTED BY IDOCK:   -2.05 KCAL/MOL
REMARK 923 INTER-LIGAND FREE ENERGY PREDICTED BY IDOCK:   -3.30 KCAL/MOL
REMARK 924 INTRA-LIGAND FREE ENERGY PREDICTED BY IDOCK:    1.25 KCAL/MOL
REMARK 927      BINDING AFFINITY PREDICTED BY RF-SCORE:    0.00 PKD
ROOT
HETATM    1  C   UNL     1      -5.780  12.028  65.979  1.00  0.00     1.268 C  
HETATM    2  C   UNL     1      -6.901  11.517  66.842  1.00  0.00    -0.138 C  
HETATM    3  O   UNL     1      -7.775  10.799  66.348  1.00  0.00    -0.134 OA 
HETATM    4  N   UNL     1      -6.906  11.899  68.186  1.00  0.00    -0.067 N  
ENDROOT
BRANCH   4   5
HETATM    5  C   UNL     1      -7.945  11.345  69.003  1.00  0.00    -0.024 A  
HETATM    6  C   UNL     1     -10.085  10.056  70.285  1.00  0.00    -0.168 A  
HETATM    7  C   UNL     1      -7.713  10.138  69.714  1.00  0.00    -0.168 A  
HETATM    8  C   UNL     1      -9.217  11.971  69.054  1.00  0.00     0.342 A  
HETATM    9  I   UNL     1      -9.436  13.940  68.169  1.00  0.00    -0.190 I  
HETATM   10  I   UNL     1      -5.674   9.413  69.808  1.00  0.00    -0.034 I  
HETATM   11  C   UNL     1     -10.305  11.325  69.684  1.00  0.00     0.173 A  
HETATM   12  I   UNL     1     -11.810   8.866  70.870  1.00  0.00    -0.140 I  
HETATM   13  C   UNL     1      -8.778   9.480  70.363  1.00  0.00    -0.265 A  
BRANCH  11  14
HETATM   14  C   UNL     1     -11.668  11.927  69.580  1.00  0.00    -0.343 C  
HETATM   15  O   UNL     1     -12.531  11.396  68.889  1.00  0.00    -0.386 OA 
HETATM   16  N   UNL     1     -11.894  13.086  70.290  1.00  0.00    -0.532 N  
HETATM   17  H   UNL     1     -11.148  13.473  70.867  1.00  0.00     0.000 HD 
BRANCH  16  18
HETATM   18  C   UNL     1     -13.186  13.770  70.229  1.00  0.00     0.448 C  
BRANCH  18  19
HETATM   19  C   UNL     1     -13.895  13.772  71.587  1.00  0.00    -0.238 C  
HETATM   20  H   UNL     1     -14.105  12.517  73.085  1.00  0.00     0.000 HD 
HETATM   21  O   UNL     1     -13.665  12.515  72.243  1.00  0.00    -0.482 OA 
BRANCH  19  22
HETATM   22  C   UNL     1     -13.420  14.937  72.469  1.00  0.00    -0.446 C  
HETATM   23  O   UNL     1     -13.373  16.160  71.735  1.00  0.00    -0.352 OA 
HETATM   24  H   UNL     1     -13.079  16.880  72.280  1.00  0.00     0.000 HD 
ENDBRANCH  19  22
ENDBRANCH  18  19
ENDBRANCH  16  18
ENDBRANCH  11  14
BRANCH  13  25
HETATM   25  C   UNL     1      -8.571   8.243  71.188  1.00  0.00    -0.142 C  
HETATM   26  O   UNL     1      -8.415   8.348  72.400  1.00  0.00    -0.174 OA 
HETATM   27  H   UNL     1      -8.738   6.953  69.551  1.00  0.00     0.000 HD 
HETATM   28  N   UNL     1      -8.554   7.015  70.552  1.00  0.00    -0.140 N  
BRANCH  28  29
HETATM   29  C   UNL     1      -8.273   5.807  71.321  1.00  0.00    -0.122 C  
BRANCH  29  30
HETATM   30  C   UNL     1      -7.069   5.025  70.778  1.00  0.00    -0.056 C  
HETATM   31  H   UNL     1      -5.884   3.597  71.433  1.00  0.00     0.000 HD 
HETATM   32  O   UNL     1      -6.629   4.081  71.768  1.00  0.00    -0.021 OA 
BRANCH  30  33
HETATM   33  C   UNL     1      -7.426   4.293  69.474  1.00  0.00    -0.054 C  
HETATM   34  O   UNL     1      -6.540   4.650  68.414  1.00  0.00    -0.043 OA 
HETATM   35  H   UNL     1      -6.760   4.198  67.609  1.00  0.00     0.000 HD 
ENDBRANCH  30  33
ENDBRANCH  29  30
ENDBRANCH  28  29
ENDBRANCH  13  25
ENDBRANCH   4   5
BRANCH   4  36
HETATM   36  C   UNL     1      -5.896  12.785  68.829  1.00  0.00    -0.069 C  
BRANCH  36  37
HETATM   37  C   UNL     1      -5.594  14.141  68.137  1.00  0.00    -0.123 C  
HETATM   38  O   UNL     1      -6.730  14.673  67.440  1.00  0.00    -0.254 OA 
HETATM   39  H   UNL     1      -6.546  15.504  67.017  1.00  0.00     0.000 HD 
BRANCH  37  40
HETATM   40  C   UNL     1      -5.127  15.233  69.107  1.00  0.00    -0.095 C  
HETATM   41  O   UNL     1      -5.549  14.904  70.435  1.00  0.00    -0.124 OA 
HETATM   42  H   UNL     1      -5.260  15.581  71.036  1.00  0.00     0.000 HD 
ENDBRANCH  37  40
ENDBRANCH  36  37
ENDBRANCH   4  36
TORSDOF 12
ENDMDL
MODEL      160
REMARK 921   NORMALIZED FREE ENERGY PREDICTED BY IDOCK:   -0.27 KCAL/MOL
REMARK 922        TOTAL FREE ENERGY PREDICTED BY IDOCK:   -1.65 KCAL/MOL
REMARK 923 INTER-LIGAND FREE ENERGY PREDICTED BY IDOCK:   -3.64 KCAL/MOL
REMARK 924 INTRA-LIGAND FREE ENERGY PREDICTED BY IDOCK:    1.99 KCAL/MOL
REMARK 927      BINDING AFFINITY PREDICTED BY RF-SCORE:    0.00 PKD
ROOT
HETATM    1  C   UNL     1      -9.109  19.959  66.026  1.00  0.00    -0.321 C  
HETATM    2  C   UNL     1      -9.575  18.722  66.744  1.00  0.00    -0.321 C  
HETATM    3  O   UNL     1     -10.701  18.272  66.520  1.00  0.00    -0.321 OA 
HETATM    4  N   UNL     1      -8.696  18.139  67.661  1.00  0.00    -0.246 N  
ENDROOT
BRANCH   4   5
HETATM    5  C   UNL     1      -9.135  16.924  68.282  1.00  0.00    -0.235 A  
HETATM    6  C   UNL     1     -10.274  14.538  69.224  1.00  0.00    -0.109 A  
HETATM    7  C   UNL     1      -8.630  15.678  67.826  1.00  0.00    -0.162 A  
HETATM    8  C   UNL     1     -10.112  16.966  69.309  1.00  0.00    -0.227 A  
HETATM    9  I   UNL     1     -10.650  18.896  70.145  1.00  0.00     3.295 I  
HETATM   10  I   UNL     1      -6.945  15.723  66.467  1.00  0.00     2.046 I  
HETATM   11  C   UNL     1     -10.703  15.773  69.781  1.00  0.00    -0.317 A  
HETATM   12  I   UNL     1     -11.455  12.751  69.614  1.00  0.00    -0.017 I  
HETATM   13  C   UNL     1      -9.193  14.471  68.291  1.00  0.00    -0.201 A  
BRANCH  11  14
HETATM   14  C   UNL     1     -11.845  15.855  70.742  1.00  0.00    -0.391 C  
HETATM   15  O   UNL     1     -11.694  16.374  71.842  1.00  0.00    -0.493 OA 
HETATM   16  N   UNL     1     -13.047  15.327  70.328  1.00  0.00    -0.678 N  
HETATM   17  H   UNL     1     -13.123  14.926  69.392  1.00  0.00     0.000 HD 
BRANCH  16  18
HETATM   18  C   UNL     1     -14.217  15.330  71.206  1.00  0.00    -0.402 C  
BRANCH  18  19
HETATM   19  C   UNL     1     -14.128  14.241  72.280  1.00  0.00    -0.526 C  
HETATM   20  H   UNL     1     -13.462  12.395  72.383  1.00  0.00     0.000 HD 
HETATM   21  O   UNL     1     -13.517  13.070  71.717  1.00  0.00    -0.402 OA 
BRANCH  19  22
HETATM   22  C   UNL     1     -13.341  14.724  73.507  1.00  0.00     0.230 C  
HETATM   23  O   UNL     1     -13.598  16.101  73.782  1.00  0.00    -0.902 OA 
HETATM   24  H   UNL     1     -13.111  16.400  74.541  1.00  0.00     0.000 HD 
ENDBRANCH  19  22
ENDBRANCH  18  19
ENDBRANCH  16  18
ENDBRANCH  11  14
BRANCH  13  25
HETATM   25  C   UNL     1      -8.646  13.130  67.897  1.00  0.00    -0.185 C  
HETATM   26  O   UNL     1      -7.658  12.690  68.475  1.00  0.00    -0.126 OA 
HETATM   27  H   UNL     1     -10.122  12.797  66.453  1.00  0.00     0.000 HD 
HETATM   28  N   UNL     1      -9.272  12.429  66.881  1.00  0.00    -0.203 N  
BRANCH  28  29
HETATM   29  C   UNL     1      -8.712  11.163  66.425  1.00  0.00    -0.177 C  
BRANCH  29  30
HETATM   30  C   UNL     1      -9.733  10.297  65.675  1.00  0.00    -0.247 C  
HETATM   31  H   UNL     1     -11.388  10.604  64.657  1.00  0.00     0.000 HD 
HETATM   32  O   UNL     1     -10.757  11.140  65.121  1.00  0.00    -0.273 OA 
BRANCH  30  33
HETATM   33  C   UNL     1      -9.056   9.486  64.556  1.00  0.00    -0.197 C  
HETATM   34  O   UNL     1      -9.671   9.726  63.292  1.00  0.00    -0.511 OA 
HETATM   35  H   UNL     1      -9.254   9.226  62.601  1.00  0.00     0.000 HD 
ENDBRANCH  30  33
ENDBRANCH  29  30
ENDBRANCH  28  29
ENDBRANCH  13  25
ENDBRANCH   4   5
BRANCH   4  36
HETATM   36  C   UNL     1      -7.338  18.654  67.993  1.00  0.00    -0.249 C  
BRANCH  36  37
HETATM   37  C   UNL     1      -7.255  19.944  68.852  1.00  0.00    -0.258 C  
HETATM   38  O   UNL     1      -6.965  19.674  70.232  1.00  0.00    -0.052 OA 
HETATM   39  H   UNL     1      -6.914  20.464  70.757  1.00  0.00     0.000 HD 
BRANCH  37  40
HETATM   40  C   UNL     1      -6.190  20.934  68.368  1.00  0.00    -0.288 C  
HETATM   41  O   UNL     1      -5.143  20.221  67.701  1.00  0.00    -0.175 OA 
HETATM   42  H   UNL     1      -4.483  20.835  67.401  1.00  0.00     0.000 HD 
ENDBRANCH  37  40
ENDBRANCH  36  37
ENDBRANCH   4  36
TORSDOF 12
ENDMDL
MODEL      161
REMARK 921   NORMALIZED FREE ENERGY PREDICTED BY IDOCK:   -0.15 KCAL/MOL
REMARK 922        TOTAL FREE ENERGY PREDICTED BY IDOCK:   -1.45 KCAL/MOL
REMARK 923 INTER-LIGAND FREE ENERGY PREDICTED BY IDOCK:   -1.24 KCAL/MOL
REMARK 924 INTRA-LIGAND FREE ENERGY PREDICTED BY IDOCK:   -0.21 KCAL/MOL
REMARK 927      BINDING AFFINITY PREDICTED BY RF-SCORE:    0.00 PKD
ROOT
HETATM    1  C   UNL     1     -12.516  10.753  66.021  1.00  0.00     4.805 C  
HETATM    2  C   UNL     1     -11.185  11.219  66.544  1.00  0.00    -0.152 C  
HETATM    3  O   UNL     1     -10.265  11.453  65.756  1.00  0.00    -0.231 OA 
HETATM    4  N   UNL     1     -11.046  11.353  67.929  1.00  0.00    -0.240 N  
ENDROOT
BRANCH   4   5
HETATM    5  C   UNL     1      -9.792  11.863  68.398  1.00  0.00    -0.201 A  
HETATM    6  C   UNL     1      -7.218  12.841  68.945  1.00  0.00    -0.039 A  
HETATM    7  C   UNL     1      -9.562  13.264  68.412  1.00  0.00    -0.185 A  
HETATM    8  C   UNL     1      -8.766  10.967  68.794  1.00  0.00    -0.158 A  
HETATM    9  I   UNL     1      -9.257   8.863  69.005  1.00  0.00    -0.142 I  
HETATM   10  I   UNL     1     -11.265  14.557  68.069  1.00  0.00    -0.365 I  
HETATM   11  C   UNL     1      -7.463  11.445  69.057  1.00  0.00    -0.093 A  
HETATM   12  I   UNL     1      -5.157  13.539  68.921  1.00  0.00    -0.076 I  
HETATM   13  C   UNL     1      -8.274  13.769  68.685  1.00  0.00    -0.077 A  
BRANCH  11  14
HETATM   14  C   UNL     1      -6.364  10.465  69.309  1.00  0.00    -0.048 C  
HETATM   15  O   UNL     1      -5.671  10.057  68.383  1.00  0.00    -0.042 OA 
HETATM   16  N   UNL     1      -6.179  10.057  70.611  1.00  0.00    -0.100 N  
HETATM   17  H   UNL     1      -6.769  10.445  71.347  1.00  0.00     0.000 HD 
BRANCH  16  18
HETATM   18  C   UNL     1      -5.150   9.076  70.957  1.00  0.00    -0.028 C  
BRANCH  18  19
HETATM   19  C   UNL     1      -5.748   7.828  71.616  1.00  0.00    -0.035 C  
HETATM   20  H   UNL     1      -7.089   7.457  73.004  1.00  0.00     0.000 HD 
HETATM   21  O   UNL     1      -6.718   8.230  72.596  1.00  0.00    -0.084 OA 
BRANCH  19  22
HETATM   22  C   UNL     1      -6.384   6.894  70.576  1.00  0.00    -0.042 C  
HETATM   23  O   UNL     1      -6.597   5.588  71.111  1.00  0.00    -0.040 OA 
HETATM   24  H   UNL     1      -6.990   5.010  70.468  1.00  0.00     0.000 HD 
ENDBRANCH  19  22
ENDBRANCH  18  19
ENDBRANCH  16  18
ENDBRANCH  11  14
BRANCH  13  25
HETATM   25  C   UNL     1      -7.996  15.241  68.784  1.00  0.00    -0.158 C  
HETATM   26  O   UNL     1      -7.840  15.750  69.888  1.00  0.00    -0.024 OA 
HETATM   27  H   UNL     1      -8.016  15.526  66.712  1.00  0.00     0.000 HD 
HETATM   28  N   UNL     1      -7.933  15.985  67.620  1.00  0.00    -0.138 N  
BRANCH  28  29
HETATM   29  C   UNL     1      -7.746  17.430  67.695  1.00  0.00    -0.193 C  
BRANCH  29  30
HETATM   30  C   UNL     1      -8.536  18.188  66.619  1.00  0.00    -0.267 C  
HETATM   31  H   UNL     1      -9.164  17.826  64.790  1.00  0.00     0.000 HD 
HETATM   32  O   UNL     1      -8.675  17.356  65.455  1.00  0.00    -0.232 OA 
BRANCH  30  33
HETATM   33  C   UNL     1      -9.924  18.601  67.139  1.00  0.00    -0.331 C  
HETATM   34  O   UNL     1     -10.718  19.181  66.105  1.00  0.00    -0.421 OA 
HETATM   35  H   UNL     1     -11.574  19.437  66.426  1.00  0.00     0.000 HD 
ENDBRANCH  30  33
ENDBRANCH  29  30
ENDBRANCH  28  29
ENDBRANCH  13  25
ENDBRANCH   4   5
BRANCH   4  36
HETATM   36  C   UNL     1     -12.110  11.058  68.929  1.00  0.00    -0.169 C  
BRANCH  36  37
HETATM   37  C   UNL     1     -11.760  11.269  70.426  1.00  0.00    -0.304 C  
HETATM   38  O   UNL     1     -11.683  12.657  70.787  1.00  0.00    -0.406 OA 
HETATM   39  H   UNL     1     -11.469  12.786  71.704  1.00  0.00     0.000 HD 
BRANCH  37  40
HETATM   40  C   UNL     1     -12.763  10.624  71.387  1.00  0.00    -0.440 C  
HETATM   41  O   UNL     1     -13.275  11.617  72.282  1.00  0.00    -0.581 OA 
HETATM   42  H   UNL     1     -13.896  11.216  72.878  1.00  0.00     0.000 HD 
ENDBRANCH  37  40
ENDBRANCH  36  37
ENDBRANCH   4  36
TORSDOF 12
ENDMDL
MODEL      162
REMARK 921   NORMALIZED FREE ENERGY PREDICTED BY IDOCK:   -0.07 KCAL/MOL
REMARK 922        TOTAL FREE ENERGY PREDICTED BY IDOCK:   -1.31 KCAL/MOL
REMARK 923 INTER-LIGAND FREE ENERGY PREDICTED BY IDOCK:   -3.49 KCAL/MOL
REMARK 924 INTRA-LIGAND FREE ENERGY PREDICTED BY IDOCK:    2.18 KCAL/MOL
REMARK 927      BINDING AFFINITY PREDICTED BY RF-SCORE:    0.00 PKD
ROOT
HETATM    1  C   UNL     1      -8.708  18.166  68.097  1.00  0.00    -0.285 C  
HETATM    2  C   UNL     1      -9.042  16.708  67.939  1.00  0.00    -0.218 C  
HETATM    3  O   UNL     1      -9.856  16.356  67.082  1.00  0.00    -0.240 OA 
HETATM    4  N   UNL     1      -8.412  15.804  68.800  1.00  0.00    -0.183 N  
ENDROOT
BRANCH   4   5
HETATM    5  C   UNL     1      -8.695  14.416  68.586  1.00  0.00    -0.164 A  
HETATM    6  C   UNL     1      -9.396  11.807  67.821  1.00  0.00    -0.181 A  
HETATM    7  C   UNL     1      -7.738  13.595  67.931  1.00  0.00    -0.157 A  
HETATM    8  C   UNL     1      -9.948  13.879  68.976  1.00  0.00     0.023 A  
HETATM    9  I   UNL     1     -11.258  15.100  70.202  1.00  0.00    -0.312 I  
HETATM   10  I   UNL     1      -5.758  14.419  67.630  1.00  0.00     0.430 I  
HETATM   11  C   UNL     1     -10.318  12.573  68.585  1.00  0.00    -0.193 A  
HETATM   12  I   UNL     1     -10.099   9.989  66.853  1.00  0.00    -0.300 I  
HETATM   13  C   UNL     1      -8.077  12.283  67.541  1.00  0.00    -0.170 A  
BRANCH  11  14
HETATM   14  C   UNL     1     -11.705  12.093  68.867  1.00  0.00    -0.327 C  
HETATM   15  O   UNL     1     -12.614  12.324  68.077  1.00  0.00     0.200 OA 
HETATM   16  N   UNL     1     -11.897  11.393  70.037  1.00  0.00    -0.333 N  
HETATM   17  H   UNL     1     -11.101  11.210  70.648  1.00  0.00     0.000 HD 
BRANCH  16  18
HETATM   18  C   UNL     1     -13.223  10.908  70.419  1.00  0.00     0.201 C  
BRANCH  18  19
HETATM   19  C   UNL     1     -13.142   9.752  71.421  1.00  0.00    -0.400 C  
HETATM   20  H   UNL     1     -13.791   7.899  71.510  1.00  0.00     0.000 HD 
HETATM   21  O   UNL     1     -13.841   8.616  70.890  1.00  0.00     0.025 OA 
BRANCH  19  22
HETATM   22  C   UNL     1     -11.685   9.388  71.743  1.00  0.00    -0.374 C  
HETATM   23  O   UNL     1     -11.564   8.826  73.049  1.00  0.00     0.202 OA 
HETATM   24  H   UNL     1     -10.663   8.601  73.248  1.00  0.00     0.000 HD 
ENDBRANCH  19  22
ENDBRANCH  18  19
ENDBRANCH  16  18
ENDBRANCH  11  14
BRANCH  13  25
HETATM   25  C   UNL     1      -7.080  11.353  66.913  1.00  0.00    -0.142 C  
HETATM   26  O   UNL     1      -7.119  11.157  65.703  1.00  0.00     0.074 OA 
HETATM   27  H   UNL     1      -6.104  10.955  68.719  1.00  0.00     0.000 HD 
HETATM   28  N   UNL     1      -6.146  10.734  67.724  1.00  0.00    -0.047 N  
BRANCH  28  29
HETATM   29  C   UNL     1      -5.221   9.764  67.150  1.00  0.00    -0.038 C  
BRANCH  29  30
HETATM   30  C   UNL     1      -5.167   8.451  67.944  1.00  0.00    -0.034 C  
HETATM   31  H   UNL     1      -5.359   7.915  69.828  1.00  0.00     0.000 HD 
HETATM   32  O   UNL     1      -5.392   8.727  69.337  1.00  0.00    -0.034 OA 
BRANCH  30  33
HETATM   33  C   UNL     1      -6.215   7.449  67.431  1.00  0.00    -0.047 C  
HETATM   34  O   UNL     1      -6.553   6.488  68.429  1.00  0.00    -0.053 OA 
HETATM   35  H   UNL     1      -7.200   5.869  68.112  1.00  0.00     0.000 HD 
ENDBRANCH  30  33
ENDBRANCH  29  30
ENDBRANCH  28  29
ENDBRANCH  13  25
ENDBRANCH   4   5
BRANCH   4  36
HETATM   36  C   UNL     1      -7.444  16.173  69.871  1.00  0.00     0.415 C  
BRANCH  36  37
HETATM   37  C   UNL     1      -6.019  16.599  69.428  1.00  0.00    -0.184 C  
HETATM   38  O   UNL     1      -6.033  17.621  68.420  1.00  0.00    -0.167 OA 
HETATM   39  H   UNL     1      -5.161  17.881  68.149  1.00  0.00     0.000 HD 
BRANCH  37  40
HETATM   40  C   UNL     1      -5.155  17.132  70.576  1.00  0.00    -0.245 C  
HETATM   41  O   UNL     1      -5.153  16.186  71.651  1.00  0.00    -0.235 OA 
HETATM   42  H   UNL     1      -4.618  16.517  72.363  1.00  0.00     0.000 HD 
ENDBRANCH  37  40
ENDBRANCH  36  37
ENDBRANCH   4  36
TORSDOF 12
ENDMDL
MODEL      163
REMARK 921   NORMALIZED FREE ENERGY PREDICTED BY IDOCK:   -0.04 KCAL/MOL
REMARK 922        TOTAL FREE ENERGY PREDICTED BY IDOCK:   -1.28 KCAL/MOL
REMARK 923 INTER-LIGAND FREE ENERGY PREDICTED BY IDOCK:   -6.24 KCAL/MOL
REMARK 924 INTRA-LIGAND FREE ENERGY PREDICTED BY IDOCK:    4.96 KCAL/MOL
REMARK 927      BINDING AFFINITY PREDICTED BY RF-SCORE:    0.00 PKD
ROOT
HETATM    1  C   UNL     1      -7.956   8.863  69.944  1.00  0.00    -0.108 C  
HETATM    2  C   UNL     1      -8.285  10.244  69.446  1.00  0.00    -0.165 C  
HETATM    3  O   UNL     1      -9.405  10.719  69.653  1.00  0.00     0.002 OA 
HETATM    4  N   UNL     1      -7.290  10.931  68.745  1.00  0.00    -0.095 N  
ENDROOT
BRANCH   4   5
HETATM    5  C   UNL     1      -7.604  12.270  68.339  1.00  0.00    -0.128 A  
HETATM    6  C   UNL     1      -8.500  14.878  67.816  1.00  0.00    -0.154 A  
HETATM    7  C   UNL     1      -6.997  13.367  69.006  1.00  0.00    -0.084 A  
HETATM    8  C   UNL     1      -8.558  12.495  67.315  1.00  0.00    -0.191 A  
HETATM    9  I   UNL     1      -9.250  10.796  66.155  1.00  0.00    -0.245 I  
HETATM   10  I   UNL     1      -5.354  12.933  70.348  1.00  0.00    -0.169 I  
HETATM   11  C   UNL     1      -9.027  13.802  67.052  1.00  0.00    -0.247 A  
HETATM   12  I   UNL     1      -9.504  16.807  67.732  1.00  0.00    -0.239 I  
HETATM   13  C   UNL     1      -7.438  14.683  68.753  1.00  0.00    -0.135 A  
BRANCH  11  14
HETATM   14  C   UNL     1     -10.150  13.992  66.084  1.00  0.00    -0.309 C  
HETATM   15  O   UNL     1      -9.966  14.588  65.029  1.00  0.00    -0.341 OA 
HETATM   16  N   UNL     1     -11.374  13.471  66.440  1.00  0.00    -0.308 N  
HETATM   17  H   UNL     1     -11.467  12.964  67.321  1.00  0.00     0.000 HD 
BRANCH  16  18
HETATM   18  C   UNL     1     -12.544  13.631  65.576  1.00  0.00    -0.496 C  
BRANCH  18  19
HETATM   19  C   UNL     1     -12.352  12.943  64.221  1.00  0.00    -0.385 C  
HETATM   20  H   UNL     1     -13.170  11.435  63.262  1.00  0.00     0.000 HD 
HETATM   21  O   UNL     1     -13.289  11.861  64.103  1.00  0.00    -0.652 OA 
BRANCH  19  22
HETATM   22  C   UNL     1     -12.521  13.934  63.059  1.00  0.00     0.871 C  
HETATM   23  O   UNL     1     -12.349  15.282  63.494  1.00  0.00    -0.786 OA 
HETATM   24  H   UNL     1     -12.454  15.894  62.775  1.00  0.00     0.000 HD 
ENDBRANCH  19  22
ENDBRANCH  18  19
ENDBRANCH  16  18
ENDBRANCH  11  14
BRANCH  13  25
HETATM   25  C   UNL     1      -6.781  15.880  69.376  1.00  0.00    -0.189 C  
HETATM   26  O   UNL     1      -6.488  15.854  70.566  1.00  0.00     0.140 OA 
HETATM   27  H   UNL     1      -6.738  16.962  67.587  1.00  0.00     0.000 HD 
HETATM   28  N   UNL     1      -6.530  16.987  68.585  1.00  0.00    -0.165 N  
BRANCH  28  29
HETATM   29  C   UNL     1      -5.968  18.192  69.186  1.00  0.00    -0.228 C  
BRANCH  29  30
HETATM   30  C   UNL     1      -6.623  19.478  68.664  1.00  0.00    -0.282 C  
HETATM   31  H   UNL     1      -6.344  21.412  68.886  1.00  0.00     0.000 HD 
HETATM   32  O   UNL     1      -5.938  20.617  69.210  1.00  0.00    -0.354 OA 
BRANCH  30  33
HETATM   33  C   UNL     1      -6.592  19.531  67.127  1.00  0.00    -0.194 C  
HETATM   34  O   UNL     1      -7.373  20.614  66.625  1.00  0.00    -0.403 OA 
HETATM   35  H   UNL     1      -7.354  20.647  65.676  1.00  0.00     0.000 HD 
ENDBRANCH  30  33
ENDBRANCH  29  30
ENDBRANCH  28  29
ENDBRANCH  13  25
ENDBRANCH   4   5
BRANCH   4  36
HETATM   36  C   UNL     1      -5.933  10.398  68.439  1.00  0.00    -0.040 C  
BRANCH  36  37
HETATM   37  C   UNL     1      -5.151   9.731  69.603  1.00  0.00    -0.034 C  
HETATM   38  O   UNL     1      -5.650  10.108  70.894  1.00  0.00    -0.072 OA 
HETATM   39  H   UNL     1      -5.172   9.700  71.606  1.00  0.00     0.000 HD 
BRANCH  37  40
HETATM   40  C   UNL     1      -5.173   8.200  69.556  1.00  0.00    -0.026 C  
HETATM   41  O   UNL     1      -5.146   7.681  70.890  1.00  0.00    -0.023 OA 
HETATM   42  H   UNL     1      -5.159   6.732  70.862  1.00  0.00     0.000 HD 
ENDBRANCH  37  40
ENDBRANCH  36  37
ENDBRANCH   4  36
TORSDOF 12
ENDMDL
MODEL      164
REMARK 921   NORMALIZED FREE ENERGY PREDICTED BY IDOCK:   -0.01 KCAL/MOL
REMARK 922        TOTAL FREE ENERGY PREDICTED BY IDOCK:   -1.21 KCAL/MOL
REMARK 923 INTER-LIGAND FREE ENERGY PREDICTED BY IDOCK:   -3.03 KCAL/MOL
REMARK 924 INTRA-LIGAND FREE ENERGY PREDICTED BY IDOCK:    1.82 KCAL/MOL
REMARK 927      BINDING AFFINITY PREDICTED BY RF-SCORE:    0.00 PKD
ROOT
HETATM    1  C   UNL     1     -11.652   7.389  72.681  1.00  0.00    -0.295 C  
HETATM    2  C   UNL     1     -10.871   8.081  71.598  1.00  0.00    -0.237 C  
HETATM    3  O   UNL     1     -11.229   9.192  71.199  1.00  0.00    -0.272 OA 
HETATM    4  N   UNL     1      -9.761   7.411  71.076  1.00  0.00    -0.165 N  
ENDROOT
BRANCH   4   5
HETATM    5  C   UNL     1      -8.993   8.119  70.094  1.00  0.00    -0.146 A  
HETATM    6  C   UNL     1      -7.753   9.790  68.209  1.00  0.00    -0.085 A  
HETATM    7  C   UNL     1      -7.958   8.999  70.509  1.00  0.00    -0.139 A  
HETATM    8  C   UNL     1      -9.304   7.982  68.717  1.00  0.00    -0.147 A  
HETATM    9  I   UNL     1     -10.705   6.434  68.123  1.00  0.00    -0.382 I  
HETATM   10  I   UNL     1      -7.366   8.928  72.591  1.00  0.00     0.741 I  
HETATM   11  C   UNL     1      -8.697   8.827  67.760  1.00  0.00    -0.136 A  
HETATM   12  I   UNL     1      -7.140  11.366  66.840  1.00  0.00    -0.057 I  
HETATM   13  C   UNL     1      -7.327   9.844  69.573  1.00  0.00    -0.102 A  
BRANCH  11  14
HETATM   14  C   UNL     1      -9.164   8.775  66.342  1.00  0.00    -0.189 C  
HETATM   15  O   UNL     1     -10.283   9.174  66.041  1.00  0.00    -0.256 OA 
HETATM   16  N   UNL     1      -8.283   8.264  65.415  1.00  0.00    -0.137 N  
HETATM   17  H   UNL     1      -7.355   7.967  65.715  1.00  0.00     0.000 HD 
BRANCH  16  18
HETATM   18  C   UNL     1      -8.656   8.142  64.005  1.00  0.00     0.219 C  
BRANCH  18  19
HETATM   19  C   UNL     1      -8.204   9.356  63.187  1.00  0.00    -0.165 C  
HETATM   20  H   UNL     1      -8.874  11.171  62.847  1.00  0.00     0.000 HD 
HETATM   21  O   UNL     1      -9.154  10.419  63.354  1.00  0.00    -0.208 OA 
BRANCH  19  22
HETATM   22  C   UNL     1      -6.797   9.818  63.596  1.00  0.00    -0.118 C  
HETATM   23  O   UNL     1      -6.461  11.065  62.988  1.00  0.00    -0.352 OA 
HETATM   24  H   UNL     1      -5.591  11.350  63.241  1.00  0.00     0.000 HD 
ENDBRANCH  19  22
ENDBRANCH  18  19
ENDBRANCH  16  18
ENDBRANCH  11  14
BRANCH  13  25
HETATM   25  C   UNL     1      -6.181  10.737  69.948  1.00  0.00    -0.106 C  
HETATM   26  O   UNL     1      -5.268  10.288  70.633  1.00  0.00    -0.048 OA 
HETATM   27  H   UNL     1      -6.938  12.382  68.902  1.00  0.00     0.000 HD 
HETATM   28  N   UNL     1      -6.191  12.051  69.514  1.00  0.00    -0.106 N  
BRANCH  28  29
HETATM   29  C   UNL     1      -5.130  12.959  69.933  1.00  0.00    -0.085 C  
BRANCH  29  30
HETATM   30  C   UNL     1      -5.650  14.128  70.782  1.00  0.00    -0.173 C  
HETATM   31  H   UNL     1      -7.283  15.222  70.854  1.00  0.00     0.000 HD 
HETATM   32  O   UNL     1      -6.962  14.499  70.329  1.00  0.00    -0.073 OA 
BRANCH  30  33
HETATM   33  C   UNL     1      -5.693  13.754  72.273  1.00  0.00     0.060 C  
HETATM   34  O   UNL     1      -6.848  14.293  72.914  1.00  0.00     0.690 OA 
HETATM   35  H   UNL     1      -6.875  14.063  73.835  1.00  0.00     0.000 HD 
ENDBRANCH  30  33
ENDBRANCH  29  30
ENDBRANCH  28  29
ENDBRANCH  13  25
ENDBRANCH   4   5
BRANCH   4  36
HETATM   36  C   UNL     1      -9.298   6.060  71.497  1.00  0.00    -0.149 C  
BRANCH  36  37
HETATM   37  C   UNL     1      -8.302   5.985  72.685  1.00  0.00    -0.118 C  
HETATM   38  O   UNL     1      -8.928   6.244  73.951  1.00  0.00    -0.126 OA 
HETATM   39  H   UNL     1      -8.318   6.198  74.678  1.00  0.00     0.000 HD 
BRANCH  37  40
HETATM   40  C   UNL     1      -7.602   4.628  72.814  1.00  0.00    -0.087 C  
HETATM   41  O   UNL     1      -8.460   3.599  72.309  1.00  0.00    -0.083 OA 
HETATM   42  H   UNL     1      -8.026   2.758  72.389  1.00  0.00     0.000 HD 
ENDBRANCH  37  40
ENDBRANCH  36  37
ENDBRANCH   4  36
TORSDOF 12
ENDMDL
MODEL      165
REMARK 921   NORMALIZED FREE ENERGY PREDICTED BY IDOCK:    0.00 KCAL/MOL
REMARK 922        TOTAL FREE ENERGY PREDICTED BY IDOCK:   -1.20 KCAL/MOL
REMARK 923 INTER-LIGAND FREE ENERGY PREDICTED BY IDOCK:   -3.97 KCAL/MOL
REMARK 924 INTRA-LIGAND FREE ENERGY PREDICTED BY IDOCK:    2.77 KCAL/MOL
REMARK 927      BINDING AFFINITY PREDICTED BY RF-SCORE:    0.00 PKD
ROOT
HETATM    1  C   UNL     1      -6.948   9.737  64.342  1.00  0.00    -0.126 C  
HETATM    2  C   UNL     1      -8.179   9.896  65.192  1.00  0.00    -0.144 C  
HETATM    3  O   UNL     1      -9.290   9.939  64.658  1.00  0.00    -0.249 OA 
HETATM    4  N   UNL     1      -7.999  10.004  66.574  1.00  0.00    -0.114 N  
ENDROOT
BRANCH   4   5
HETATM    5  C   UNL     1      -9.190  10.087  67.368  1.00  0.00    -0.137 A  
HETATM    6  C   UNL     1     -11.283  10.331  69.223  1.00  0.00    -0.228 A  
HETATM    7  C   UNL     1      -9.845  11.337  67.526  1.00  0.00    -0.178 A  
HETATM    8  C   UNL     1      -9.676   8.935  68.038  1.00  0.00    -0.156 A  
HETATM    9  I   UNL     1      -8.800   7.010  67.553  1.00  0.00    -0.121 I  
HETATM   10  I   UNL     1      -9.206  12.965  66.249  1.00  0.00     0.196 I  
HETATM   11  C   UNL     1     -10.720   9.048  68.984  1.00  0.00    -0.163 A  
HETATM   12  I   UNL     1     -12.569  10.599  70.958  1.00  0.00    -0.531 I  
HETATM   13  C   UNL     1     -10.898  11.474  68.454  1.00  0.00    -0.250 A  
BRANCH  11  14
HETATM   14  C   UNL     1     -11.101   7.852  69.794  1.00  0.00    -0.075 C  
HETATM   15  O   UNL     1     -12.183   7.302  69.619  1.00  0.00     0.488 OA 
HETATM   16  N   UNL     1     -10.187   7.414  70.727  1.00  0.00    -0.197 N  
HETATM   17  H   UNL     1      -9.292   7.895  70.816  1.00  0.00     0.000 HD 
BRANCH  16  18
HETATM   18  C   UNL     1     -10.478   6.271  71.592  1.00  0.00    -0.217 C  
BRANCH  18  19
HETATM   19  C   UNL     1      -9.200   5.560  72.049  1.00  0.00    -0.140 C  
HETATM   20  H   UNL     1      -8.517   4.799  73.727  1.00  0.00     0.000 HD 
HETATM   21  O   UNL     1      -9.310   5.240  73.444  1.00  0.00    -0.134 OA 
BRANCH  19  22
HETATM   22  C   UNL     1      -8.936   4.292  71.222  1.00  0.00    -0.122 C  
HETATM   23  O   UNL     1      -9.247   4.495  69.844  1.00  0.00    -0.105 OA 
HETATM   24  H   UNL     1      -9.084   3.711  69.333  1.00  0.00     0.000 HD 
ENDBRANCH  19  22
ENDBRANCH  18  19
ENDBRANCH  16  18
ENDBRANCH  11  14
BRANCH  13  25
HETATM   25  C   UNL     1     -11.670  12.752  68.605  1.00  0.00    -0.324 C  
HETATM   26  O   UNL     1     -12.703  12.910  67.963  1.00  0.00     0.449 OA 
HETATM   27  H   UNL     1     -10.352  13.545  70.022  1.00  0.00     0.000 HD 
HETATM   28  N   UNL     1     -11.186  13.724  69.462  1.00  0.00    -0.208 N  
BRANCH  28  29
HETATM   29  C   UNL     1     -11.874  15.006  69.563  1.00  0.00    -0.330 C  
BRANCH  29  30
HETATM   30  C   UNL     1     -11.302  15.902  70.671  1.00  0.00    -0.397 C  
HETATM   31  H   UNL     1     -10.918  17.818  70.899  1.00  0.00     0.000 HD 
HETATM   32  O   UNL     1     -11.272  17.264  70.214  1.00  0.00     0.506 OA 
BRANCH  30  33
HETATM   33  C   UNL     1     -12.139  15.796  71.957  1.00  0.00    -0.473 C  
HETATM   34  O   UNL     1     -11.441  15.086  72.978  1.00  0.00    -0.269 OA 
HETATM   35  H   UNL     1     -11.957  15.020  73.772  1.00  0.00     0.000 HD 
ENDBRANCH  30  33
ENDBRANCH  29  30
ENDBRANCH  28  29
ENDBRANCH  13  25
ENDBRANCH   4   5
BRANCH   4  36
HETATM   36  C   UNL     1      -6.683   9.988  67.271  1.00  0.00    -0.074 C  
BRANCH  36  37
HETATM   37  C   UNL     1      -5.711   8.826  66.932  1.00  0.00    -0.045 C  
HETATM   38  O   UNL     1      -5.178   8.190  68.103  1.00  0.00    -0.031 OA 
HETATM   39  H   UNL     1      -4.583   7.479  67.896  1.00  0.00     0.000 HD 
BRANCH  37  40
HETATM   40  C   UNL     1      -6.351   7.719  66.088  1.00  0.00    -0.046 C  
HETATM   41  O   UNL     1      -5.356   6.752  65.735  1.00  0.00    -0.021 OA 
HETATM   42  H   UNL     1      -5.753   6.066  65.211  1.00  0.00     0.000 HD 
ENDBRANCH  37  40
ENDBRANCH  36  37
ENDBRANCH   4  36
TORSDOF 12
ENDMDL
MODEL      166
REMARK 921   NORMALIZED FREE ENERGY PREDICTED BY IDOCK:    0.03 KCAL/MOL
REMARK 922        TOTAL FREE ENERGY PREDICTED BY IDOCK:   -1.14 KCAL/MOL
REMARK 923 INTER-LIGAND FREE ENERGY PREDICTED BY IDOCK:   -5.20 KCAL/MOL
REMARK 924 INTRA-LIGAND FREE ENERGY PREDICTED BY IDOCK:    4.06 KCAL/MOL
REMARK 927      BINDING AFFINITY PREDICTED BY RF-SCORE:    0.00 PKD
ROOT
HETATM    1  C   UNL     1     -13.526  12.514  72.286  1.00  0.00    -0.490 C  
HETATM    2  C   UNL     1     -12.497  13.073  71.342  1.00  0.00    -0.148 C  
HETATM    3  O   UNL     1     -12.023  14.194  71.546  1.00  0.00    -0.272 OA 
HETATM    4  N   UNL     1     -12.129  12.285  70.247  1.00  0.00    -0.336 N  
ENDROOT
BRANCH   4   5
HETATM    5  C   UNL     1     -11.099  12.810  69.400  1.00  0.00    -0.065 A  
HETATM    6  C   UNL     1      -8.906  13.952  68.072  1.00  0.00    -0.184 A  
HETATM    7  C   UNL     1      -9.980  12.001  69.070  1.00  0.00     0.137 A  
HETATM    8  C   UNL     1     -11.172  14.150  68.942  1.00  0.00    -0.267 A  
HETATM    9  I   UNL     1     -13.018  15.249  69.251  1.00  0.00     1.905 I  
HETATM   10  I   UNL     1     -10.089   9.896  69.570  1.00  0.00    -0.292 I  
HETATM   11  C   UNL     1     -10.069  14.740  68.284  1.00  0.00    -0.221 A  
HETATM   12  I   UNL     1      -7.069  14.947  67.463  1.00  0.00     0.007 I  
HETATM   13  C   UNL     1      -8.871  12.561  68.403  1.00  0.00    -0.123 A  
BRANCH  11  14
HETATM   14  C   UNL     1     -10.109  16.198  67.960  1.00  0.00    -0.242 C  
HETATM   15  O   UNL     1     -10.407  16.575  66.832  1.00  0.00    -0.295 OA 
HETATM   16  N   UNL     1      -9.800  17.072  68.978  1.00  0.00    -0.261 N  
HETATM   17  H   UNL     1      -9.580  16.705  69.904  1.00  0.00     0.000 HD 
BRANCH  16  18
HETATM   18  C   UNL     1      -9.779  18.518  68.754  1.00  0.00    -0.357 C  
BRANCH  18  19
HETATM   19  C   UNL     1      -8.353  19.050  68.584  1.00  0.00    -0.361 C  
HETATM   20  H   UNL     1      -6.536  18.389  68.941  1.00  0.00     0.000 HD 
HETATM   21  O   UNL     1      -7.421  18.059  69.046  1.00  0.00    -0.256 OA 
BRANCH  19  22
HETATM   22  C   UNL     1      -8.062  19.427  67.124  1.00  0.00    -0.266 C  
HETATM   23  O   UNL     1      -9.163  19.105  66.274  1.00  0.00    -0.337 OA 
HETATM   24  H   UNL     1      -8.983  19.338  65.371  1.00  0.00     0.000 HD 
ENDBRANCH  19  22
ENDBRANCH  18  19
ENDBRANCH  16  18
ENDBRANCH  11  14
BRANCH  13  25
HETATM   25  C   UNL     1      -7.697  11.733  67.967  1.00  0.00    -0.123 C  
HETATM   26  O   UNL     1      -7.677  11.271  66.832  1.00  0.00    -0.139 OA 
HETATM   27  H   UNL     1      -6.691  11.948  69.788  1.00  0.00     0.000 HD 
HETATM   28  N   UNL     1      -6.672  11.508  68.868  1.00  0.00    -0.078 N  
BRANCH  28  29
HETATM   29  C   UNL     1      -5.561  10.639  68.495  1.00  0.00    -0.040 C  
BRANCH  29  30
HETATM   30  C   UNL     1      -5.294   9.538  69.530  1.00  0.00    -0.035 C  
HETATM   31  H   UNL     1      -5.530   9.319  71.471  1.00  0.00     0.000 HD 
HETATM   32  O   UNL     1      -5.695  10.000  70.831  1.00  0.00    -0.074 OA 
BRANCH  30  33
HETATM   33  C   UNL     1      -6.051   8.247  69.174  1.00  0.00    -0.039 C  
HETATM   34  O   UNL     1      -5.878   7.903  67.800  1.00  0.00    -0.038 OA 
HETATM   35  H   UNL     1      -6.346   7.106  67.580  1.00  0.00     0.000 HD 
ENDBRANCH  30  33
ENDBRANCH  29  30
ENDBRANCH  28  29
ENDBRANCH  13  25
ENDBRANCH   4   5
BRANCH   4  36
HETATM   36  C   UNL     1     -12.687  10.940  69.935  1.00  0.00    -0.045 C  
BRANCH  36  37
HETATM   37  C   UNL     1     -13.369  10.164  71.093  1.00  0.00    -0.295 C  
HETATM   38  O   UNL     1     -14.383   9.259  70.633  1.00  0.00    -0.398 OA 
HETATM   39  H   UNL     1     -14.801   8.783  71.342  1.00  0.00     0.000 HD 
BRANCH  37  40
HETATM   40  C   UNL     1     -12.391   9.333  71.931  1.00  0.00    -0.382 C  
HETATM   41  O   UNL     1     -13.063   8.833  73.093  1.00  0.00    -0.794 OA 
HETATM   42  H   UNL     1     -12.457   8.319  73.612  1.00  0.00     0.000 HD 
ENDBRANCH  37  40
ENDBRANCH  36  37
ENDBRANCH   4  36
TORSDOF 12
ENDMDL
MODEL      167
REMARK 921   NORMALIZED FREE ENERGY PREDICTED BY IDOCK:    0.11 KCAL/MOL
REMARK 922        TOTAL FREE ENERGY PREDICTED BY IDOCK:   -1.02 KCAL/MOL
REMARK 923 INTER-LIGAND FREE ENERGY PREDICTED BY IDOCK:   -0.68 KCAL/MOL
REMARK 924 INTRA-LIGAND FREE ENERGY PREDICTED BY IDOCK:   -0.34 KCAL/MOL
REMARK 927      BINDING AFFINITY PREDICTED BY RF-SCORE:    0.00 PKD
ROOT
HETATM    1  C   UNL     1     -10.066   9.219  64.766  1.00  0.00     1.136 C  
HETATM    2  C   UNL     1      -9.414   8.671  66.005  1.00  0.00    -0.208 C  
HETATM    3  O   UNL     1      -8.466   7.887  65.902  1.00  0.00    -0.124 OA 
HETATM    4  N   UNL     1      -9.933   9.071  67.239  1.00  0.00    -0.198 N  
ENDROOT
BRANCH   4   5
HETATM    5  C   UNL     1      -9.253   8.589  68.405  1.00  0.00    -0.135 A  
HETATM    6  C   UNL     1      -8.127   7.912  70.886  1.00  0.00    -0.101 A  
HETATM    7  C   UNL     1      -9.832   7.548  69.177  1.00  0.00    -0.170 A  
HETATM    8  C   UNL     1      -8.035   9.190  68.814  1.00  0.00    -0.100 A  
HETATM    9  I   UNL     1      -7.066  10.585  67.463  1.00  0.00    -0.095 I  
HETATM   10  I   UNL     1     -11.528   6.503  68.329  1.00  0.00     1.315 I  
HETATM   11  C   UNL     1      -7.466   8.868  70.067  1.00  0.00    -0.057 A  
HETATM   12  I   UNL     1      -7.519   7.723  72.967  1.00  0.00    -0.176 I  
HETATM   13  C   UNL     1      -9.276   7.197  70.425  1.00  0.00    -0.156 A  
BRANCH  11  14
HETATM   14  C   UNL     1      -6.276   9.634  70.546  1.00  0.00    -0.078 C  
HETATM   15  O   UNL     1      -5.145   9.289  70.225  1.00  0.00    -0.027 OA 
HETATM   16  N   UNL     1      -6.520  10.725  71.350  1.00  0.00     0.731 N  
HETATM   17  H   UNL     1      -7.483  10.982  71.568  1.00  0.00     0.000 HD 
BRANCH  16  18
HETATM   18  C   UNL     1      -5.422  11.523  71.896  1.00  0.00     0.475 C  
BRANCH  18  19
HETATM   19  C   UNL     1      -5.334  12.903  71.236  1.00  0.00    -0.154 C  
HETATM   20  H   UNL     1      -6.087  13.766  69.639  1.00  0.00     0.000 HD 
HETATM   21  O   UNL     1      -6.141  12.911  70.048  1.00  0.00    -0.138 OA 
BRANCH  19  22
HETATM   22  C   UNL     1      -5.776  14.016  72.198  1.00  0.00    -0.072 C  
HETATM   23  O   UNL     1      -5.313  13.771  73.526  1.00  0.00    -0.390 OA 
HETATM   24  H   UNL     1      -5.586  14.459  74.121  1.00  0.00     0.000 HD 
ENDBRANCH  19  22
ENDBRANCH  18  19
ENDBRANCH  16  18
ENDBRANCH  11  14
BRANCH  13  25
HETATM   25  C   UNL     1      -9.806   6.056  71.244  1.00  0.00    -0.178 C  
HETATM   26  O   UNL     1     -10.819   6.218  71.916  1.00  0.00    -0.225 OA 
HETATM   27  H   UNL     1      -8.317   4.730  70.615  1.00  0.00     0.000 HD 
HETATM   28  N   UNL     1      -9.127   4.851  71.223  1.00  0.00    -0.139 N  
BRANCH  28  29
HETATM   29  C   UNL     1      -9.575   3.754  72.073  1.00  0.00    -0.147 C  
BRANCH  29  30
HETATM   30  C   UNL     1      -8.415   2.903  72.607  1.00  0.00    -0.071 C  
HETATM   31  H   UNL     1      -8.024   1.895  74.250  1.00  0.00     0.000 HD 
HETATM   32  O   UNL     1      -8.742   2.421  73.921  1.00  0.00    -0.069 OA 
BRANCH  30  33
HETATM   33  C   UNL     1      -8.118   1.720  71.670  1.00  0.00    -0.041 C  
HETATM   34  O   UNL     1      -7.735   2.165  70.370  1.00  0.00    -0.042 OA 
HETATM   35  H   UNL     1      -7.552   1.435  69.791  1.00  0.00     0.000 HD 
ENDBRANCH  30  33
ENDBRANCH  29  30
ENDBRANCH  28  29
ENDBRANCH  13  25
ENDBRANCH   4   5
BRANCH   4  36
HETATM   36  C   UNL     1     -11.091   9.990  67.424  1.00  0.00    -0.085 C  
BRANCH  36  37
HETATM   37  C   UNL     1     -11.112  10.862  68.708  1.00  0.00    -0.256 C  
HETATM   38  O   UNL     1     -10.920  12.257  68.433  1.00  0.00    -0.211 OA 
HETATM   39  H   UNL     1     -10.933  12.791  69.219  1.00  0.00     0.000 HD 
BRANCH  37  40
HETATM   40  C   UNL     1     -12.417  10.749  69.503  1.00  0.00    -0.020 C  
HETATM   41  O   UNL     1     -12.425   9.519  70.236  1.00  0.00    -0.471 OA 
HETATM   42  H   UNL     1     -13.234   9.449  70.729  1.00  0.00     0.000 HD 
ENDBRANCH  37  40
ENDBRANCH  36  37
ENDBRANCH   4  36
TORSDOF 12
ENDMDL
MODEL      168
REMARK 921   NORMALIZED FREE ENERGY PREDICTED BY IDOCK:    0.26 KCAL/MOL
REMARK 922        TOTAL FREE ENERGY PREDICTED BY IDOCK:   -0.76 KCAL/MOL
REMARK 923 INTER-LIGAND FREE ENERGY PREDICTED BY IDOCK:   -4.62 KCAL/MOL
REMARK 924 INTRA-LIGAND FREE ENERGY PREDICTED BY IDOCK:    3.86 KCAL/MOL
REMARK 927      BINDING AFFINITY PREDICTED BY RF-SCORE:    0.00 PKD
ROOT
HETATM    1  C   UNL     1     -13.151   9.450  72.141  1.00  0.00    -0.526 C  
HETATM    2  C   UNL     1     -12.379   8.224  71.737  1.00  0.00    -0.328 C  
HETATM    3  O   UNL     1     -12.829   7.105  71.995  1.00  0.00    -0.267 OA 
HETATM    4  N   UNL     1     -11.156   8.416  71.088  1.00  0.00    -0.247 N  
ENDROOT
BRANCH   4   5
HETATM    5  C   UNL     1     -10.471   7.234  70.653  1.00  0.00    -0.214 A  
HETATM    6  C   UNL     1      -9.485   4.753  69.785  1.00  0.00    -0.162 A  
HETATM    7  C   UNL     1     -10.283   7.000  69.265  1.00  0.00    -0.186 A  
HETATM    8  C   UNL     1     -10.035   6.277  71.604  1.00  0.00    -0.179 A  
HETATM    9  I   UNL     1     -10.108   6.804  73.708  1.00  0.00    -0.374 I  
HETATM   10  I   UNL     1     -10.719   8.634  67.911  1.00  0.00     0.187 I  
HETATM   11  C   UNL     1      -9.550   5.019  71.180  1.00  0.00    -0.226 A  
HETATM   12  I   UNL     1      -9.159   2.704  69.129  1.00  0.00    -0.172 I  
HETATM   13  C   UNL     1      -9.789   5.759  68.815  1.00  0.00    -0.181 A  
BRANCH  11  14
HETATM   14  C   UNL     1      -9.254   3.970  72.202  1.00  0.00    -0.123 C  
HETATM   15  O   UNL     1     -10.114   3.626  73.005  1.00  0.00    -0.138 OA 
HETATM   16  N   UNL     1      -7.989   3.427  72.189  1.00  0.00    -0.059 N  
HETATM   17  H   UNL     1      -7.319   3.734  71.484  1.00  0.00     0.000 HD 
BRANCH  16  18
HETATM   18  C   UNL     1      -7.590   2.415  73.168  1.00  0.00    -0.042 C  
BRANCH  18  19
HETATM   19  C   UNL     1      -6.505   2.935  74.116  1.00  0.00    -0.028 C  
HETATM   20  H   UNL     1      -4.903   2.199  74.986  1.00  0.00     0.000 HD 
HETATM   21  O   UNL     1      -5.576   1.877  74.398  1.00  0.00     0.000 OA 
BRANCH  19  22
HETATM   22  C   UNL     1      -5.776   4.151  73.525  1.00  0.00    -0.008 C  
HETATM   23  O   UNL     1      -5.843   5.276  74.401  1.00  0.00    -0.044 OA 
HETATM   24  H   UNL     1      -5.393   6.028  74.034  1.00  0.00     0.000 HD 
ENDBRANCH  19  22
ENDBRANCH  18  19
ENDBRANCH  16  18
ENDBRANCH  11  14
BRANCH  13  25
HETATM   25  C   UNL     1      -9.503   5.489  67.367  1.00  0.00    -0.117 C  
HETATM   26  O   UNL     1      -8.351   5.572  66.955  1.00  0.00    -0.108 OA 
HETATM   27  H   UNL     1     -11.496   5.049  66.911  1.00  0.00     0.000 HD 
HETATM   28  N   UNL     1     -10.556   5.161  66.531  1.00  0.00    -0.294 N  
BRANCH  28  29
HETATM   29  C   UNL     1     -10.315   4.975  65.105  1.00  0.00     0.318 C  
BRANCH  29  30
HETATM   30  C   UNL     1     -10.173   3.498  64.714  1.00  0.00    -0.045 C  
HETATM   31  H   UNL     1     -11.119   2.236  63.537  1.00  0.00     0.000 HD 
HETATM   32  O   UNL     1     -11.207   3.150  63.778  1.00  0.00    -0.264 OA 
BRANCH  30  33
HETATM   33  C   UNL     1      -8.791   3.217  64.099  1.00  0.00    -0.097 C  
HETATM   34  O   UNL     1      -8.643   3.856  62.832  1.00  0.00    -0.085 OA 
HETATM   35  H   UNL     1      -7.790   3.683  62.453  1.00  0.00     0.000 HD 
ENDBRANCH  30  33
ENDBRANCH  29  30
ENDBRANCH  28  29
ENDBRANCH  13  25
ENDBRANCH   4   5
BRANCH   4  36
HETATM   36  C   UNL     1     -10.550   9.741  70.776  1.00  0.00    -0.301 C  
BRANCH  36  37
HETATM   37  C   UNL     1     -11.519  10.928  70.532  1.00  0.00    -0.220 C  
HETATM   38  O   UNL     1     -10.831  12.153  70.237  1.00  0.00     0.146 OA 
HETATM   39  H   UNL     1     -11.424  12.881  70.088  1.00  0.00     0.000 HD 
BRANCH  37  40
HETATM   40  C   UNL     1     -12.500  10.691  69.380  1.00  0.00     0.133 C  
HETATM   41  O   UNL     1     -12.380  11.750  68.424  1.00  0.00    -0.364 OA 
HETATM   42  H   UNL     1     -12.989  11.603  67.710  1.00  0.00     0.000 HD 
ENDBRANCH  37  40
ENDBRANCH  36  37
ENDBRANCH   4  36
TORSDOF 12
ENDMDL
MODEL      169
REMARK 921   NORMALIZED FREE ENERGY PREDICTED BY IDOCK:    0.37 KCAL/MOL
REMARK 922        TOTAL FREE ENERGY PREDICTED BY IDOCK:   -0.57 KCAL/MOL
REMARK 923 INTER-LIGAND FREE ENERGY PREDICTED BY IDOCK:   -3.71 KCAL/MOL
REMARK 924 INTRA-LIGAND FREE ENERGY PREDICTED BY IDOCK:    3.14 KCAL/MOL
REMARK 927      BINDING AFFINITY PREDICTED BY RF-SCORE:    0.00 PKD
ROOT
HETATM    1  C   UNL     1     -12.547  15.876  64.208  1.00  0.00     0.698 C  
HETATM    2  C   UNL     1     -11.365  15.147  64.785  1.00  0.00    -0.395 C  
HETATM    3  O   UNL     1     -10.859  14.211  64.162  1.00  0.00    -0.153 OA 
HETATM    4  N   UNL     1     -10.896  15.565  66.034  1.00  0.00    -0.319 N  
ENDROOT
BRANCH   4   5
HETATM    5  C   UNL     1      -9.728  14.901  66.532  1.00  0.00    -0.276 A  
HETATM    6  C   UNL     1      -7.572  13.695  67.865  1.00  0.00    -0.156 A  
HETATM    7  C   UNL     1      -9.790  13.521  66.862  1.00  0.00    -0.257 A  
HETATM    8  C   UNL     1      -8.533  15.634  66.748  1.00  0.00    -0.272 A  
HETATM    9  I   UNL     1      -8.413  17.662  65.985  1.00  0.00     0.372 I  
HETATM   10  I   UNL     1     -11.550  12.425  66.236  1.00  0.00    -0.347 I  
HETATM   11  C   UNL     1      -7.447  15.042  67.431  1.00  0.00    -0.234 A  
HETATM   12  I   UNL     1      -6.109  12.913  69.274  1.00  0.00    -0.108 I  
HETATM   13  C   UNL     1      -8.714  12.902  67.531  1.00  0.00    -0.190 A  
BRANCH  11  14
HETATM   14  C   UNL     1      -6.266  15.885  67.791  1.00  0.00    -0.145 C  
HETATM   15  O   UNL     1      -5.135  15.540  67.466  1.00  0.00    -0.285 OA 
HETATM   16  N   UNL     1      -6.518  17.042  68.492  1.00  0.00    -0.159 N  
HETATM   17  H   UNL     1      -7.480  17.293  68.718  1.00  0.00     0.000 HD 
BRANCH  16  18
HETATM   18  C   UNL     1      -5.428  17.920  68.920  1.00  0.00    -0.182 C  
BRANCH  18  19
HETATM   19  C   UNL     1      -5.879  18.906  70.002  1.00  0.00    -0.245 C  
HETATM   20  H   UNL     1      -5.462  20.761  70.499  1.00  0.00     0.000 HD 
HETATM   21  O   UNL     1      -5.183  20.150  69.828  1.00  0.00    -0.197 OA 
BRANCH  19  22
HETATM   22  C   UNL     1      -7.398  19.127  69.964  1.00  0.00     0.523 C  
HETATM   23  O   UNL     1      -7.892  19.125  68.624  1.00  0.00    -0.331 OA 
HETATM   24  H   UNL     1      -8.831  19.262  68.601  1.00  0.00     0.000 HD 
ENDBRANCH  19  22
ENDBRANCH  18  19
ENDBRANCH  16  18
ENDBRANCH  11  14
BRANCH  13  25
HETATM   25  C   UNL     1      -8.701  11.432  67.835  1.00  0.00    -0.145 C  
HETATM   26  O   UNL     1      -8.562  10.630  66.918  1.00  0.00    -0.125 OA 
HETATM   27  H   UNL     1      -8.916  11.713  69.896  1.00  0.00     0.000 HD 
HETATM   28  N   UNL     1      -8.854  11.023  69.147  1.00  0.00    -0.058 N  
BRANCH  28  29
HETATM   29  C   UNL     1      -8.926   9.599  69.457  1.00  0.00    -0.194 C  
BRANCH  29  30
HETATM   30  C   UNL     1      -9.555   9.320  70.828  1.00  0.00    -0.275 C  
HETATM   31  H   UNL     1     -11.007   8.191  71.529  1.00  0.00     0.000 HD 
HETATM   32  O   UNL     1     -10.618   8.363  70.680  1.00  0.00    -0.201 OA 
BRANCH  30  33
HETATM   33  C   UNL     1      -8.507   8.793  71.822  1.00  0.00    -0.109 C  
HETATM   34  O   UNL     1      -9.089   7.905  72.775  1.00  0.00    -0.167 OA 
HETATM   35  H   UNL     1      -8.442   7.580  73.389  1.00  0.00     0.000 HD 
ENDBRANCH  30  33
ENDBRANCH  29  30
ENDBRANCH  28  29
ENDBRANCH  13  25
ENDBRANCH   4   5
BRANCH   4  36
HETATM   36  C   UNL     1     -11.484  16.669  66.845  1.00  0.00     0.713 C  
BRANCH  36  37
HETATM   37  C   UNL     1     -11.161  16.688  68.363  1.00  0.00    -0.239 C  
HETATM   38  O   UNL     1     -11.201  18.009  68.921  1.00  0.00     0.187 OA 
HETATM   39  H   UNL     1     -11.003  18.021  69.851  1.00  0.00     0.000 HD 
BRANCH  37  40
HETATM   40  C   UNL     1     -12.115  15.831  69.202  1.00  0.00    -0.198 C  
HETATM   41  O   UNL     1     -11.365  15.097  70.176  1.00  0.00    -0.240 OA 
HETATM   42  H   UNL     1     -11.956  14.565  70.696  1.00  0.00     0.000 HD 
ENDBRANCH  37  40
ENDBRANCH  36  37
ENDBRANCH   4  36
TORSDOF 12
ENDMDL
MODEL      170
REMARK 921   NORMALIZED FREE ENERGY PREDICTED BY IDOCK:    0.54 KCAL/MOL
REMARK 922        TOTAL FREE ENERGY PREDICTED BY IDOCK:   -0.28 KCAL/MOL
REMARK 923 INTER-LIGAND FREE ENERGY PREDICTED BY IDOCK:   -2.22 KCAL/MOL
REMARK 924 INTRA-LIGAND FREE ENERGY PREDICTED BY IDOCK:    1.94 KCAL/MOL
REMARK 927      BINDING AFFINITY PREDICTED BY RF-SCORE:    0.00 PKD
ROOT
HETATM    1  C   UNL     1     -12.581  12.858  69.286  1.00  0.00     0.490 C  
HETATM    2  C   UNL     1     -11.919  11.551  68.945  1.00  0.00    -0.299 C  
HETATM    3  O   UNL     1     -12.580  10.509  68.956  1.00  0.00    -0.134 OA 
HETATM    4  N   UNL     1     -10.555  11.579  68.641  1.00  0.00    -0.201 N  
ENDROOT
BRANCH   4   5
HETATM    5  C   UNL     1      -9.962  10.333  68.254  1.00  0.00    -0.147 A  
HETATM    6  C   UNL     1      -8.457   8.080  67.521  1.00  0.00    -0.127 A  
HETATM    7  C   UNL     1      -9.547   9.411  69.252  1.00  0.00    -0.171 A  
HETATM    8  C   UNL     1      -9.740  10.050  66.883  1.00  0.00    -0.189 A  
HETATM    9  I   UNL     1     -10.627  11.362  65.399  1.00  0.00    -0.257 I  
HETATM   10  I   UNL     1     -10.180   9.794  71.287  1.00  0.00     1.232 I  
HETATM   11  C   UNL     1      -8.972   8.926  66.501  1.00  0.00    -0.187 A  
HETATM   12  I   UNL     1      -6.935   6.617  66.991  1.00  0.00    -0.075 I  
HETATM   13  C   UNL     1      -8.790   8.275  68.897  1.00  0.00    -0.140 A  
BRANCH  11  14
HETATM   14  C   UNL     1      -8.614   8.743  65.062  1.00  0.00    -0.169 C  
HETATM   15  O   UNL     1      -9.484   8.510  64.231  1.00  0.00     0.907 OA 
HETATM   16  N   UNL     1      -7.281   8.848  64.733  1.00  0.00    -0.091 N  
HETATM   17  H   UNL     1      -6.601   9.066  65.461  1.00  0.00     0.000 HD 
BRANCH  16  18
HETATM   18  C   UNL     1      -6.824   8.654  63.357  1.00  0.00    -0.089 C  
BRANCH  18  19
HETATM   19  C   UNL     1      -6.930   9.941  62.533  1.00  0.00    -0.112 C  
HETATM   20  H   UNL     1      -8.189  11.444  62.397  1.00  0.00     0.000 HD 
HETATM   21  O   UNL     1      -8.123  10.646  62.908  1.00  0.00    -0.151 OA 
BRANCH  19  22
HETATM   22  C   UNL     1      -5.693  10.832  62.719  1.00  0.00    -0.118 C  
HETATM   23  O   UNL     1      -5.525  11.210  64.085  1.00  0.00    -0.456 OA 
HETATM   24  H   UNL     1      -4.760  11.762  64.200  1.00  0.00     0.000 HD 
ENDBRANCH  19  22
ENDBRANCH  18  19
ENDBRANCH  16  18
ENDBRANCH  11  14
BRANCH  13  25
HETATM   25  C   UNL     1      -8.392   7.235  69.902  1.00  0.00    -0.135 C  
HETATM   26  O   UNL     1      -9.221   6.415  70.280  1.00  0.00    -0.153 OA 
HETATM   27  H   UNL     1      -6.411   7.898  70.012  1.00  0.00     0.000 HD 
HETATM   28  N   UNL     1      -7.094   7.236  70.382  1.00  0.00    -0.064 N  
BRANCH  28  29
HETATM   29  C   UNL     1      -6.706   6.287  71.420  1.00  0.00    -0.055 C  
BRANCH  29  30
HETATM   30  C   UNL     1      -5.471   6.742  72.209  1.00  0.00    -0.037 C  
HETATM   31  H   UNL     1      -4.368   8.367  72.319  1.00  0.00     0.000 HD 
HETATM   32  O   UNL     1      -5.132   8.086  71.831  1.00  0.00    -0.034 OA 
BRANCH  30  33
HETATM   33  C   UNL     1      -5.724   6.669  73.724  1.00  0.00    -0.054 C  
HETATM   34  O   UNL     1      -6.342   5.438  74.093  1.00  0.00    -0.064 OA 
HETATM   35  H   UNL     1      -6.499   5.393  75.029  1.00  0.00     0.000 HD 
ENDBRANCH  30  33
ENDBRANCH  29  30
ENDBRANCH  28  29
ENDBRANCH  13  25
ENDBRANCH   4   5
BRANCH   4  36
HETATM   36  C   UNL     1      -9.702  12.800  68.641  1.00  0.00    -0.043 C  
BRANCH  36  37
HETATM   37  C   UNL     1     -10.219  14.032  67.851  1.00  0.00    -0.240 C  
HETATM   38  O   UNL     1     -10.217  15.235  68.634  1.00  0.00    -0.213 OA 
HETATM   39  H   UNL     1     -10.533  15.988  68.150  1.00  0.00     0.000 HD 
BRANCH  37  40
HETATM   40  C   UNL     1      -9.408  14.333  66.587  1.00  0.00    -0.284 C  
HETATM   41  O   UNL     1      -8.037  14.550  66.939  1.00  0.00    -0.361 OA 
HETATM   42  H   UNL     1      -7.534  14.737  66.156  1.00  0.00     0.000 HD 
ENDBRANCH  37  40
ENDBRANCH  36  37
ENDBRANCH   4  36
TORSDOF 12
ENDMDL
MODEL      171
REMARK 921   NORMALIZED FREE ENERGY PREDICTED BY IDOCK:    0.56 KCAL/MOL
REMARK 922        TOTAL FREE ENERGY PREDICTED BY IDOCK:   -0.25 KCAL/MOL
REMARK 923 INTER-LIGAND FREE ENERGY PREDICTED BY IDOCK:   -4.98 KCAL/MOL
REMARK 924 INTRA-LIGAND FREE ENERGY PREDICTED BY IDOCK:    4.73 KCAL/MOL
REMARK 927      BINDING AFFINITY PREDICTED BY RF-SCORE:    0.00 PKD
ROOT
HETATM    1  C   UNL     1     -12.140  15.303  64.096  1.00  0.00    -0.146 C  
HETATM    2  C   UNL     1     -10.791  15.150  64.742  1.00  0.00    -0.357 C  
HETATM    3  O   UNL     1      -9.841  15.828  64.344  1.00  0.00     0.547 OA 
HETATM    4  N   UNL     1     -10.673  14.215  65.775  1.00  0.00    -0.290 N  
ENDROOT
BRANCH   4   5
HETATM    5  C   UNL     1      -9.396  14.135  66.421  1.00  0.00    -0.230 A  
HETATM    6  C   UNL     1      -7.092  13.859  68.001  1.00  0.00    -0.144 A  
HETATM    7  C   UNL     1      -8.671  12.914  66.397  1.00  0.00     0.156 A  
HETATM    8  C   UNL     1      -8.887  15.254  67.127  1.00  0.00    -0.212 A  
HETATM    9  I   UNL     1      -9.900  17.161  66.910  1.00  0.00    -0.331 I  
HETATM   10  I   UNL     1      -9.380  11.360  65.066  1.00  0.00     0.046 I  
HETATM   11  C   UNL     1      -7.736  15.124  67.937  1.00  0.00    -0.145 A  
HETATM   12  I   UNL     1      -5.602  13.524  69.551  1.00  0.00    -0.112 I  
HETATM   13  C   UNL     1      -7.512  12.762  67.185  1.00  0.00    -0.037 A  
BRANCH  11  14
HETATM   14  C   UNL     1      -7.318  16.271  68.798  1.00  0.00    -0.191 C  
HETATM   15  O   UNL     1      -7.292  16.154  70.019  1.00  0.00     0.186 OA 
HETATM   16  N   UNL     1      -6.972  17.439  68.157  1.00  0.00    -0.185 N  
HETATM   17  H   UNL     1      -6.990  17.475  67.137  1.00  0.00     0.000 HD 
BRANCH  16  18
HETATM   18  C   UNL     1      -6.578  18.629  68.912  1.00  0.00    -0.265 C  
BRANCH  18  19
HETATM   19  C   UNL     1      -5.960  19.700  68.008  1.00  0.00    -0.210 C  
HETATM   20  H   UNL     1      -5.001  19.735  66.293  1.00  0.00     0.000 HD 
HETATM   21  O   UNL     1      -5.384  19.070  66.853  1.00  0.00    -0.155 OA 
BRANCH  19  22
HETATM   22  C   UNL     1      -6.999  20.751  67.589  1.00  0.00    -0.326 C  
HETATM   23  O   UNL     1      -7.436  20.545  66.246  1.00  0.00    -0.450 OA 
HETATM   24  H   UNL     1      -8.079  21.195  65.987  1.00  0.00     0.000 HD 
ENDBRANCH  19  22
ENDBRANCH  18  19
ENDBRANCH  16  18
ENDBRANCH  11  14
BRANCH  13  25
HETATM   25  C   UNL     1      -6.670  11.520  67.139  1.00  0.00    -0.129 C  
HETATM   26  O   UNL     1      -5.702  11.477  66.387  1.00  0.00    -0.148 OA 
HETATM   27  H   UNL     1      -7.799  10.532  68.596  1.00  0.00     0.000 HD 
HETATM   28  N   UNL     1      -7.019  10.450  67.944  1.00  0.00    -0.081 N  
BRANCH  28  29
HETATM   29  C   UNL     1      -6.266   9.204  67.855  1.00  0.00    -0.051 C  
BRANCH  29  30
HETATM   30  C   UNL     1      -7.106   8.040  67.311  1.00  0.00    -0.083 C  
HETATM   31  H   UNL     1      -9.020   7.635  67.109  1.00  0.00     0.000 HD 
HETATM   32  O   UNL     1      -8.501   8.355  67.445  1.00  0.00    -0.123 OA 
BRANCH  30  33
HETATM   33  C   UNL     1      -6.769   7.755  65.838  1.00  0.00    -0.046 C  
HETATM   34  O   UNL     1      -5.792   8.667  65.339  1.00  0.00    -0.047 OA 
HETATM   35  H   UNL     1      -5.584   8.492  64.429  1.00  0.00     0.000 HD 
ENDBRANCH  30  33
ENDBRANCH  29  30
ENDBRANCH  28  29
ENDBRANCH  13  25
ENDBRANCH   4   5
BRANCH   4  36
HETATM   36  C   UNL     1     -11.776  13.350  66.278  1.00  0.00    -0.366 C  
BRANCH  36  37
HETATM   37  C   UNL     1     -12.502  12.448  65.244  1.00  0.00    -0.181 C  
HETATM   38  O   UNL     1     -13.878  12.813  65.060  1.00  0.00     0.385 OA 
HETATM   39  H   UNL     1     -14.323  12.261  64.427  1.00  0.00     0.000 HD 
BRANCH  37  40
HETATM   40  C   UNL     1     -11.856  12.466  63.855  1.00  0.00    -0.466 C  
HETATM   41  O   UNL     1     -12.726  11.826  62.915  1.00  0.00    -0.796 OA 
HETATM   42  H   UNL     1     -12.326  11.837  62.054  1.00  0.00     0.000 HD 
ENDBRANCH  37  40
ENDBRANCH  36  37
ENDBRANCH   4  36
TORSDOF 12
ENDMDL
MODEL      172
REMARK 921   NORMALIZED FREE ENERGY PREDICTED BY IDOCK:    0.74 KCAL/MOL
REMARK 922        TOTAL FREE ENERGY PREDICTED BY IDOCK:    0.06 KCAL/MOL
REMARK 923 INTER-LIGAND FREE ENERGY PREDICTED BY IDOCK:   -3.68 KCAL/MOL
REMARK 924 INTRA-LIGAND FREE ENERGY PREDICTED BY IDOCK:    3.74 KCAL/MOL
REMARK 927      BINDING AFFINITY PREDICTED BY RF-SCORE:    0.00 PKD
ROOT
HETATM    1  C   UNL     1      -7.299  19.824  65.880  1.00  0.00    -0.331 C  
HETATM    2  C   UNL     1      -7.940  18.652  66.570  1.00  0.00    -0.278 C  
HETATM    3  O   UNL     1      -9.055  18.264  66.210  1.00  0.00    -0.408 OA 
HETATM    4  N   UNL     1      -7.234  18.055  67.618  1.00  0.00    -0.204 N  
ENDROOT
BRANCH   4   5
HETATM    5  C   UNL     1      -7.834  16.899  68.216  1.00  0.00    -0.208 A  
HETATM    6  C   UNL     1      -9.194  14.587  69.044  1.00  0.00    -0.058 A  
HETATM    7  C   UNL     1      -7.213  15.630  68.072  1.00  0.00    -0.129 A  
HETATM    8  C   UNL     1      -9.072  17.015  68.898  1.00  0.00    -0.208 A  
HETATM    9  I   UNL     1      -9.839  19.002  69.316  1.00  0.00     0.349 I  
HETATM   10  I   UNL     1      -5.201  15.590  67.272  1.00  0.00     0.810 I  
HETATM   11  C   UNL     1      -9.773  15.858  69.307  1.00  0.00    -0.263 A  
HETATM   12  I   UNL     1     -10.432  12.811  69.268  1.00  0.00     0.678 I  
HETATM   13  C   UNL     1      -7.885  14.460  68.484  1.00  0.00    -0.138 A  
BRANCH  11  14
HETATM   14  C   UNL     1     -11.148  16.001  69.874  1.00  0.00    -0.352 C  
HETATM   15  O   UNL     1     -11.405  16.907  70.659  1.00  0.00     0.056 OA 
HETATM   16  N   UNL     1     -12.087  15.079  69.471  1.00  0.00    -0.444 N  
HETATM   17  H   UNL     1     -11.826  14.358  68.798  1.00  0.00     0.000 HD 
BRANCH  16  18
HETATM   18  C   UNL     1     -13.454  15.114  69.993  1.00  0.00     0.607 C  
BRANCH  18  19
HETATM   19  C   UNL     1     -13.594  14.300  71.283  1.00  0.00    -0.288 C  
HETATM   20  H   UNL     1     -13.236  12.451  71.846  1.00  0.00     0.000 HD 
HETATM   21  O   UNL     1     -13.150  12.956  71.046  1.00  0.00    -0.154 OA 
BRANCH  19  22
HETATM   22  C   UNL     1     -12.803  14.935  72.437  1.00  0.00    -0.345 C  
HETATM   23  O   UNL     1     -13.467  16.090  72.950  1.00  0.00    -0.533 OA 
HETATM   24  H   UNL     1     -12.977  16.482  73.663  1.00  0.00     0.000 HD 
ENDBRANCH  19  22
ENDBRANCH  18  19
ENDBRANCH  16  18
ENDBRANCH  11  14
BRANCH  13  25
HETATM   25  C   UNL     1      -7.242  13.105  68.422  1.00  0.00    -0.107 C  
HETATM   26  O   UNL     1      -6.445  12.777  69.294  1.00  0.00    -0.102 OA 
HETATM   27  H   UNL     1      -8.269  12.544  66.688  1.00  0.00     0.000 HD 
HETATM   28  N   UNL     1      -7.564  12.264  67.371  1.00  0.00    -0.150 N  
BRANCH  28  29
HETATM   29  C   UNL     1      -6.892  10.976  67.245  1.00  0.00    -0.088 C  
BRANCH  29  30
HETATM   30  C   UNL     1      -7.840   9.788  67.456  1.00  0.00    -0.095 C  
HETATM   31  H   UNL     1      -8.640   8.384  66.333  1.00  0.00     0.000 HD 
HETATM   32  O   UNL     1      -8.053   9.119  66.202  1.00  0.00    -0.105 OA 
BRANCH  30  33
HETATM   33  C   UNL     1      -7.269   8.801  68.488  1.00  0.00    -0.074 C  
HETATM   34  O   UNL     1      -6.553   9.478  69.519  1.00  0.00    -0.042 OA 
HETATM   35  H   UNL     1      -6.200   8.869  70.157  1.00  0.00     0.000 HD 
ENDBRANCH  30  33
ENDBRANCH  29  30
ENDBRANCH  28  29
ENDBRANCH  13  25
ENDBRANCH   4   5
BRANCH   4  36
HETATM   36  C   UNL     1      -5.901  18.498  68.115  1.00  0.00    -0.188 C  
BRANCH  36  37
HETATM   37  C   UNL     1      -5.878  19.571  69.236  1.00  0.00    -0.249 C  
HETATM   38  O   UNL     1      -7.192  20.005  69.615  1.00  0.00    -0.201 OA 
HETATM   39  H   UNL     1      -7.178  20.663  70.301  1.00  0.00     0.000 HD 
BRANCH  37  40
HETATM   40  C   UNL     1      -5.187  19.100  70.520  1.00  0.00    -0.217 C  
HETATM   41  O   UNL     1      -5.145  17.669  70.543  1.00  0.00    -0.221 OA 
HETATM   42  H   UNL     1      -4.717  17.377  71.339  1.00  0.00     0.000 HD 
ENDBRANCH  37  40
ENDBRANCH  36  37
ENDBRANCH   4  36
TORSDOF 12
ENDMDL
MODEL      173
REMARK 921   NORMALIZED FREE ENERGY PREDICTED BY IDOCK:    0.80 KCAL/MOL
REMARK 922        TOTAL FREE ENERGY PREDICTED BY IDOCK:    0.16 KCAL/MOL
REMARK 923 INTER-LIGAND FREE ENERGY PREDICTED BY IDOCK:   -4.41 KCAL/MOL
REMARK 924 INTRA-LIGAND FREE ENERGY PREDICTED BY IDOCK:    4.56 KCAL/MOL
REMARK 927      BINDING AFFINITY PREDICTED BY RF-SCORE:    0.00 PKD
ROOT
HETATM    1  C   UNL     1      -6.150  13.566  70.602  1.00  0.00    -0.055 C  
HETATM    2  C   UNL     1      -6.855  13.646  69.275  1.00  0.00    -0.063 C  
HETATM    3  O   UNL     1      -6.668  14.619  68.540  1.00  0.00    -0.089 OA 
HETATM    4  N   UNL     1      -7.717  12.598  68.939  1.00  0.00     0.020 N  
ENDROOT
BRANCH   4   5
HETATM    5  C   UNL     1      -8.324  12.663  67.642  1.00  0.00    -0.174 A  
HETATM    6  C   UNL     1      -9.812  12.593  65.263  1.00  0.00    -0.119 A  
HETATM    7  C   UNL     1      -9.188  13.744  67.323  1.00  0.00    -0.239 A  
HETATM    8  C   UNL     1      -8.106  11.621  66.705  1.00  0.00    -0.121 A  
HETATM    9  I   UNL     1      -6.580  10.141  67.140  1.00  0.00    -0.074 I  
HETATM   10  I   UNL     1      -9.236  15.420  68.693  1.00  0.00    -0.237 I  
HETATM   11  C   UNL     1      -8.859  11.567  65.510  1.00  0.00     0.036 A  
HETATM   12  I   UNL     1     -11.266  12.303  63.669  1.00  0.00    -0.500 I  
HETATM   13  C   UNL     1      -9.941  13.721  66.131  1.00  0.00    -0.318 A  
BRANCH  11  14
HETATM   14  C   UNL     1      -8.730  10.374  64.620  1.00  0.00    -0.187 C  
HETATM   15  O   UNL     1      -9.308   9.328  64.896  1.00  0.00    -0.211 OA 
HETATM   16  N   UNL     1      -7.942  10.514  63.500  1.00  0.00    -0.320 N  
HETATM   17  H   UNL     1      -7.501  11.414  63.307  1.00  0.00     0.000 HD 
BRANCH  16  18
HETATM   18  C   UNL     1      -7.726   9.396  62.582  1.00  0.00    -0.115 C  
BRANCH  18  19
HETATM   19  C   UNL     1      -6.528   8.537  63.000  1.00  0.00    -0.087 C  
HETATM   20  H   UNL     1      -4.815   8.834  63.917  1.00  0.00     0.000 HD 
HETATM   21  O   UNL     1      -5.558   9.366  63.658  1.00  0.00    -0.069 OA 
BRANCH  19  22
HETATM   22  C   UNL     1      -6.958   7.379  63.914  1.00  0.00    -0.058 C  
HETATM   23  O   UNL     1      -7.806   6.460  63.226  1.00  0.00    -0.103 OA 
HETATM   24  H   UNL     1      -8.072   5.744  63.791  1.00  0.00     0.000 HD 
ENDBRANCH  19  22
ENDBRANCH  18  19
ENDBRANCH  16  18
ENDBRANCH  11  14
BRANCH  13  25
HETATM   25  C   UNL     1     -10.811  14.871  65.713  1.00  0.00    -0.339 C  
HETATM   26  O   UNL     1     -11.921  14.646  65.242  1.00  0.00    -0.354 OA 
HETATM   27  H   UNL     1      -9.424  16.319  66.307  1.00  0.00     0.000 HD 
HETATM   28  N   UNL     1     -10.329  16.159  65.865  1.00  0.00    -0.350 N  
BRANCH  28  29
HETATM   29  C   UNL     1     -11.122  17.288  65.391  1.00  0.00     0.246 C  
BRANCH  29  30
HETATM   30  C   UNL     1     -10.427  18.638  65.616  1.00  0.00    -0.111 C  
HETATM   31  H   UNL     1     -10.890  20.536  65.383  1.00  0.00     0.000 HD 
HETATM   32  O   UNL     1     -11.320  19.701  65.244  1.00  0.00    -0.196 OA 
BRANCH  30  33
HETATM   33  C   UNL     1      -9.997  18.802  67.083  1.00  0.00    -0.336 C  
HETATM   34  O   UNL     1     -10.805  19.761  67.761  1.00  0.00    -0.362 OA 
HETATM   35  H   UNL     1     -10.539  19.863  68.668  1.00  0.00     0.000 HD 
ENDBRANCH  30  33
ENDBRANCH  29  30
ENDBRANCH  28  29
ENDBRANCH  13  25
ENDBRANCH   4   5
BRANCH   4  36
HETATM   36  C   UNL     1      -8.004  11.415  69.797  1.00  0.00     0.879 C  
BRANCH  36  37
HETATM   37  C   UNL     1      -9.436  10.820  69.736  1.00  0.00     0.372 C  
HETATM   38  O   UNL     1     -10.413  11.772  69.292  1.00  0.00    -0.412 OA 
HETATM   39  H   UNL     1     -11.290  11.408  69.254  1.00  0.00     0.000 HD 
BRANCH  37  40
HETATM   40  C   UNL     1      -9.556   9.606  68.808  1.00  0.00    -0.152 C  
HETATM   41  O   UNL     1     -10.445   9.916  67.729  1.00  0.00    -0.208 OA 
HETATM   42  H   UNL     1     -10.519   9.164  67.154  1.00  0.00     0.000 HD 
ENDBRANCH  37  40
ENDBRANCH  36  37
ENDBRANCH   4  36
TORSDOF 12
ENDMDL
MODEL      174
REMARK 921   NORMALIZED FREE ENERGY PREDICTED BY IDOCK:    0.82 KCAL/MOL
REMARK 922        TOTAL FREE ENERGY PREDICTED BY IDOCK:    0.19 KCAL/MOL
REMARK 923 INTER-LIGAND FREE ENERGY PREDICTED BY IDOCK:   -1.07 KCAL/MOL
REMARK 924 INTRA-LIGAND FREE ENERGY PREDICTED BY IDOCK:    1.26 KCAL/MOL
REMARK 927      BINDING AFFINITY PREDICTED BY RF-SCORE:    0.00 PKD
ROOT
HETATM    1  C   UNL     1     -13.116  13.304  68.979  1.00  0.00     2.083 C  
HETATM    2  C   UNL     1     -11.887  12.613  68.455  1.00  0.00    -0.301 C  
HETATM    3  O   UNL     1     -11.665  11.440  68.766  1.00  0.00    -0.292 OA 
HETATM    4  N   UNL     1     -11.030  13.353  67.636  1.00  0.00    -0.254 N  
ENDROOT
BRANCH   4   5
HETATM    5  C   UNL     1      -9.902  12.654  67.095  1.00  0.00    -0.212 A  
HETATM    6  C   UNL     1      -7.824  10.974  66.235  1.00  0.00    -0.141 A  
HETATM    7  C   UNL     1     -10.036  11.940  65.874  1.00  0.00    -0.234 A  
HETATM    8  C   UNL     1      -8.675  12.630  67.805  1.00  0.00    -0.179 A  
HETATM    9  I   UNL     1      -8.446  13.945  69.516  1.00  0.00     1.533 I  
HETATM   10  I   UNL     1     -11.841  12.266  64.722  1.00  0.00    -0.340 I  
HETATM   11  C   UNL     1      -7.627  11.778  67.391  1.00  0.00    -0.143 A  
HETATM   12  I   UNL     1      -6.418   9.362  65.834  1.00  0.00    -0.082 I  
HETATM   13  C   UNL     1      -9.000  11.093  65.431  1.00  0.00    -0.154 A  
BRANCH  11  14
HETATM   14  C   UNL     1      -6.411  11.647  68.249  1.00  0.00    -0.050 C  
HETATM   15  O   UNL     1      -5.559  12.530  68.257  1.00  0.00    -0.053 OA 
HETATM   16  N   UNL     1      -6.305  10.506  69.012  1.00  0.00    -0.044 N  
HETATM   17  H   UNL     1      -7.054   9.814  68.984  1.00  0.00     0.000 HD 
BRANCH  16  18
HETATM   18  C   UNL     1      -5.138  10.269  69.861  1.00  0.00    -0.038 C  
BRANCH  18  19
HETATM   19  C   UNL     1      -5.453   9.305  71.009  1.00  0.00    -0.043 C  
HETATM   20  H   UNL     1      -5.408   9.367  72.973  1.00  0.00     0.000 HD 
HETATM   21  O   UNL     1      -5.212   9.965  72.261  1.00  0.00    -0.142 OA 
BRANCH  19  22
HETATM   22  C   UNL     1      -6.901   8.796  70.936  1.00  0.00    -0.068 C  
HETATM   23  O   UNL     1      -7.018   7.685  70.048  1.00  0.00    -0.049 OA 
HETATM   24  H   UNL     1      -7.914   7.371  70.002  1.00  0.00     0.000 HD 
ENDBRANCH  19  22
ENDBRANCH  18  19
ENDBRANCH  16  18
ENDBRANCH  11  14
BRANCH  13  25
HETATM   25  C   UNL     1      -9.062  10.375  64.114  1.00  0.00    -0.242 C  
HETATM   26  O   UNL     1      -9.402  10.991  63.109  1.00  0.00    -0.264 OA 
HETATM   27  H   UNL     1      -8.412   8.556  64.914  1.00  0.00     0.000 HD 
HETATM   28  N   UNL     1      -8.741   9.031  64.073  1.00  0.00    -0.142 N  
BRANCH  28  29
HETATM   29  C   UNL     1      -8.873   8.294  62.821  1.00  0.00     0.353 C  
BRANCH  29  30
HETATM   30  C   UNL     1      -7.839   7.168  62.682  1.00  0.00    -0.135 C  
HETATM   31  H   UNL     1      -5.909   6.957  63.006  1.00  0.00     0.000 HD 
HETATM   32  O   UNL     1      -6.549   7.653  63.092  1.00  0.00    -0.061 OA 
BRANCH  30  33
HETATM   33  C   UNL     1      -8.233   5.945  63.526  1.00  0.00    -0.049 C  
HETATM   34  O   UNL     1      -7.222   5.618  64.478  1.00  0.00    -0.055 OA 
HETATM   35  H   UNL     1      -7.466   4.862  64.999  1.00  0.00     0.000 HD 
ENDBRANCH  30  33
ENDBRANCH  29  30
ENDBRANCH  28  29
ENDBRANCH  13  25
ENDBRANCH   4   5
BRANCH   4  36
HETATM   36  C   UNL     1     -11.231  14.779  67.251  1.00  0.00    -0.346 C  
BRANCH  36  37
HETATM   37  C   UNL     1     -10.604  15.251  65.912  1.00  0.00    -0.335 C  
HETATM   38  O   UNL     1     -11.503  16.053  65.132  1.00  0.00    -0.107 OA 
HETATM   39  H   UNL     1     -11.119  16.342  64.312  1.00  0.00     0.000 HD 
BRANCH  37  40
HETATM   40  C   UNL     1      -9.327  16.078  66.093  1.00  0.00    -0.342 C  
HETATM   41  O   UNL     1      -8.185  15.219  66.005  1.00  0.00    -0.139 OA 
HETATM   42  H   UNL     1      -7.393  15.732  66.117  1.00  0.00     0.000 HD 
ENDBRANCH  37  40
ENDBRANCH  36  37
ENDBRANCH   4  36
TORSDOF 12
ENDMDL
MODEL      175
REMARK 921   NORMALIZED FREE ENERGY PREDICTED BY IDOCK:    0.91 KCAL/MOL
REMARK 922        TOTAL FREE ENERGY PREDICTED BY IDOCK:    0.34 KCAL/MOL
REMARK 923 INTER-LIGAND FREE ENERGY PREDICTED BY IDOCK:   -2.53 KCAL/MOL
REMARK 924 INTRA-LIGAND FREE ENERGY PREDICTED BY IDOCK:    2.87 KCAL/MOL
REMARK 927      BINDING AFFINITY PREDICTED BY RF-SCORE:    0.00 PKD
ROOT
HETATM    1  C   UNL     1      -6.450  15.778  71.130  1.00  0.00     1.287 C  
HETATM    2  C   UNL     1      -6.965  14.560  70.413  1.00  0.00     0.240 C  
HETATM    3  O   UNL     1      -6.867  13.450  70.942  1.00  0.00     0.731 OA 
HETATM    4  N   UNL     1      -7.529  14.747  69.147  1.00  0.00    -0.145 N  
ENDROOT
BRANCH   4   5
HETATM    5  C   UNL     1      -8.073  13.583  68.513  1.00  0.00    -0.108 A  
HETATM    6  C   UNL     1      -9.068  11.487  66.932  1.00  0.00    -0.179 A  
HETATM    7  C   UNL     1      -7.211  12.520  68.133  1.00  0.00    -0.106 A  
HETATM    8  C   UNL     1      -9.458  13.520  68.216  1.00  0.00    -0.212 A  
HETATM    9  I   UNL     1     -10.764  15.040  69.050  1.00  0.00    -0.281 I  
HETATM   10  I   UNL     1      -5.177  12.573  68.875  1.00  0.00    -0.058 I  
HETATM   11  C   UNL     1      -9.969  12.478  67.409  1.00  0.00    -0.207 A  
HETATM   12  I   UNL     1      -9.737  10.140  65.359  1.00  0.00    -0.347 I  
HETATM   13  C   UNL     1      -7.698  11.461  67.339  1.00  0.00    -0.135 A  
BRANCH  11  14
HETATM   14  C   UNL     1     -11.398  12.525  66.975  1.00  0.00    -0.328 C  
HETATM   15  O   UNL     1     -12.288  12.144  67.727  1.00  0.00    -0.313 OA 
HETATM   16  N   UNL     1     -11.649  13.010  65.712  1.00  0.00    -0.339 N  
HETATM   17  H   UNL     1     -10.873  13.335  65.135  1.00  0.00     0.000 HD 
BRANCH  16  18
HETATM   18  C   UNL     1     -13.012  13.068  65.181  1.00  0.00    -0.086 C  
BRANCH  18  19
HETATM   19  C   UNL     1     -13.031  13.013  63.650  1.00  0.00     0.411 C  
HETATM   20  H   UNL     1     -12.075  13.903  62.182  1.00  0.00     0.000 HD 
HETATM   21  O   UNL     1     -12.063  13.937  63.131  1.00  0.00    -0.390 OA 
BRANCH  19  22
HETATM   22  C   UNL     1     -12.754  11.593  63.134  1.00  0.00     0.090 C  
HETATM   23  O   UNL     1     -11.355  11.313  63.105  1.00  0.00    -0.837 OA 
HETATM   24  H   UNL     1     -11.184  10.435  62.785  1.00  0.00     0.000 HD 
ENDBRANCH  19  22
ENDBRANCH  18  19
ENDBRANCH  16  18
ENDBRANCH  11  14
BRANCH  13  25
HETATM   25  C   UNL     1      -6.847  10.280  66.973  1.00  0.00    -0.084 C  
HETATM   26  O   UNL     1      -6.550  10.093  65.798  1.00  0.00    -0.093 OA 
HETATM   27  H   UNL     1      -6.646   9.635  68.952  1.00  0.00     0.000 HD 
HETATM   28  N   UNL     1      -6.427   9.426  67.978  1.00  0.00    -0.061 N  
BRANCH  28  29
HETATM   29  C   UNL     1      -5.669   8.228  67.637  1.00  0.00    -0.039 C  
BRANCH  29  30
HETATM   30  C   UNL     1      -6.545   7.124  67.030  1.00  0.00    -0.059 C  
HETATM   31  H   UNL     1      -8.426   6.560  67.163  1.00  0.00     0.000 HD 
HETATM   32  O   UNL     1      -7.884   7.244  67.538  1.00  0.00    -0.109 OA 
BRANCH  30  33
HETATM   33  C   UNL     1      -6.556   7.207  65.494  1.00  0.00    -0.048 C  
HETATM   34  O   UNL     1      -5.295   6.834  64.942  1.00  0.00    -0.025 OA 
HETATM   35  H   UNL     1      -5.302   6.885  63.993  1.00  0.00     0.000 HD 
ENDBRANCH  30  33
ENDBRANCH  29  30
ENDBRANCH  28  29
ENDBRANCH  13  25
ENDBRANCH   4   5
BRANCH   4  36
HETATM   36  C   UNL     1      -7.648  16.057  68.447  1.00  0.00    -0.145 C  
BRANCH  36  37
HETATM   37  C   UNL     1      -6.498  16.458  67.486  1.00  0.00    -0.159 C  
HETATM   38  O   UNL     1      -6.928  16.564  66.120  1.00  0.00    -0.044 OA 
HETATM   39  H   UNL     1      -6.223  16.810  65.532  1.00  0.00     0.000 HD 
BRANCH  37  40
HETATM   40  C   UNL     1      -5.842  17.797  67.841  1.00  0.00    -0.150 C  
HETATM   41  O   UNL     1      -6.690  18.871  67.421  1.00  0.00    -0.198 OA 
HETATM   42  H   UNL     1      -6.283  19.700  67.641  1.00  0.00     0.000 HD 
ENDBRANCH  37  40
ENDBRANCH  36  37
ENDBRANCH   4  36
TORSDOF 12
ENDMDL
MODEL      176
REMARK 921   NORMALIZED FREE ENERGY PREDICTED BY IDOCK:    0.95 KCAL/MOL
REMARK 922        TOTAL FREE ENERGY PREDICTED BY IDOCK:    0.41 KCAL/MOL
REMARK 923 INTER-LIGAND FREE ENERGY PREDICTED BY IDOCK:   -2.88 KCAL/MOL
REMARK 924 INTRA-LIGAND FREE ENERGY PREDICTED BY IDOCK:    3.29 KCAL/MOL
REMARK 927      BINDING AFFINITY PREDICTED BY RF-SCORE:    0.00 PKD
ROOT
HETATM    1  C   UNL     1      -8.540   7.097  72.540  1.00  0.00    -0.131 C  
HETATM    2  C   UNL     1      -8.534   7.310  71.051  1.00  0.00    -0.127 C  
HETATM    3  O   UNL     1      -9.603   7.427  70.445  1.00  0.00    -0.166 OA 
HETATM    4  N   UNL     1      -7.293   7.351  70.410  1.00  0.00    -0.076 N  
ENDROOT
BRANCH   4   5
HETATM    5  C   UNL     1      -7.310   7.622  69.003  1.00  0.00    -0.086 A  
HETATM    6  C   UNL     1      -7.734   8.155  66.279  1.00  0.00    -0.094 A  
HETATM    7  C   UNL     1      -7.330   8.967  68.545  1.00  0.00    -0.081 A  
HETATM    8  C   UNL     1      -7.365   6.551  68.075  1.00  0.00    -0.090 A  
HETATM    9  I   UNL     1      -7.066   4.531  68.809  1.00  0.00    -0.053 I  
HETATM   10  I   UNL     1      -6.956  10.522  70.006  1.00  0.00     0.143 I  
HETATM   11  C   UNL     1      -7.592   6.806  66.703  1.00  0.00    -0.086 A  
HETATM   12  I   UNL     1      -8.504   8.545  64.281  1.00  0.00     0.195 I  
HETATM   13  C   UNL     1      -7.542   9.249  67.180  1.00  0.00    -0.091 A  
BRANCH  11  14
HETATM   14  C   UNL     1      -7.810   5.656  65.775  1.00  0.00    -0.101 C  
HETATM   15  O   UNL     1      -8.947   5.305  65.478  1.00  0.00    -0.157 OA 
HETATM   16  N   UNL     1      -6.687   5.029  65.284  1.00  0.00    -0.047 N  
HETATM   17  H   UNL     1      -5.764   5.377  65.546  1.00  0.00     0.000 HD 
BRANCH  16  18
HETATM   18  C   UNL     1      -6.794   3.874  64.393  1.00  0.00    -0.045 C  
BRANCH  18  19
HETATM   19  C   UNL     1      -8.204   3.728  63.813  1.00  0.00    -0.090 C  
HETATM   20  H   UNL     1      -9.065   4.030  62.072  1.00  0.00     0.000 HD 
HETATM   21  O   UNL     1      -8.191   4.120  62.432  1.00  0.00    -0.072 OA 
BRANCH  19  22
HETATM   22  C   UNL     1      -8.728   2.292  63.962  1.00  0.00    -0.091 C  
HETATM   23  O   UNL     1      -9.764   2.215  64.942  1.00  0.00    -0.330 OA 
HETATM   24  H   UNL     1     -10.088   1.326  65.034  1.00  0.00     0.000 HD 
ENDBRANCH  19  22
ENDBRANCH  18  19
ENDBRANCH  16  18
ENDBRANCH  11  14
BRANCH  13  25
HETATM   25  C   UNL     1      -7.497  10.647  66.636  1.00  0.00    -0.129 C  
HETATM   26  O   UNL     1      -6.444  11.083  66.183  1.00  0.00    -0.128 OA 
HETATM   27  H   UNL     1      -9.524  11.005  67.006  1.00  0.00     0.000 HD 
HETATM   28  N   UNL     1      -8.650  11.411  66.670  1.00  0.00    -0.166 N  
BRANCH  28  29
HETATM   29  C   UNL     1      -8.611  12.799  66.224  1.00  0.00     0.334 C  
BRANCH  29  30
HETATM   30  C   UNL     1      -8.777  13.799  67.376  1.00  0.00    -0.207 C  
HETATM   31  H   UNL     1      -9.357  13.726  69.255  1.00  0.00     0.000 HD 
HETATM   32  O   UNL     1      -9.254  13.107  68.542  1.00  0.00    -0.165 OA 
BRANCH  30  33
HETATM   33  C   UNL     1      -7.449  14.508  67.691  1.00  0.00    -0.177 C  
HETATM   34  O   UNL     1      -6.429  13.574  68.040  1.00  0.00    -0.102 OA 
HETATM   35  H   UNL     1      -5.608  14.012  68.234  1.00  0.00     0.000 HD 
ENDBRANCH  30  33
ENDBRANCH  29  30
ENDBRANCH  28  29
ENDBRANCH  13  25
ENDBRANCH   4   5
BRANCH   4  36
HETATM   36  C   UNL     1      -5.975   7.186  71.083  1.00  0.00    -0.036 C  
BRANCH  36  37
HETATM   37  C   UNL     1      -5.785   7.880  72.459  1.00  0.00    -0.041 C  
HETATM   38  O   UNL     1      -6.627   9.032  72.620  1.00  0.00    -0.305 OA 
HETATM   39  H   UNL     1      -6.511   9.456  73.462  1.00  0.00     0.000 HD 
BRANCH  37  40
HETATM   40  C   UNL     1      -6.071   6.962  73.652  1.00  0.00    -0.062 C  
HETATM   41  O   UNL     1      -5.247   5.794  73.564  1.00  0.00    -0.022 OA 
HETATM   42  H   UNL     1      -5.424   5.225  74.303  1.00  0.00     0.000 HD 
ENDBRANCH  37  40
ENDBRANCH  36  37
ENDBRANCH   4  36
TORSDOF 12
ENDMDL
MODEL      177
REMARK 921   NORMALIZED FREE ENERGY PREDICTED BY IDOCK:    1.16 KCAL/MOL
REMARK 922        TOTAL FREE ENERGY PREDICTED BY IDOCK:    0.77 KCAL/MOL
REMARK 923 INTER-LIGAND FREE ENERGY PREDICTED BY IDOCK:   -3.59 KCAL/MOL
REMARK 924 INTRA-LIGAND FREE ENERGY PREDICTED BY IDOCK:    4.36 KCAL/MOL
REMARK 927      BINDING AFFINITY PREDICTED BY RF-SCORE:    0.00 PKD
ROOT
HETATM    1  C   UNL     1      -5.132  13.124  70.703  1.00  0.00    -0.120 C  
HETATM    2  C   UNL     1      -6.321  12.753  69.861  1.00  0.00    -0.030 C  
HETATM    3  O   UNL     1      -7.110  11.892  70.259  1.00  0.00     0.431 OA 
HETATM    4  N   UNL     1      -6.472  13.406  68.634  1.00  0.00    -0.084 N  
ENDROOT
BRANCH   4   5
HETATM    5  C   UNL     1      -7.648  13.086  67.880  1.00  0.00    -0.144 A  
HETATM    6  C   UNL     1      -9.785  12.657  66.111  1.00  0.00    -0.251 A  
HETATM    7  C   UNL     1      -7.676  11.910  67.085  1.00  0.00    -0.163 A  
HETATM    8  C   UNL     1      -8.757  13.970  67.887  1.00  0.00    -0.184 A  
HETATM    9  I   UNL     1      -8.768  15.603  69.315  1.00  0.00    -0.108 I  
HETATM   10  I   UNL     1      -6.068  10.484  67.357  1.00  0.00    -0.058 I  
HETATM   11  C   UNL     1      -9.832  13.773  66.991  1.00  0.00    -0.251 A  
HETATM   12  I   UNL     1     -11.192  12.577  64.453  1.00  0.00    -0.512 I  
HETATM   13  C   UNL     1      -8.743  11.682  66.192  1.00  0.00    -0.094 A  
BRANCH  11  14
HETATM   14  C   UNL     1     -10.906  14.808  66.902  1.00  0.00    -0.316 C  
HETATM   15  O   UNL     1     -12.077  14.507  67.108  1.00  0.00    -0.397 OA 
HETATM   16  N   UNL     1     -10.513  16.088  66.582  1.00  0.00    -0.304 N  
HETATM   17  H   UNL     1      -9.522  16.288  66.442  1.00  0.00     0.000 HD 
BRANCH  16  18
HETATM   18  C   UNL     1     -11.491  17.167  66.440  1.00  0.00     1.240 C  
BRANCH  18  19
HETATM   19  C   UNL     1     -11.033  18.450  67.141  1.00  0.00    -0.070 C  
HETATM   20  H   UNL     1     -10.238  18.917  68.876  1.00  0.00     0.000 HD 
HETATM   21  O   UNL     1     -10.523  18.121  68.442  1.00  0.00    -0.359 OA 
BRANCH  19  22
HETATM   22  C   UNL     1      -9.972  19.193  66.315  1.00  0.00    -0.401 C  
HETATM   23  O   UNL     1      -8.753  18.455  66.247  1.00  0.00    -0.398 OA 
HETATM   24  H   UNL     1      -8.097  18.915  65.737  1.00  0.00     0.000 HD 
ENDBRANCH  19  22
ENDBRANCH  18  19
ENDBRANCH  16  18
ENDBRANCH  11  14
BRANCH  13  25
HETATM   25  C   UNL     1      -8.855  10.421  65.385  1.00  0.00    -0.179 C  
HETATM   26  O   UNL     1      -9.880   9.752  65.454  1.00  0.00    -0.306 OA 
HETATM   27  H   UNL     1      -6.969  10.646  64.511  1.00  0.00     0.000 HD 
HETATM   28  N   UNL     1      -7.789  10.044  64.588  1.00  0.00    -0.142 N  
BRANCH  28  29
HETATM   29  C   UNL     1      -7.842   8.782  63.859  1.00  0.00    -0.141 C  
BRANCH  29  30
HETATM   30  C   UNL     1      -6.449   8.217  63.547  1.00  0.00    -0.076 C  
HETATM   31  H   UNL     1      -4.590   8.678  63.996  1.00  0.00     0.000 HD 
HETATM   32  O   UNL     1      -5.451   9.028  64.189  1.00  0.00    -0.059 OA 
BRANCH  30  33
HETATM   33  C   UNL     1      -6.325   6.758  64.018  1.00  0.00    -0.035 C  
HETATM   34  O   UNL     1      -5.335   6.620  65.036  1.00  0.00    -0.024 OA 
HETATM   35  H   UNL     1      -5.258   5.719  65.326  1.00  0.00     0.000 HD 
ENDBRANCH  30  33
ENDBRANCH  29  30
ENDBRANCH  28  29
ENDBRANCH  13  25
ENDBRANCH   4   5
BRANCH   4  36
HETATM   36  C   UNL     1      -5.539  14.432  68.089  1.00  0.00    -0.124 C  
BRANCH  36  37
HETATM   37  C   UNL     1      -6.135  15.505  67.139  1.00  0.00     0.288 C  
HETATM   38  O   UNL     1      -7.320  16.118  67.670  1.00  0.00    -0.123 OA 
HETATM   39  H   UNL     1      -7.685  16.775  67.089  1.00  0.00     0.000 HD 
BRANCH  37  40
HETATM   40  C   UNL     1      -5.163  16.644  66.816  1.00  0.00     0.037 C  
HETATM   41  O   UNL     1      -5.771  17.899  67.141  1.00  0.00    -0.129 OA 
HETATM   42  H   UNL     1      -5.169  18.605  66.940  1.00  0.00     0.000 HD 
ENDBRANCH  37  40
ENDBRANCH  36  37
ENDBRANCH   4  36
TORSDOF 12
ENDMDL
MODEL      178
REMARK 921   NORMALIZED FREE ENERGY PREDICTED BY IDOCK:    1.45 KCAL/MOL
REMARK 922        TOTAL FREE ENERGY PREDICTED BY IDOCK:    1.26 KCAL/MOL
REMARK 923 INTER-LIGAND FREE ENERGY PREDICTED BY IDOCK:   -1.27 KCAL/MOL
REMARK 924 INTRA-LIGAND FREE ENERGY PREDICTED BY IDOCK:    2.53 KCAL/MOL
REMARK 927      BINDING AFFINITY PREDICTED BY RF-SCORE:    0.00 PKD
ROOT
HETATM    1  C   UNL     1     -12.272  15.692  72.203  1.00  0.00    -0.528 C  
HETATM    2  C   UNL     1     -11.091  15.314  71.353  1.00  0.00    -0.227 C  
HETATM    3  O   UNL     1      -9.956  15.332  71.838  1.00  0.00     1.562 OA 
HETATM    4  N   UNL     1     -11.338  14.968  70.021  1.00  0.00    -0.259 N  
ENDROOT
BRANCH   4   5
HETATM    5  C   UNL     1     -10.205  14.547  69.250  1.00  0.00    -0.109 A  
HETATM    6  C   UNL     1      -7.805  13.676  68.084  1.00  0.00    -0.143 A  
HETATM    7  C   UNL     1     -10.029  13.170  68.953  1.00  0.00     0.081 A  
HETATM    8  C   UNL     1      -9.238  15.497  68.836  1.00  0.00    -0.218 A  
HETATM    9  I   UNL     1      -9.686  17.606  69.084  1.00  0.00     0.201 I  
HETATM   10  I   UNL     1     -11.686  11.840  69.372  1.00  0.00    -0.380 I  
HETATM   11  C   UNL     1      -8.019  15.070  68.260  1.00  0.00    -0.128 A  
HETATM   12  I   UNL     1      -5.798  12.980  67.611  1.00  0.00     0.047 I  
HETATM   13  C   UNL     1      -8.829  12.718  68.367  1.00  0.00    -0.117 A  
BRANCH  11  14
HETATM   14  C   UNL     1      -6.951  16.077  67.986  1.00  0.00    -0.127 C  
HETATM   15  O   UNL     1      -6.262  15.991  66.975  1.00  0.00    -0.314 OA 
HETATM   16  N   UNL     1      -6.788  17.082  68.912  1.00  0.00    -0.200 N  
HETATM   17  H   UNL     1      -7.404  17.119  69.725  1.00  0.00     0.000 HD 
BRANCH  16  18
HETATM   18  C   UNL     1      -5.749  18.099  68.751  1.00  0.00    -0.191 C  
BRANCH  18  19
HETATM   19  C   UNL     1      -6.342  19.485  68.477  1.00  0.00    -0.252 C  
HETATM   20  H   UNL     1      -5.851  21.346  68.871  1.00  0.00     0.000 HD 
HETATM   21  O   UNL     1      -5.483  20.487  69.041  1.00  0.00    -0.256 OA 
BRANCH  19  22
HETATM   22  C   UNL     1      -6.539  19.725  66.973  1.00  0.00    -0.197 C  
HETATM   23  O   UNL     1      -6.739  21.109  66.689  1.00  0.00    -0.438 OA 
HETATM   24  H   UNL     1      -6.861  21.258  65.758  1.00  0.00     0.000 HD 
ENDBRANCH  19  22
ENDBRANCH  18  19
ENDBRANCH  16  18
ENDBRANCH  11  14
BRANCH  13  25
HETATM   25  C   UNL     1      -8.623  11.286  67.967  1.00  0.00    -0.140 C  
HETATM   26  O   UNL     1      -8.831  10.951  66.806  1.00  0.00    -0.140 OA 
HETATM   27  H   UNL     1      -7.996  10.697  69.873  1.00  0.00     0.000 HD 
HETATM   28  N   UNL     1      -8.211  10.380  68.927  1.00  0.00    -0.123 N  
BRANCH  28  29
HETATM   29  C   UNL     1      -8.084   8.969  68.581  1.00  0.00    -0.107 C  
BRANCH  29  30
HETATM   30  C   UNL     1      -8.641   8.038  69.668  1.00  0.00    -0.135 C  
HETATM   31  H   UNL     1     -10.355   7.806  70.606  1.00  0.00     0.000 HD 
HETATM   32  O   UNL     1     -10.011   8.381  69.933  1.00  0.00    -0.184 OA 
BRANCH  30  33
HETATM   33  C   UNL     1      -8.540   6.564  69.240  1.00  0.00    -0.127 C  
HETATM   34  O   UNL     1      -7.710   6.409  68.091  1.00  0.00    -0.101 OA 
HETATM   35  H   UNL     1      -7.648   5.498  67.827  1.00  0.00     0.000 HD 
ENDBRANCH  30  33
ENDBRANCH  29  30
ENDBRANCH  28  29
ENDBRANCH  13  25
ENDBRANCH   4   5
BRANCH   4  36
HETATM   36  C   UNL     1     -12.679  14.957  69.374  1.00  0.00     0.204 C  
BRANCH  36  37
HETATM   37  C   UNL     1     -12.768  15.458  67.907  1.00  0.00     1.635 C  
HETATM   38  O   UNL     1     -11.974  16.630  67.673  1.00  0.00     0.605 OA 
HETATM   39  H   UNL     1     -12.028  16.937  66.775  1.00  0.00     0.000 HD 
BRANCH  37  40
HETATM   40  C   UNL     1     -12.320  14.416  66.877  1.00  0.00    -0.130 C  
HETATM   41  O   UNL     1     -11.268  14.960  66.073  1.00  0.00    -0.337 OA 
HETATM   42  H   UNL     1     -10.991  14.314  65.434  1.00  0.00     0.000 HD 
ENDBRANCH  37  40
ENDBRANCH  36  37
ENDBRANCH   4  36
TORSDOF 12
ENDMDL
MODEL      179
REMARK 921   NORMALIZED FREE ENERGY PREDICTED BY IDOCK:    1.53 KCAL/MOL
REMARK 922        TOTAL FREE ENERGY PREDICTED BY IDOCK:    1.41 KCAL/MOL
REMARK 923 INTER-LIGAND FREE ENERGY PREDICTED BY IDOCK:   -0.58 KCAL/MOL
REMARK 924 INTRA-LIGAND FREE ENERGY PREDICTED BY IDOCK:    1.99 KCAL/MOL
REMARK 927      BINDING AFFINITY PREDICTED BY RF-SCORE:    0.00 PKD
ROOT
HETATM    1  C   UNL     1     -12.547  15.876  64.208  1.00  0.00     0.698 C  
HETATM    2  C   UNL     1     -11.366  15.134  64.772  1.00  0.00    -0.395 C  
HETATM    3  O   UNL     1     -10.861  14.209  64.131  1.00  0.00    -0.153 OA 
HETATM    4  N   UNL     1     -10.898  15.528  66.029  1.00  0.00    -0.319 N  
ENDROOT
BRANCH   4   5
HETATM    5  C   UNL     1      -9.731  14.852  66.516  1.00  0.00    -0.276 A  
HETATM    6  C   UNL     1      -7.578  13.617  67.827  1.00  0.00    -0.164 A  
HETATM    7  C   UNL     1      -9.796  13.466  66.820  1.00  0.00    -0.265 A  
HETATM    8  C   UNL     1      -8.535  15.579  66.746  1.00  0.00    -0.279 A  
HETATM    9  I   UNL     1      -8.411  17.620  66.021  1.00  0.00     0.372 I  
HETATM   10  I   UNL     1     -11.557  12.385  66.173  1.00  0.00    -0.354 I  
HETATM   11  C   UNL     1      -7.450  14.973  67.418  1.00  0.00    -0.234 A  
HETATM   12  I   UNL     1      -6.117  12.807  69.222  1.00  0.00    -0.109 I  
HETATM   13  C   UNL     1      -8.721  12.833  67.478  1.00  0.00    -0.185 A  
BRANCH  11  14
HETATM   14  C   UNL     1      -6.268  15.806  67.794  1.00  0.00    -0.154 C  
HETATM   15  O   UNL     1      -5.138  15.466  67.463  1.00  0.00    -0.301 OA 
HETATM   16  N   UNL     1      -6.518  16.951  68.517  1.00  0.00    -0.156 N  
HETATM   17  H   UNL     1      -7.481  17.199  68.747  1.00  0.00     0.000 HD 
BRANCH  16  18
HETATM   18  C   UNL     1      -5.427  17.819  68.961  1.00  0.00    -0.183 C  
BRANCH  18  19
HETATM   19  C   UNL     1      -5.877  18.786  70.061  1.00  0.00    -0.238 C  
HETATM   20  H   UNL     1      -5.458  20.630  70.593  1.00  0.00     0.000 HD 
HETATM   21  O   UNL     1      -5.178  20.031  69.911  1.00  0.00    -0.192 OA 
BRANCH  19  22
HETATM   22  C   UNL     1      -7.396  19.010  70.026  1.00  0.00     0.613 C  
HETATM   23  O   UNL     1      -7.824  19.847  71.099  1.00  0.00     1.235 OA 
HETATM   24  H   UNL     1      -8.764  19.986  71.077  1.00  0.00     0.000 HD 
ENDBRANCH  19  22
ENDBRANCH  18  19
ENDBRANCH  16  18
ENDBRANCH  11  14
BRANCH  13  25
HETATM   25  C   UNL     1      -8.710  11.358  67.755  1.00  0.00    -0.136 C  
HETATM   26  O   UNL     1      -9.008  10.954  68.873  1.00  0.00    -0.167 OA 
HETATM   27  H   UNL     1      -8.161  10.854  65.801  1.00  0.00     0.000 HD 
HETATM   28  N   UNL     1      -8.354  10.493  66.735  1.00  0.00    -0.126 N  
BRANCH  28  29
HETATM   29  C   UNL     1      -8.256   9.063  67.003  1.00  0.00    -0.109 C  
BRANCH  29  30
HETATM   30  C   UNL     1      -6.829   8.523  66.835  1.00  0.00    -0.069 C  
HETATM   31  H   UNL     1      -5.090   8.792  67.715  1.00  0.00     0.000 HD 
HETATM   32  O   UNL     1      -5.973   9.126  67.819  1.00  0.00    -0.048 OA 
BRANCH  30  33
HETATM   33  C   UNL     1      -6.796   6.992  66.975  1.00  0.00    -0.068 C  
HETATM   34  O   UNL     1      -6.924   6.348  65.709  1.00  0.00    -0.058 OA 
HETATM   35  H   UNL     1      -6.903   5.402  65.795  1.00  0.00     0.000 HD 
ENDBRANCH  30  33
ENDBRANCH  29  30
ENDBRANCH  28  29
ENDBRANCH  13  25
ENDBRANCH   4   5
BRANCH   4  36
HETATM   36  C   UNL     1     -11.485  16.616  66.860  1.00  0.00     0.713 C  
BRANCH  36  37
HETATM   37  C   UNL     1     -11.384  16.469  68.402  1.00  0.00    -0.209 C  
HETATM   38  O   UNL     1     -12.008  17.554  69.105  1.00  0.00     1.246 OA 
HETATM   39  H   UNL     1     -11.946  17.464  70.049  1.00  0.00     0.000 HD 
BRANCH  37  40
HETATM   40  C   UNL     1     -12.018  15.181  68.937  1.00  0.00    -0.253 C  
HETATM   41  O   UNL     1     -11.165  14.606  69.933  1.00  0.00    -0.253 OA 
HETATM   42  H   UNL     1     -11.558  13.807  70.265  1.00  0.00     0.000 HD 
ENDBRANCH  37  40
ENDBRANCH  36  37
ENDBRANCH   4  36
TORSDOF 12
ENDMDL
MODEL      180
REMARK 921   NORMALIZED FREE ENERGY PREDICTED BY IDOCK:    1.83 KCAL/MOL
REMARK 922        TOTAL FREE ENERGY PREDICTED BY IDOCK:    1.91 KCAL/MOL
REMARK 923 INTER-LIGAND FREE ENERGY PREDICTED BY IDOCK:   -3.25 KCAL/MOL
REMARK 924 INTRA-LIGAND FREE ENERGY PREDICTED BY IDOCK:    5.16 KCAL/MOL
REMARK 927      BINDING AFFINITY PREDICTED BY RF-SCORE:    0.00 PKD
ROOT
HETATM    1  C   UNL     1     -11.964  15.975  72.606  1.00  0.00    -0.646 C  
HETATM    2  C   UNL     1     -11.152  15.312  71.527  1.00  0.00    -0.210 C  
HETATM    3  O   UNL     1      -9.921  15.374  71.562  1.00  0.00     1.112 OA 
HETATM    4  N   UNL     1     -11.848  14.656  70.507  1.00  0.00    -0.288 N  
ENDROOT
BRANCH   4   5
HETATM    5  C   UNL     1     -11.053  13.975  69.528  1.00  0.00    -0.153 A  
HETATM    6  C   UNL     1      -9.196  12.698  67.855  1.00  0.00    -0.201 A  
HETATM    7  C   UNL     1     -10.879  12.569  69.618  1.00  0.00     0.322 A  
HETATM    8  C   UNL     1     -10.399  14.712  68.508  1.00  0.00    -0.238 A  
HETATM    9  I   UNL     1     -10.909  16.807  68.258  1.00  0.00    -0.155 I  
HETATM   10  I   UNL     1     -12.133  11.496  71.021  1.00  0.00     0.369 I  
HETATM   11  C   UNL     1      -9.452  14.084  67.669  1.00  0.00    -0.210 A  
HETATM   12  I   UNL     1      -7.458  11.819  66.884  1.00  0.00     0.076 I  
HETATM   13  C   UNL     1      -9.949  11.914  68.784  1.00  0.00    -0.105 A  
BRANCH  11  14
HETATM   14  C   UNL     1      -8.658  14.916  66.715  1.00  0.00    -0.222 C  
HETATM   15  O   UNL     1      -8.930  14.921  65.520  1.00  0.00     0.323 OA 
HETATM   16  N   UNL     1      -7.627  15.658  67.245  1.00  0.00    -0.194 N  
HETATM   17  H   UNL     1      -7.457  15.635  68.251  1.00  0.00     0.000 HD 
BRANCH  16  18
HETATM   18  C   UNL     1      -6.770  16.481  66.391  1.00  0.00     0.236 C  
BRANCH  18  19
HETATM   19  C   UNL     1      -6.706  17.933  66.875  1.00  0.00    -0.178 C  
HETATM   20  H   UNL     1      -5.297  19.264  67.200  1.00  0.00     0.000 HD 
HETATM   21  O   UNL     1      -5.336  18.364  66.900  1.00  0.00    -0.131 OA 
BRANCH  19  22
HETATM   22  C   UNL     1      -7.548  18.860  65.986  1.00  0.00    -0.231 C  
HETATM   23  O   UNL     1      -6.750  19.891  65.404  1.00  0.00    -0.267 OA 
HETATM   24  H   UNL     1      -7.272  20.464  64.855  1.00  0.00     0.000 HD 
ENDBRANCH  19  22
ENDBRANCH  18  19
ENDBRANCH  16  18
ENDBRANCH  11  14
BRANCH  13  25
HETATM   25  C   UNL     1      -9.781  10.423  68.789  1.00  0.00    -0.183 C  
HETATM   26  O   UNL     1      -9.419   9.862  69.818  1.00  0.00    -0.210 OA 
HETATM   27  H   UNL     1     -10.383  10.207  66.798  1.00  0.00     0.000 HD 
HETATM   28  N   UNL     1     -10.034   9.721  67.624  1.00  0.00    -0.165 N  
BRANCH  28  29
HETATM   29  C   UNL     1      -9.799   8.282  67.582  1.00  0.00    -0.169 C  
BRANCH  29  30
HETATM   30  C   UNL     1     -10.201   7.653  66.241  1.00  0.00     0.225 C  
HETATM   31  H   UNL     1      -9.745   7.923  64.346  1.00  0.00     0.000 HD 
HETATM   32  O   UNL     1      -9.496   8.312  65.175  1.00  0.00     0.337 OA 
BRANCH  30  33
HETATM   33  C   UNL     1      -9.895   6.146  66.221  1.00  0.00    -0.029 C  
HETATM   34  O   UNL     1     -11.091   5.370  66.226  1.00  0.00    -0.707 OA 
HETATM   35  H   UNL     1     -10.903   4.439  66.214  1.00  0.00     0.000 HD 
ENDBRANCH  30  33
ENDBRANCH  29  30
ENDBRANCH  28  29
ENDBRANCH  13  25
ENDBRANCH   4   5
BRANCH   4  36
HETATM   36  C   UNL     1     -13.331  14.574  70.397  1.00  0.00     0.153 C  
BRANCH  36  37
HETATM   37  C   UNL     1     -14.143  14.529  71.720  1.00  0.00    -0.495 C  
HETATM   38  O   UNL     1     -13.499  13.751  72.739  1.00  0.00    -0.616 OA 
HETATM   39  H   UNL     1     -13.996  13.723  73.549  1.00  0.00     0.000 HD 
BRANCH  37  40
HETATM   40  C   UNL     1     -14.402  15.912  72.326  1.00  0.00    -0.084 C  
HETATM   41  O   UNL     1     -14.128  15.878  73.731  1.00  0.00    -0.312 OA 
HETATM   42  H   UNL     1     -14.289  16.735  74.106  1.00  0.00     0.000 HD 
ENDBRANCH  37  40
ENDBRANCH  36  37
ENDBRANCH   4  36
TORSDOF 12
ENDMDL
MODEL      181
REMARK 921   NORMALIZED FREE ENERGY PREDICTED BY IDOCK:    2.01 KCAL/MOL
REMARK 922        TOTAL FREE ENERGY PREDICTED BY IDOCK:    2.23 KCAL/MOL
REMARK 923 INTER-LIGAND FREE ENERGY PREDICTED BY IDOCK:   -4.57 KCAL/MOL
REMARK 924 INTRA-LIGAND FREE ENERGY PREDICTED BY IDOCK:    6.80 KCAL/MOL
REMARK 927      BINDING AFFINITY PREDICTED BY RF-SCORE:    0.00 PKD
ROOT
HETATM    1  C   UNL     1      -8.310   7.348  64.292  1.00  0.00     0.107 C  
HETATM    2  C   UNL     1      -8.713   7.121  65.723  1.00  0.00    -0.107 C  
HETATM    3  O   UNL     1      -9.427   6.157  66.013  1.00  0.00    -0.121 OA 
HETATM    4  N   UNL     1      -8.264   8.042  66.673  1.00  0.00    -0.106 N  
ENDROOT
BRANCH   4   5
HETATM    5  C   UNL     1      -8.605   7.769  68.038  1.00  0.00    -0.123 A  
HETATM    6  C   UNL     1      -9.586   7.047  70.568  1.00  0.00    -0.169 A  
HETATM    7  C   UNL     1      -8.156   6.568  68.649  1.00  0.00    -0.118 A  
HETATM    8  C   UNL     1      -9.435   8.667  68.755  1.00  0.00    -0.143 A  
HETATM    9  I   UNL     1      -9.872  10.600  67.871  1.00  0.00    -0.208 I  
HETATM   10  I   UNL     1      -6.670   5.405  67.586  1.00  0.00    -0.058 I  
HETATM   11  C   UNL     1      -9.947   8.309  70.023  1.00  0.00    -0.188 A  
HETATM   12  I   UNL     1     -10.688   6.300  72.290  1.00  0.00    -0.319 I  
HETATM   13  C   UNL     1      -8.640   6.193  69.919  1.00  0.00    -0.132 A  
BRANCH  11  14
HETATM   14  C   UNL     1     -10.949   9.200  70.683  1.00  0.00    -0.263 C  
HETATM   15  O   UNL     1     -11.299   8.992  71.839  1.00  0.00    -0.349 OA 
HETATM   16  N   UNL     1     -11.446  10.242  69.933  1.00  0.00    -0.264 N  
HETATM   17  H   UNL     1     -11.104  10.383  68.982  1.00  0.00     0.000 HD 
BRANCH  16  18
HETATM   18  C   UNL     1     -12.455  11.152  70.476  1.00  0.00    -0.327 C  
BRANCH  18  19
HETATM   19  C   UNL     1     -13.056  10.624  71.782  1.00  0.00    -0.466 C  
HETATM   20  H   UNL     1     -13.855  11.405  73.399  1.00  0.00     0.000 HD 
HETATM   21  O   UNL     1     -13.482  11.732  72.589  1.00  0.00    -0.028 OA 
BRANCH  19  22
HETATM   22  C   UNL     1     -14.228   9.667  71.516  1.00  0.00     0.195 C  
HETATM   23  O   UNL     1     -14.235   8.582  72.443  1.00  0.00    -0.555 OA 
HETATM   24  H   UNL     1     -14.960   7.990  72.278  1.00  0.00     0.000 HD 
ENDBRANCH  19  22
ENDBRANCH  18  19
ENDBRANCH  16  18
ENDBRANCH  11  14
BRANCH  13  25
HETATM   25  C   UNL     1      -8.141   4.974  70.638  1.00  0.00    -0.094 C  
HETATM   26  O   UNL     1      -7.163   5.067  71.372  1.00  0.00    -0.060 OA 
HETATM   27  H   UNL     1      -9.638   3.734  69.867  1.00  0.00     0.000 HD 
HETATM   28  N   UNL     1      -8.797   3.772  70.443  1.00  0.00    -0.079 N  
BRANCH  28  29
HETATM   29  C   UNL     1      -8.281   2.558  71.065  1.00  0.00    -0.053 C  
BRANCH  29  30
HETATM   30  C   UNL     1      -8.531   2.514  72.579  1.00  0.00    -0.063 C  
HETATM   31  H   UNL     1      -7.544   1.909  74.170  1.00  0.00     0.000 HD 
HETATM   32  O   UNL     1      -7.389   1.936  73.234  1.00  0.00    -0.027 OA 
BRANCH  30  33
HETATM   33  C   UNL     1      -8.802   3.921  73.137  1.00  0.00    -0.097 C  
HETATM   34  O   UNL     1      -7.721   4.379  73.947  1.00  0.00    -0.083 OA 
HETATM   35  H   UNL     1      -7.889   5.248  74.292  1.00  0.00     0.000 HD 
ENDBRANCH  30  33
ENDBRANCH  29  30
ENDBRANCH  28  29
ENDBRANCH  13  25
ENDBRANCH   4   5
BRANCH   4  36
HETATM   36  C   UNL     1      -7.427   9.239  66.379  1.00  0.00    -0.093 C  
BRANCH  36  37
HETATM   37  C   UNL     1      -5.938   9.191  66.812  1.00  0.00    -0.056 C  
HETATM   38  O   UNL     1      -5.151  10.229  66.209  1.00  0.00    -0.038 OA 
HETATM   39  H   UNL     1      -4.239  10.200  66.474  1.00  0.00     0.000 HD 
BRANCH  37  40
HETATM   40  C   UNL     1      -5.736   9.316  68.326  1.00  0.00    -0.038 C  
HETATM   41  O   UNL     1      -6.427  10.475  68.806  1.00  0.00    -0.050 OA 
HETATM   42  H   UNL     1      -6.302  10.552  69.744  1.00  0.00     0.000 HD 
ENDBRANCH  37  40
ENDBRANCH  36  37
ENDBRANCH   4  36
TORSDOF 12
ENDMDL
MODEL      182
REMARK 921   NORMALIZED FREE ENERGY PREDICTED BY IDOCK:    2.19 KCAL/MOL
REMARK 922        TOTAL FREE ENERGY PREDICTED BY IDOCK:    2.52 KCAL/MOL
REMARK 923 INTER-LIGAND FREE ENERGY PREDICTED BY IDOCK:    1.20 KCAL/MOL
REMARK 924 INTRA-LIGAND FREE ENERGY PREDICTED BY IDOCK:    1.32 KCAL/MOL
REMARK 927      BINDING AFFINITY PREDICTED BY RF-SCORE:    0.00 PKD
ROOT
HETATM    1  C   UNL     1      -9.948  19.747  65.652  1.00  0.00    -0.203 C  
HETATM    2  C   UNL     1     -10.337  18.537  66.456  1.00  0.00    -0.414 C  
HETATM    3  O   UNL     1     -11.509  18.154  66.458  1.00  0.00     0.880 OA 
HETATM    4  N   UNL     1      -9.332  17.899  67.189  1.00  0.00    -0.260 N  
ENDROOT
BRANCH   4   5
HETATM    5  C   UNL     1      -9.712  16.710  67.893  1.00  0.00    -0.244 A  
HETATM    6  C   UNL     1     -10.808  14.428  69.106  1.00  0.00    -0.257 A  
HETATM    7  C   UNL     1      -9.570  15.444  67.265  1.00  0.00    -0.211 A  
HETATM    8  C   UNL     1     -10.280  16.804  69.189  1.00  0.00    -0.306 A  
HETATM    9  I   UNL     1     -10.230  18.722  70.202  1.00  0.00     2.489 I  
HETATM   10  I   UNL     1      -8.438  15.370  65.420  1.00  0.00     4.867 I  
HETATM   11  C   UNL     1     -10.848  15.665  69.804  1.00  0.00    -0.310 A  
HETATM   12  I   UNL     1     -12.038  12.784  69.827  1.00  0.00    -0.033 I  
HETATM   13  C   UNL     1     -10.115  14.290  67.863  1.00  0.00    -0.233 A  
BRANCH  11  14
HETATM   14  C   UNL     1     -11.586  15.825  71.093  1.00  0.00    -0.419 C  
HETATM   15  O   UNL     1     -10.975  15.888  72.154  1.00  0.00     0.140 OA 
HETATM   16  N   UNL     1     -12.959  15.894  71.021  1.00  0.00    -0.589 N  
HETATM   17  H   UNL     1     -13.416  15.859  70.109  1.00  0.00     0.000 HD 
BRANCH  16  18
HETATM   18  C   UNL     1     -13.775  16.019  72.229  1.00  0.00    -0.070 C  
BRANCH  18  19
HETATM   19  C   UNL     1     -13.698  14.762  73.102  1.00  0.00     0.079 C  
HETATM   20  H   UNL     1     -13.201  12.878  72.844  1.00  0.00     0.000 HD 
HETATM   21  O   UNL     1     -13.249  13.657  72.303  1.00  0.00    -0.422 OA 
BRANCH  19  22
HETATM   22  C   UNL     1     -12.769  14.970  74.308  1.00  0.00     0.022 C  
HETATM   23  O   UNL     1     -12.553  16.357  74.565  1.00  0.00    -0.809 OA 
HETATM   24  H   UNL     1     -11.978  16.486  75.311  1.00  0.00     0.000 HD 
ENDBRANCH  19  22
ENDBRANCH  18  19
ENDBRANCH  16  18
ENDBRANCH  11  14
BRANCH  13  25
HETATM   25  C   UNL     1      -9.928  12.921  67.276  1.00  0.00    -0.224 C  
HETATM   26  O   UNL     1     -10.669  12.547  66.374  1.00  0.00    -0.243 OA 
HETATM   27  H   UNL     1      -8.290  12.470  68.495  1.00  0.00     0.000 HD 
HETATM   28  N   UNL     1      -8.924  12.113  67.780  1.00  0.00    -0.171 N  
BRANCH  28  29
HETATM   29  C   UNL     1      -8.775  10.750  67.283  1.00  0.00    -0.130 C  
BRANCH  29  30
HETATM   30  C   UNL     1      -7.451  10.103  67.711  1.00  0.00    -0.089 C  
HETATM   31  H   UNL     1      -5.536  10.468  67.452  1.00  0.00     0.000 HD 
HETATM   32  O   UNL     1      -6.354  10.869  67.187  1.00  0.00    -0.063 OA 
BRANCH  30  33
HETATM   33  C   UNL     1      -7.348  10.014  69.243  1.00  0.00    -0.091 C  
HETATM   34  O   UNL     1      -8.549   9.505  69.820  1.00  0.00    -0.155 OA 
HETATM   35  H   UNL     1      -8.485   9.451  70.766  1.00  0.00     0.000 HD 
ENDBRANCH  30  33
ENDBRANCH  29  30
ENDBRANCH  28  29
ENDBRANCH  13  25
ENDBRANCH   4   5
BRANCH   4  36
HETATM   36  C   UNL     1      -7.908  18.333  67.248  1.00  0.00    -0.226 C  
BRANCH  36  37
HETATM   37  C   UNL     1      -7.600  19.676  67.962  1.00  0.00    -0.299 C  
HETATM   38  O   UNL     1      -6.709  19.520  69.077  1.00  0.00    -0.297 OA 
HETATM   39  H   UNL     1      -6.521  20.343  69.514  1.00  0.00     0.000 HD 
BRANCH  37  40
HETATM   40  C   UNL     1      -6.969  20.727  67.043  1.00  0.00    -0.325 C  
HETATM   41  O   UNL     1      -6.243  20.073  65.997  1.00  0.00    -0.181 OA 
HETATM   42  H   UNL     1      -5.852  20.725  65.427  1.00  0.00     0.000 HD 
ENDBRANCH  37  40
ENDBRANCH  36  37
ENDBRANCH   4  36
TORSDOF 12
ENDMDL
MODEL      183
REMARK 921   NORMALIZED FREE ENERGY PREDICTED BY IDOCK:    2.36 KCAL/MOL
REMARK 922        TOTAL FREE ENERGY PREDICTED BY IDOCK:    2.81 KCAL/MOL
REMARK 923 INTER-LIGAND FREE ENERGY PREDICTED BY IDOCK:   -3.16 KCAL/MOL
REMARK 924 INTRA-LIGAND FREE ENERGY PREDICTED BY IDOCK:    5.97 KCAL/MOL
REMARK 927      BINDING AFFINITY PREDICTED BY RF-SCORE:    0.00 PKD
ROOT
HETATM    1  C   UNL     1     -11.862  15.546  72.650  1.00  0.00    -0.575 C  
HETATM    2  C   UNL     1     -11.189  15.019  71.413  1.00  0.00    -0.202 C  
HETATM    3  O   UNL     1      -9.957  15.016  71.340  1.00  0.00     1.073 OA 
HETATM    4  N   UNL     1     -12.008  14.563  70.377  1.00  0.00    -0.298 N  
ENDROOT
BRANCH   4   5
HETATM    5  C   UNL     1     -11.344  14.003  69.237  1.00  0.00    -0.273 A  
HETATM    6  C   UNL     1      -9.717  12.925  67.219  1.00  0.00    -0.220 A  
HETATM    7  C   UNL     1     -11.210  12.594  69.121  1.00  0.00    -0.243 A  
HETATM    8  C   UNL     1     -10.775  14.857  68.258  1.00  0.00    -0.249 A  
HETATM    9  I   UNL     1     -11.235  16.976  68.342  1.00  0.00     0.606 I  
HETATM   10  I   UNL     1     -12.348  11.369  70.498  1.00  0.00    -0.290 I  
HETATM   11  C   UNL     1      -9.942  14.328  67.246  1.00  0.00    -0.252 A  
HETATM   12  I   UNL     1      -8.120  12.149  65.959  1.00  0.00     1.350 I  
HETATM   13  C   UNL     1     -10.396  12.039  68.113  1.00  0.00    -0.207 A  
BRANCH  11  14
HETATM   14  C   UNL     1      -9.223  15.265  66.330  1.00  0.00    -0.307 C  
HETATM   15  O   UNL     1      -9.713  15.574  65.249  1.00  0.00    -0.270 OA 
HETATM   16  N   UNL     1      -8.009  15.748  66.761  1.00  0.00    -0.246 N  
HETATM   17  H   UNL     1      -7.658  15.476  67.680  1.00  0.00     0.000 HD 
BRANCH  16  18
HETATM   18  C   UNL     1      -7.212  16.646  65.925  1.00  0.00     0.692 C  
BRANCH  18  19
HETATM   19  C   UNL     1      -5.803  16.853  66.489  1.00  0.00    -0.030 C  
HETATM   20  H   UNL     1      -4.461  18.289  66.476  1.00  0.00     0.000 HD 
HETATM   21  O   UNL     1      -5.335  18.160  66.126  1.00  0.00    -0.142 OA 
BRANCH  19  22
HETATM   22  C   UNL     1      -5.776  16.673  68.015  1.00  0.00    -0.120 C  
HETATM   23  O   UNL     1      -5.887  15.298  68.380  1.00  0.00    -0.093 OA 
HETATM   24  H   UNL     1      -5.870  15.188  69.323  1.00  0.00     0.000 HD 
ENDBRANCH  19  22
ENDBRANCH  18  19
ENDBRANCH  16  18
ENDBRANCH  11  14
BRANCH  13  25
HETATM   25  C   UNL     1     -10.280  10.557  67.904  1.00  0.00    -0.183 C  
HETATM   26  O   UNL     1     -11.023  10.004  67.101  1.00  0.00    -0.226 OA 
HETATM   27  H   UNL     1      -8.699  10.348  69.256  1.00  0.00     0.000 HD 
HETATM   28  N   UNL     1      -9.338   9.854  68.633  1.00  0.00    -0.145 N  
BRANCH  28  29
HETATM   29  C   UNL     1      -9.263   8.403  68.508  1.00  0.00    -0.135 C  
BRANCH  29  30
HETATM   30  C   UNL     1      -8.503   7.745  69.667  1.00  0.00    -0.133 C  
HETATM   31  H   UNL     1      -8.007   8.234  71.508  1.00  0.00     0.000 HD 
HETATM   32  O   UNL     1      -8.478   8.641  70.790  1.00  0.00    -0.128 OA 
BRANCH  30  33
HETATM   33  C   UNL     1      -9.155   6.412  70.072  1.00  0.00    -0.150 C  
HETATM   34  O   UNL     1     -10.569   6.541  70.205  1.00  0.00    -0.206 OA 
HETATM   35  H   UNL     1     -10.972   5.718  70.455  1.00  0.00     0.000 HD 
ENDBRANCH  30  33
ENDBRANCH  29  30
ENDBRANCH  28  29
ENDBRANCH  13  25
ENDBRANCH   4   5
BRANCH   4  36
HETATM   36  C   UNL     1     -13.498  14.569  70.396  1.00  0.00     0.301 C  
BRANCH  36  37
HETATM   37  C   UNL     1     -14.194  14.416  71.775  1.00  0.00    -0.488 C  
HETATM   38  O   UNL     1     -14.230  13.055  72.230  1.00  0.00    -0.351 OA 
HETATM   39  H   UNL     1     -14.656  12.961  73.074  1.00  0.00     0.000 HD 
BRANCH  37  40
HETATM   40  C   UNL     1     -13.529  15.230  72.890  1.00  0.00    -0.512 C  
HETATM   41  O   UNL     1     -14.402  16.292  73.291  1.00  0.00    -0.508 OA 
HETATM   42  H   UNL     1     -13.990  16.797  73.982  1.00  0.00     0.000 HD 
ENDBRANCH  37  40
ENDBRANCH  36  37
ENDBRANCH   4  36
TORSDOF 12
ENDMDL
MODEL      184
REMARK 921   NORMALIZED FREE ENERGY PREDICTED BY IDOCK:    2.61 KCAL/MOL
REMARK 922        TOTAL FREE ENERGY PREDICTED BY IDOCK:    3.25 KCAL/MOL
REMARK 923 INTER-LIGAND FREE ENERGY PREDICTED BY IDOCK:    1.10 KCAL/MOL
REMARK 924 INTRA-LIGAND FREE ENERGY PREDICTED BY IDOCK:    2.14 KCAL/MOL
REMARK 927      BINDING AFFINITY PREDICTED BY RF-SCORE:    0.00 PKD
ROOT
HETATM    1  C   UNL     1      -9.465   7.890  63.270  1.00  0.00     2.818 C  
HETATM    2  C   UNL     1      -8.645   7.981  64.528  1.00  0.00     0.145 C  
HETATM    3  O   UNL     1      -7.656   7.256  64.668  1.00  0.00    -0.090 OA 
HETATM    4  N   UNL     1      -9.060   8.892  65.504  1.00  0.00    -0.207 N  
ENDROOT
BRANCH   4   5
HETATM    5  C   UNL     1      -8.225   9.010  66.663  1.00  0.00    -0.118 A  
HETATM    6  C   UNL     1      -6.888   9.437  69.094  1.00  0.00    -0.050 A  
HETATM    7  C   UNL     1      -8.300   8.028  67.687  1.00  0.00    -0.128 A  
HETATM    8  C   UNL     1      -7.371  10.132  66.810  1.00  0.00    -0.104 A  
HETATM    9  I   UNL     1      -7.098  11.453  65.110  1.00  0.00     2.194 I  
HETATM   10  I   UNL     1      -9.406   6.218  67.253  1.00  0.00    -0.153 I  
HETATM   11  C   UNL     1      -6.703  10.365  68.034  1.00  0.00    -0.065 A  
HETATM   12  I   UNL     1      -6.232   9.992  71.093  1.00  0.00     0.360 I  
HETATM   13  C   UNL     1      -7.633   8.230  68.913  1.00  0.00    -0.093 A  
BRANCH  11  14
HETATM   14  C   UNL     1      -5.943  11.638  68.218  1.00  0.00    -0.045 C  
HETATM   15  O   UNL     1      -5.193  12.047  67.338  1.00  0.00    -0.078 OA 
HETATM   16  N   UNL     1      -6.130  12.309  69.406  1.00  0.00    -0.098 N  
HETATM   17  H   UNL     1      -6.783  11.936  70.095  1.00  0.00     0.000 HD 
BRANCH  16  18
HETATM   18  C   UNL     1      -5.408  13.548  69.697  1.00  0.00    -0.088 C  
BRANCH  18  19
HETATM   19  C   UNL     1      -6.220  14.787  69.306  1.00  0.00    -0.110 C  
HETATM   20  H   UNL     1      -6.194  16.103  67.846  1.00  0.00     0.000 HD 
HETATM   21  O   UNL     1      -5.691  15.335  68.089  1.00  0.00    -0.115 OA 
BRANCH  19  22
HETATM   22  C   UNL     1      -7.711  14.456  69.146  1.00  0.00    -0.050 C  
HETATM   23  O   UNL     1      -8.059  14.267  67.775  1.00  0.00    -0.143 OA 
HETATM   24  H   UNL     1      -8.982  14.063  67.677  1.00  0.00     0.000 HD 
ENDBRANCH  19  22
ENDBRANCH  18  19
ENDBRANCH  16  18
ENDBRANCH  11  14
BRANCH  13  25
HETATM   25  C   UNL     1      -7.621   7.191  69.996  1.00  0.00    -0.091 C  
HETATM   26  O   UNL     1      -6.886   6.215  69.886  1.00  0.00    -0.053 OA 
HETATM   27  H   UNL     1      -9.012   8.208  71.181  1.00  0.00     0.000 HD 
HETATM   28  N   UNL     1      -8.450   7.362  71.091  1.00  0.00    -0.117 N  
BRANCH  28  29
HETATM   29  C   UNL     1      -8.516   6.327  72.116  1.00  0.00    -0.112 C  
BRANCH  29  30
HETATM   30  C   UNL     1      -9.956   5.950  72.488  1.00  0.00    -0.177 C  
HETATM   31  H   UNL     1     -10.972   5.666  74.149  1.00  0.00     0.000 HD 
HETATM   32  O   UNL     1     -10.081   5.899  73.919  1.00  0.00    -0.194 OA 
BRANCH  30  33
HETATM   33  C   UNL     1     -10.961   6.960  71.908  1.00  0.00    -0.235 C  
HETATM   34  O   UNL     1     -12.307   6.538  72.119  1.00  0.00    -0.471 OA 
HETATM   35  H   UNL     1     -12.928   7.161  71.761  1.00  0.00     0.000 HD 
ENDBRANCH  30  33
ENDBRANCH  29  30
ENDBRANCH  28  29
ENDBRANCH  13  25
ENDBRANCH   4   5
BRANCH   4  36
HETATM   36  C   UNL     1     -10.258   9.770  65.402  1.00  0.00     0.021 C  
BRANCH  36  37
HETATM   37  C   UNL     1     -10.248  11.089  66.220  1.00  0.00    -0.245 C  
HETATM   38  O   UNL     1     -10.974  12.147  65.577  1.00  0.00    -0.282 OA 
HETATM   39  H   UNL     1     -10.967  12.954  66.078  1.00  0.00     0.000 HD 
BRANCH  37  40
HETATM   40  C   UNL     1     -10.844  10.943  67.625  1.00  0.00    -0.266 C  
HETATM   41  O   UNL     1     -11.813  11.974  67.842  1.00  0.00    -0.457 OA 
HETATM   42  H   UNL     1     -12.182  11.883  68.712  1.00  0.00     0.000 HD 
ENDBRANCH  37  40
ENDBRANCH  36  37
ENDBRANCH   4  36
TORSDOF 12
ENDMDL
MODEL      185
REMARK 921   NORMALIZED FREE ENERGY PREDICTED BY IDOCK:    2.80 KCAL/MOL
REMARK 922        TOTAL FREE ENERGY PREDICTED BY IDOCK:    3.56 KCAL/MOL
REMARK 923 INTER-LIGAND FREE ENERGY PREDICTED BY IDOCK:   -5.00 KCAL/MOL
REMARK 924 INTRA-LIGAND FREE ENERGY PREDICTED BY IDOCK:    8.56 KCAL/MOL
REMARK 927      BINDING AFFINITY PREDICTED BY RF-SCORE:    0.00 PKD
ROOT
HETATM    1  C   UNL     1     -11.296  13.694  69.611  1.00  0.00    -0.226 C  
HETATM    2  C   UNL     1     -10.499  12.512  69.130  1.00  0.00     0.110 C  
HETATM    3  O   UNL     1      -9.296  12.642  68.889  1.00  0.00     0.075 OA 
HETATM    4  N   UNL     1     -11.178  11.302  68.961  1.00  0.00    -0.234 N  
ENDROOT
BRANCH   4   5
HETATM    5  C   UNL     1     -10.385  10.175  68.566  1.00  0.00    -0.180 A  
HETATM    6  C   UNL     1      -8.523   8.182  67.902  1.00  0.00    -0.132 A  
HETATM    7  C   UNL     1     -10.048   9.182  69.524  1.00  0.00    -0.197 A  
HETATM    8  C   UNL     1      -9.895  10.083  67.239  1.00  0.00    -0.181 A  
HETATM    9  I   UNL     1     -10.654  11.476  65.758  1.00  0.00    -0.274 I  
HETATM   10  I   UNL     1     -11.068   9.251  71.433  1.00  0.00    -0.375 I  
HETATM   11  C   UNL     1      -8.946   9.093  66.896  1.00  0.00    -0.143 A  
HETATM   12  I   UNL     1      -6.772   6.947  67.521  1.00  0.00    -0.074 I  
HETATM   13  C   UNL     1      -9.114   8.176  69.204  1.00  0.00    -0.148 A  
BRANCH  11  14
HETATM   14  C   UNL     1      -8.322   9.121  65.539  1.00  0.00    -0.133 C  
HETATM   15  O   UNL     1      -7.260   9.707  65.356  1.00  0.00    -0.095 OA 
HETATM   16  N   UNL     1      -8.993   8.468  64.530  1.00  0.00    -0.388 N  
HETATM   17  H   UNL     1      -9.863   7.977  64.742  1.00  0.00     0.000 HD 
BRANCH  16  18
HETATM   18  C   UNL     1      -8.482   8.463  63.159  1.00  0.00    -0.017 C  
BRANCH  18  19
HETATM   19  C   UNL     1      -8.150   9.876  62.669  1.00  0.00    -0.130 C  
HETATM   20  H   UNL     1      -8.458  11.711  63.302  1.00  0.00     0.000 HD 
HETATM   21  O   UNL     1      -8.664  10.835  63.606  1.00  0.00    -0.166 OA 
BRANCH  19  22
HETATM   22  C   UNL     1      -6.638  10.065  62.476  1.00  0.00    -0.117 C  
HETATM   23  O   UNL     1      -6.151  11.174  63.230  1.00  0.00    -0.286 OA 
HETATM   24  H   UNL     1      -5.216  11.291  63.110  1.00  0.00     0.000 HD 
ENDBRANCH  19  22
ENDBRANCH  18  19
ENDBRANCH  16  18
ENDBRANCH  11  14
BRANCH  13  25
HETATM   25  C   UNL     1      -8.780   7.063  70.154  1.00  0.00    -0.141 C  
HETATM   26  O   UNL     1      -9.421   6.019  70.107  1.00  0.00    -0.155 OA 
HETATM   27  H   UNL     1      -7.207   8.111  71.049  1.00  0.00     0.000 HD 
HETATM   28  N   UNL     1      -7.757   7.252  71.067  1.00  0.00    -0.088 N  
BRANCH  28  29
HETATM   29  C   UNL     1      -7.469   6.218  72.054  1.00  0.00    -0.094 C  
BRANCH  29  30
HETATM   30  C   UNL     1      -7.721   6.684  73.494  1.00  0.00    -0.090 C  
HETATM   31  H   UNL     1      -7.558   8.370  74.497  1.00  0.00     0.000 HD 
HETATM   32  O   UNL     1      -7.402   8.082  73.606  1.00  0.00    -0.127 OA 
BRANCH  30  33
HETATM   33  C   UNL     1      -9.183   6.444  73.907  1.00  0.00    -0.140 C  
HETATM   34  O   UNL     1      -9.855   7.670  74.190  1.00  0.00    -0.369 OA 
HETATM   35  H   UNL     1     -10.758   7.521  74.445  1.00  0.00     0.000 HD 
ENDBRANCH  30  33
ENDBRANCH  29  30
ENDBRANCH  28  29
ENDBRANCH  13  25
ENDBRANCH   4   5
BRANCH   4  36
HETATM   36  C   UNL     1     -12.632  11.093  69.207  1.00  0.00     0.267 C  
BRANCH  36  37
HETATM   37  C   UNL     1     -13.179  11.472  70.610  1.00  0.00     0.431 C  
HETATM   38  O   UNL     1     -12.978  10.435  71.582  1.00  0.00    -0.406 OA 
HETATM   39  H   UNL     1     -13.312  10.666  72.440  1.00  0.00     0.000 HD 
BRANCH  37  40
HETATM   40  C   UNL     1     -12.549  12.742  71.191  1.00  0.00    -0.271 C  
HETATM   41  O   UNL     1     -13.303  13.171  72.330  1.00  0.00    -0.507 OA 
HETATM   42  H   UNL     1     -12.912  13.959  72.689  1.00  0.00     0.000 HD 
ENDBRANCH  37  40
ENDBRANCH  36  37
ENDBRANCH   4  36
TORSDOF 12
ENDMDL
MODEL      186
REMARK 921   NORMALIZED FREE ENERGY PREDICTED BY IDOCK:    3.06 KCAL/MOL
REMARK 922        TOTAL FREE ENERGY PREDICTED BY IDOCK:    4.00 KCAL/MOL
REMARK 923 INTER-LIGAND FREE ENERGY PREDICTED BY IDOCK:   -2.52 KCAL/MOL
REMARK 924 INTRA-LIGAND FREE ENERGY PREDICTED BY IDOCK:    6.52 KCAL/MOL
REMARK 927      BINDING AFFINITY PREDICTED BY RF-SCORE:    0.00 PKD
ROOT
HETATM    1  C   UNL     1     -11.813  14.032  70.285  1.00  0.00    -0.373 C  
HETATM    2  C   UNL     1     -11.110  12.834  69.707  1.00  0.00     0.196 C  
HETATM    3  O   UNL     1      -9.960  12.950  69.272  1.00  0.00     0.300 OA 
HETATM    4  N   UNL     1     -11.812  11.627  69.675  1.00  0.00    -0.330 N  
ENDROOT
BRANCH   4   5
HETATM    5  C   UNL     1     -11.098  10.486  69.181  1.00  0.00    -0.250 A  
HETATM    6  C   UNL     1      -9.376   8.440  68.328  1.00  0.00    -0.134 A  
HETATM    7  C   UNL     1     -10.795   9.412  70.060  1.00  0.00    -0.241 A  
HETATM    8  C   UNL     1     -10.649  10.457  67.837  1.00  0.00    -0.232 A  
HETATM    9  I   UNL     1     -11.363  11.990  66.476  1.00  0.00    -0.294 I  
HETATM   10  I   UNL     1     -11.759   9.408  71.999  1.00  0.00     0.332 I  
HETATM   11  C   UNL     1      -9.771   9.441  67.399  1.00  0.00    -0.205 A  
HETATM   12  I   UNL     1      -7.713   7.135  67.811  1.00  0.00    -0.116 I  
HETATM   13  C   UNL     1      -9.932   8.377  69.644  1.00  0.00    -0.193 A  
BRANCH  11  14
HETATM   14  C   UNL     1      -9.182   9.527  66.028  1.00  0.00    -0.196 C  
HETATM   15  O   UNL     1      -9.788   9.074  65.063  1.00  0.00     0.223 OA 
HETATM   16  N   UNL     1      -7.949  10.129  65.916  1.00  0.00    -0.128 N  
HETATM   17  H   UNL     1      -7.499  10.509  66.749  1.00  0.00     0.000 HD 
BRANCH  16  18
HETATM   18  C   UNL     1      -7.274  10.235  64.622  1.00  0.00    -0.082 C  
BRANCH  18  19
HETATM   19  C   UNL     1      -5.756  10.367  64.780  1.00  0.00    -0.133 C  
HETATM   20  H   UNL     1      -4.523  11.579  65.715  1.00  0.00     0.000 HD 
HETATM   21  O   UNL     1      -5.464  11.497  65.617  1.00  0.00    -0.171 OA 
BRANCH  19  22
HETATM   22  C   UNL     1      -5.136   9.088  65.362  1.00  0.00    -0.037 C  
HETATM   23  O   UNL     1      -5.584   7.927  64.661  1.00  0.00    -0.042 OA 
HETATM   24  H   UNL     1      -5.201   7.136  65.022  1.00  0.00     0.000 HD 
ENDBRANCH  19  22
ENDBRANCH  18  19
ENDBRANCH  16  18
ENDBRANCH  11  14
BRANCH  13  25
HETATM   25  C   UNL     1      -9.639   7.185  70.507  1.00  0.00    -0.169 C  
HETATM   26  O   UNL     1      -8.894   7.309  71.473  1.00  0.00    -0.123 OA 
HETATM   27  H   UNL     1     -10.871   5.907  69.401  1.00  0.00     0.000 HD 
HETATM   28  N   UNL     1     -10.215   5.970  70.180  1.00  0.00    -0.195 N  
BRANCH  28  29
HETATM   29  C   UNL     1      -9.881   4.780  70.955  1.00  0.00    -0.209 C  
BRANCH  29  30
HETATM   30  C   UNL     1      -8.704   3.995  70.359  1.00  0.00    -0.078 C  
HETATM   31  H   UNL     1      -6.744   4.019  70.527  1.00  0.00     0.000 HD 
HETATM   32  O   UNL     1      -7.471   4.504  70.896  1.00  0.00    -0.050 OA 
BRANCH  30  33
HETATM   33  C   UNL     1      -8.829   2.493  70.663  1.00  0.00    -0.080 C  
HETATM   34  O   UNL     1      -9.318   1.770  69.535  1.00  0.00    -0.106 OA 
HETATM   35  H   UNL     1      -9.396   0.842  69.722  1.00  0.00     0.000 HD 
ENDBRANCH  30  33
ENDBRANCH  29  30
ENDBRANCH  28  29
ENDBRANCH  13  25
ENDBRANCH   4   5
BRANCH   4  36
HETATM   36  C   UNL     1     -13.209  11.434  70.157  1.00  0.00     0.717 C  
BRANCH  36  37
HETATM   37  C   UNL     1     -13.649  12.242  71.407  1.00  0.00     0.499 C  
HETATM   38  O   UNL     1     -13.965  11.402  72.527  1.00  0.00    -0.200 OA 
HETATM   39  H   UNL     1     -14.235  11.897  73.292  1.00  0.00     0.000 HD 
BRANCH  37  40
HETATM   40  C   UNL     1     -12.593  13.240  71.894  1.00  0.00    -0.040 C  
HETATM   41  O   UNL     1     -13.032  13.840  73.118  1.00  0.00    -0.384 OA 
HETATM   42  H   UNL     1     -12.377  14.458  73.420  1.00  0.00     0.000 HD 
ENDBRANCH  37  40
ENDBRANCH  36  37
ENDBRANCH   4  36
TORSDOF 12
ENDMDL
MODEL      187
REMARK 921   NORMALIZED FREE ENERGY PREDICTED BY IDOCK:    3.38 KCAL/MOL
REMARK 922        TOTAL FREE ENERGY PREDICTED BY IDOCK:    4.55 KCAL/MOL
REMARK 923 INTER-LIGAND FREE ENERGY PREDICTED BY IDOCK:   -0.69 KCAL/MOL
REMARK 924 INTRA-LIGAND FREE ENERGY PREDICTED BY IDOCK:    5.24 KCAL/MOL
REMARK 927      BINDING AFFINITY PREDICTED BY RF-SCORE:    0.00 PKD
ROOT
HETATM    1  C   UNL     1     -10.233  11.824  62.733  1.00  0.00     0.168 C  
HETATM    2  C   UNL     1      -9.319  11.991  63.915  1.00  0.00     0.216 C  
HETATM    3  O   UNL     1      -8.205  11.460  63.907  1.00  0.00     0.538 OA 
HETATM    4  N   UNL     1      -9.790  12.742  64.996  1.00  0.00    -0.124 N  
ENDROOT
BRANCH   4   5
HETATM    5  C   UNL     1      -8.876  12.943  66.081  1.00  0.00     0.285 A  
HETATM    6  C   UNL     1      -7.394  13.276  68.442  1.00  0.00    -0.112 A  
HETATM    7  C   UNL     1      -8.205  11.829  66.652  1.00  0.00    -0.117 A  
HETATM    8  C   UNL     1      -8.688  14.242  66.618  1.00  0.00    -0.068 A  
HETATM    9  I   UNL     1      -9.526  15.934  65.548  1.00  0.00     0.671 I  
HETATM   10  I   UNL     1      -8.329   9.943  65.594  1.00  0.00    -0.175 I  
HETATM   11  C   UNL     1      -7.956  14.420  67.814  1.00  0.00    -0.166 A  
HETATM   12  I   UNL     1      -6.646  13.465  70.477  1.00  0.00     1.403 I  
HETATM   13  C   UNL     1      -7.457  11.982  67.837  1.00  0.00    -0.114 A  
BRANCH  11  14
HETATM   14  C   UNL     1      -7.913  15.773  68.446  1.00  0.00    -0.141 C  
HETATM   15  O   UNL     1      -8.407  15.957  69.554  1.00  0.00    -0.223 OA 
HETATM   16  N   UNL     1      -7.300  16.777  67.730  1.00  0.00    -0.148 N  
HETATM   17  H   UNL     1      -6.886  16.564  66.822  1.00  0.00     0.000 HD 
BRANCH  16  18
HETATM   18  C   UNL     1      -7.234  18.144  68.248  1.00  0.00    -0.254 C  
BRANCH  18  19
HETATM   19  C   UNL     1      -8.545  18.904  68.026  1.00  0.00    -0.299 C  
HETATM   20  H   UNL     1      -9.992  19.605  69.156  1.00  0.00     0.000 HD 
HETATM   21  O   UNL     1      -9.179  19.134  69.294  1.00  0.00    -0.201 OA 
BRANCH  19  22
HETATM   22  C   UNL     1      -8.309  20.231  67.290  1.00  0.00    -0.347 C  
HETATM   23  O   UNL     1      -8.941  20.238  66.011  1.00  0.00    -0.587 OA 
HETATM   24  H   UNL     1      -8.795  21.059  65.556  1.00  0.00     0.000 HD 
ENDBRANCH  19  22
ENDBRANCH  18  19
ENDBRANCH  16  18
ENDBRANCH  11  14
BRANCH  13  25
HETATM   25  C   UNL     1      -6.671  10.853  68.438  1.00  0.00    -0.059 C  
HETATM   26  O   UNL     1      -5.472  10.759  68.194  1.00  0.00    -0.037 OA 
HETATM   27  H   UNL     1      -8.312  10.075  69.473  1.00  0.00     0.000 HD 
HETATM   28  N   UNL     1      -7.326   9.942  69.247  1.00  0.00    -0.076 N  
BRANCH  28  29
HETATM   29  C   UNL     1      -6.601   8.792  69.774  1.00  0.00    -0.041 C  
BRANCH  29  30
HETATM   30  C   UNL     1      -7.082   7.462  69.178  1.00  0.00    -0.079 C  
HETATM   31  H   UNL     1      -6.574   5.567  69.326  1.00  0.00     0.000 HD 
HETATM   32  O   UNL     1      -6.277   6.389  69.695  1.00  0.00    -0.031 OA 
BRANCH  30  33
HETATM   33  C   UNL     1      -8.564   7.212  69.505  1.00  0.00    -0.134 C  
HETATM   34  O   UNL     1      -8.899   7.684  70.809  1.00  0.00    -0.141 OA 
HETATM   35  H   UNL     1      -9.814   7.529  71.011  1.00  0.00     0.000 HD 
ENDBRANCH  30  33
ENDBRANCH  29  30
ENDBRANCH  28  29
ENDBRANCH  13  25
ENDBRANCH   4   5
BRANCH   4  36
HETATM   36  C   UNL     1     -11.134  13.380  65.074  1.00  0.00    -0.319 C  
BRANCH  36  37
HETATM   37  C   UNL     1     -12.360  12.444  65.245  1.00  0.00    -0.287 C  
HETATM   38  O   UNL     1     -13.251  12.881  66.283  1.00  0.00     0.618 OA 
HETATM   39  H   UNL     1     -14.001  12.307  66.388  1.00  0.00     0.000 HD 
BRANCH  37  40
HETATM   40  C   UNL     1     -13.205  12.303  63.975  1.00  0.00     0.142 C  
HETATM   41  O   UNL     1     -12.834  13.320  63.039  1.00  0.00    -0.454 OA 
HETATM   42  H   UNL     1     -13.359  13.233  62.252  1.00  0.00     0.000 HD 
ENDBRANCH  37  40
ENDBRANCH  36  37
ENDBRANCH   4  36
TORSDOF 12
ENDMDL
MODEL      188
REMARK 921   NORMALIZED FREE ENERGY PREDICTED BY IDOCK:    3.41 KCAL/MOL
REMARK 922        TOTAL FREE ENERGY PREDICTED BY IDOCK:    4.61 KCAL/MOL
REMARK 923 INTER-LIGAND FREE ENERGY PREDICTED BY IDOCK:   -0.32 KCAL/MOL
REMARK 924 INTRA-LIGAND FREE ENERGY PREDICTED BY IDOCK:    4.93 KCAL/MOL
REMARK 927      BINDING AFFINITY PREDICTED BY RF-SCORE:    0.00 PKD
ROOT
HETATM    1  C   UNL     1     -10.116  11.138  63.777  1.00  0.00    -0.416 C  
HETATM    2  C   UNL     1      -9.650  11.191  65.206  1.00  0.00    -0.230 C  
HETATM    3  O   UNL     1      -9.926  12.170  65.904  1.00  0.00    -0.236 OA 
HETATM    4  N   UNL     1      -8.898  10.113  65.680  1.00  0.00    -0.158 N  
ENDROOT
BRANCH   4   5
HETATM    5  C   UNL     1      -8.522  10.155  67.063  1.00  0.00    -0.129 A  
HETATM    6  C   UNL     1      -7.447  10.080  69.655  1.00  0.00    -0.134 A  
HETATM    7  C   UNL     1      -7.841  11.292  67.573  1.00  0.00    -0.123 A  
HETATM    8  C   UNL     1      -8.781   9.041  67.902  1.00  0.00    -0.129 A  
HETATM    9  I   UNL     1     -10.051   7.452  67.147  1.00  0.00    -0.369 I  
HETATM   10  I   UNL     1      -7.744  13.046  66.307  1.00  0.00     2.769 I  
HETATM   11  C   UNL     1      -8.234   8.986  69.203  1.00  0.00    -0.121 A  
HETATM   12  I   UNL     1      -6.254   9.834  71.458  1.00  0.00     0.483 I  
HETATM   13  C   UNL     1      -7.296  11.268  68.873  1.00  0.00    -0.115 A  
BRANCH  11  14
HETATM   14  C   UNL     1      -8.382   7.733  70.004  1.00  0.00    -0.130 C  
HETATM   15  O   UNL     1      -9.382   7.549  70.690  1.00  0.00    -0.163 OA 
HETATM   16  N   UNL     1      -7.355   6.819  69.927  1.00  0.00    -0.086 N  
HETATM   17  H   UNL     1      -6.556   7.012  69.323  1.00  0.00     0.000 HD 
BRANCH  16  18
HETATM   18  C   UNL     1      -7.390   5.575  70.698  1.00  0.00    -0.079 C  
BRANCH  18  19
HETATM   19  C   UNL     1      -6.275   5.521  71.747  1.00  0.00    -0.038 C  
HETATM   20  H   UNL     1      -5.520   6.747  73.084  1.00  0.00     0.000 HD 
HETATM   21  O   UNL     1      -6.211   6.780  72.434  1.00  0.00    -0.045 OA 
BRANCH  19  22
HETATM   22  C   UNL     1      -6.494   4.372  72.742  1.00  0.00    -0.040 C  
HETATM   23  O   UNL     1      -7.400   4.747  73.779  1.00  0.00    -0.079 OA 
HETATM   24  H   UNL     1      -7.535   4.036  74.395  1.00  0.00     0.000 HD 
ENDBRANCH  19  22
ENDBRANCH  18  19
ENDBRANCH  16  18
ENDBRANCH  11  14
BRANCH  13  25
HETATM   25  C   UNL     1      -6.632  12.468  69.484  1.00  0.00    -0.039 C  
HETATM   26  O   UNL     1      -6.903  12.782  70.638  1.00  0.00     0.709 OA 
HETATM   27  H   UNL     1      -5.491  12.878  67.781  1.00  0.00     0.000 HD 
HETATM   28  N   UNL     1      -5.735  13.193  68.720  1.00  0.00    -0.071 N  
BRANCH  28  29
HETATM   29  C   UNL     1      -5.141  14.409  69.263  1.00  0.00    -0.079 C  
BRANCH  29  30
HETATM   30  C   UNL     1      -5.853  15.682  68.788  1.00  0.00    -0.100 C  
HETATM   31  H   UNL     1      -6.318  16.495  67.057  1.00  0.00     0.000 HD 
HETATM   32  O   UNL     1      -5.877  15.707  67.351  1.00  0.00    -0.288 OA 
BRANCH  30  33
HETATM   33  C   UNL     1      -7.287  15.754  69.339  1.00  0.00    -0.217 C  
HETATM   34  O   UNL     1      -8.215  16.156  68.333  1.00  0.00    -0.160 OA 
HETATM   35  H   UNL     1      -9.100  16.201  68.673  1.00  0.00     0.000 HD 
ENDBRANCH  30  33
ENDBRANCH  29  30
ENDBRANCH  28  29
ENDBRANCH  13  25
ENDBRANCH   4   5
BRANCH   4  36
HETATM   36  C   UNL     1      -8.510   8.919  64.877  1.00  0.00    -0.178 C  
BRANCH  36  37
HETATM   37  C   UNL     1      -7.050   8.410  65.016  1.00  0.00    -0.079 C  
HETATM   38  O   UNL     1      -6.756   7.321  64.128  1.00  0.00    -0.046 OA 
HETATM   39  H   UNL     1      -5.863   7.009  64.213  1.00  0.00     0.000 HD 
BRANCH  37  40
HETATM   40  C   UNL     1      -5.997   9.489  64.745  1.00  0.00    -0.074 C  
HETATM   41  O   UNL     1      -6.335  10.197  63.547  1.00  0.00    -0.132 OA 
HETATM   42  H   UNL     1      -5.682  10.866  63.379  1.00  0.00     0.000 HD 
ENDBRANCH  37  40
ENDBRANCH  36  37
ENDBRANCH   4  36
TORSDOF 12
ENDMDL
MODEL      189
REMARK 921   NORMALIZED FREE ENERGY PREDICTED BY IDOCK:    3.44 KCAL/MOL
REMARK 922        TOTAL FREE ENERGY PREDICTED BY IDOCK:    4.65 KCAL/MOL
REMARK 923 INTER-LIGAND FREE ENERGY PREDICTED BY IDOCK:   -1.84 KCAL/MOL
REMARK 924 INTRA-LIGAND FREE ENERGY PREDICTED BY IDOCK:    6.49 KCAL/MOL
REMARK 927      BINDING AFFINITY PREDICTED BY RF-SCORE:    0.00 PKD
ROOT
HETATM    1  C   UNL     1      -9.938   6.464  72.512  1.00  0.00    -0.183 C  
HETATM    2  C   UNL     1      -9.631   6.581  71.044  1.00  0.00    -0.175 C  
HETATM    3  O   UNL     1     -10.027   5.712  70.264  1.00  0.00    -0.181 OA 
HETATM    4  N   UNL     1      -8.882   7.686  70.628  1.00  0.00    -0.144 N  
ENDROOT
BRANCH   4   5
HETATM    5  C   UNL     1      -8.659   7.812  69.218  1.00  0.00    -0.138 A  
HETATM    6  C   UNL     1      -8.612   8.034  66.420  1.00  0.00    -0.145 A  
HETATM    7  C   UNL     1      -8.667   9.098  68.616  1.00  0.00    -0.129 A  
HETATM    8  C   UNL     1      -8.487   6.651  68.421  1.00  0.00    -0.125 A  
HETATM    9  I   UNL     1      -8.219   4.743  69.419  1.00  0.00    -0.090 I  
HETATM   10  I   UNL     1      -8.648  10.815  69.935  1.00  0.00     1.500 I  
HETATM   11  C   UNL     1      -8.476   6.748  67.011  1.00  0.00    -0.114 A  
HETATM   12  I   UNL     1      -9.027   8.162  64.288  1.00  0.00     1.455 I  
HETATM   13  C   UNL     1      -8.644   9.224  67.212  1.00  0.00    -0.125 A  
BRANCH  11  14
HETATM   14  C   UNL     1      -8.462   5.497  66.194  1.00  0.00    -0.122 C  
HETATM   15  O   UNL     1      -9.330   4.646  66.347  1.00  0.00    -0.131 OA 
HETATM   16  N   UNL     1      -7.440   5.361  65.282  1.00  0.00    -0.075 N  
HETATM   17  H   UNL     1      -6.755   6.111  65.179  1.00  0.00     0.000 HD 
BRANCH  16  18
HETATM   18  C   UNL     1      -7.318   4.159  64.456  1.00  0.00    -0.071 C  
BRANCH  18  19
HETATM   19  C   UNL     1      -5.862   3.870  64.079  1.00  0.00    -0.014 C  
HETATM   20  H   UNL     1      -4.923   2.638  62.870  1.00  0.00     0.000 HD 
HETATM   21  O   UNL     1      -5.826   2.817  63.104  1.00  0.00    -0.009 OA 
BRANCH  19  22
HETATM   22  C   UNL     1      -5.159   5.127  63.544  1.00  0.00    -0.009 C  
HETATM   23  O   UNL     1      -6.100   6.081  63.054  1.00  0.00    -0.021 OA 
HETATM   24  H   UNL     1      -5.665   6.858  62.723  1.00  0.00     0.000 HD 
ENDBRANCH  19  22
ENDBRANCH  18  19
ENDBRANCH  16  18
ENDBRANCH  11  14
BRANCH  13  25
HETATM   25  C   UNL     1      -8.577  10.560  66.530  1.00  0.00    -0.137 C  
HETATM   26  O   UNL     1      -7.695  10.769  65.703  1.00  0.00    -0.138 OA 
HETATM   27  H   UNL     1     -10.264  11.304  67.516  1.00  0.00     0.000 HD 
HETATM   28  N   UNL     1      -9.511  11.524  66.862  1.00  0.00    -0.179 N  
BRANCH  28  29
HETATM   29  C   UNL     1      -9.417  12.855  66.274  1.00  0.00    -0.200 C  
BRANCH  29  30
HETATM   30  C   UNL     1     -10.500  13.116  65.218  1.00  0.00    -0.307 C  
HETATM   31  H   UNL     1     -10.985  12.377  63.461  1.00  0.00     0.000 HD 
HETATM   32  O   UNL     1     -10.316  12.215  64.114  1.00  0.00    -0.305 OA 
BRANCH  30  33
HETATM   33  C   UNL     1     -11.907  12.941  65.812  1.00  0.00    -0.419 C  
HETATM   34  O   UNL     1     -12.920  13.202  64.842  1.00  0.00    -0.734 OA 
HETATM   35  H   UNL     1     -13.790  13.093  65.209  1.00  0.00     0.000 HD 
ENDBRANCH  30  33
ENDBRANCH  29  30
ENDBRANCH  28  29
ENDBRANCH  13  25
ENDBRANCH   4   5
BRANCH   4  36
HETATM   36  C   UNL     1      -8.352   8.750  71.526  1.00  0.00    -0.152 C  
BRANCH  36  37
HETATM   37  C   UNL     1      -6.989   8.485  72.220  1.00  0.00    -0.072 C  
HETATM   38  O   UNL     1      -6.695   7.086  72.348  1.00  0.00    -0.057 OA 
HETATM   39  H   UNL     1      -5.861   6.923  72.772  1.00  0.00     0.000 HD 
BRANCH  37  40
HETATM   40  C   UNL     1      -5.798   9.116  71.491  1.00  0.00    -0.069 C  
HETATM   41  O   UNL     1      -5.526   8.379  70.294  1.00  0.00    -0.022 OA 
HETATM   42  H   UNL     1      -4.788   8.770  69.842  1.00  0.00     0.000 HD 
ENDBRANCH  37  40
ENDBRANCH  36  37
ENDBRANCH   4  36
TORSDOF 12
ENDMDL
MODEL      190
REMARK 921   NORMALIZED FREE ENERGY PREDICTED BY IDOCK:    3.50 KCAL/MOL
REMARK 922        TOTAL FREE ENERGY PREDICTED BY IDOCK:    4.75 KCAL/MOL
REMARK 923 INTER-LIGAND FREE ENERGY PREDICTED BY IDOCK:   -1.09 KCAL/MOL
REMARK 924 INTRA-LIGAND FREE ENERGY PREDICTED BY IDOCK:    5.84 KCAL/MOL
REMARK 927      BINDING AFFINITY PREDICTED BY RF-SCORE:    0.00 PKD
ROOT
HETATM    1  C   UNL     1     -10.418   6.388  73.414  1.00  0.00    -0.283 C  
HETATM    2  C   UNL     1     -10.021   6.320  71.965  1.00  0.00    -0.168 C  
HETATM    3  O   UNL     1     -10.432   5.394  71.260  1.00  0.00    -0.226 OA 
HETATM    4  N   UNL     1      -9.176   7.322  71.479  1.00  0.00    -0.145 N  
ENDROOT
BRANCH   4   5
HETATM    5  C   UNL     1      -8.867   7.274  70.081  1.00  0.00    -0.145 A  
HETATM    6  C   UNL     1      -8.648   7.165  67.284  1.00  0.00    -0.121 A  
HETATM    7  C   UNL     1      -8.787   8.480  69.336  1.00  0.00    -0.141 A  
HETATM    8  C   UNL     1      -8.697   6.023  69.435  1.00  0.00    -0.121 A  
HETATM    9  I   UNL     1      -8.565   4.237  70.661  1.00  0.00    -0.137 I  
HETATM   10  I   UNL     1      -8.774  10.339  70.447  1.00  0.00     1.723 I  
HETATM   11  C   UNL     1      -8.600   5.954  68.027  1.00  0.00    -0.113 A  
HETATM   12  I   UNL     1      -8.933   7.056  65.130  1.00  0.00     0.880 I  
HETATM   13  C   UNL     1      -8.677   8.440  67.930  1.00  0.00    -0.138 A  
BRANCH  11  14
HETATM   14  C   UNL     1      -8.589   4.616  67.362  1.00  0.00    -0.104 C  
HETATM   15  O   UNL     1      -9.503   3.821  67.551  1.00  0.00    -0.185 OA 
HETATM   16  N   UNL     1      -7.517   4.335  66.545  1.00  0.00    -0.080 N  
HETATM   17  H   UNL     1      -6.794   5.041  66.405  1.00  0.00     0.000 HD 
BRANCH  16  18
HETATM   18  C   UNL     1      -7.397   3.041  65.873  1.00  0.00    -0.072 C  
BRANCH  18  19
HETATM   19  C   UNL     1      -5.933   2.654  65.635  1.00  0.00    -0.023 C  
HETATM   20  H   UNL     1      -4.975   1.250  64.649  1.00  0.00     0.000 HD 
HETATM   21  O   UNL     1      -5.882   1.489  64.797  1.00  0.00    -0.011 OA 
BRANCH  19  22
HETATM   22  C   UNL     1      -5.141   3.810  65.004  1.00  0.00    -0.009 C  
HETATM   23  O   UNL     1      -5.877   4.431  63.951  1.00  0.00    -0.016 OA 
HETATM   24  H   UNL     1      -5.386   5.145  63.561  1.00  0.00     0.000 HD 
ENDBRANCH  19  22
ENDBRANCH  18  19
ENDBRANCH  16  18
ENDBRANCH  11  14
BRANCH  13  25
HETATM   25  C   UNL     1      -8.516   9.683  67.105  1.00  0.00    -0.131 C  
HETATM   26  O   UNL     1      -9.366   9.963  66.267  1.00  0.00    -0.160 OA 
HETATM   27  H   UNL     1      -6.737  10.247  68.048  1.00  0.00     0.000 HD 
HETATM   28  N   UNL     1      -7.401  10.477  67.309  1.00  0.00    -0.089 N  
BRANCH  28  29
HETATM   29  C   UNL     1      -7.181  11.645  66.464  1.00  0.00     0.048 C  
BRANCH  29  30
HETATM   30  C   UNL     1      -6.836  12.905  67.269  1.00  0.00    -0.057 C  
HETATM   31  H   UNL     1      -7.738  14.039  68.600  1.00  0.00     0.000 HD 
HETATM   32  O   UNL     1      -7.952  13.260  68.102  1.00  0.00    -0.130 OA 
BRANCH  30  33
HETATM   33  C   UNL     1      -5.583  12.684  68.133  1.00  0.00    -0.076 C  
HETATM   34  O   UNL     1      -5.730  13.270  69.426  1.00  0.00    -0.079 OA 
HETATM   35  H   UNL     1      -4.956  13.133  69.960  1.00  0.00     0.000 HD 
ENDBRANCH  30  33
ENDBRANCH  29  30
ENDBRANCH  28  29
ENDBRANCH  13  25
ENDBRANCH   4   5
BRANCH   4  36
HETATM   36  C   UNL     1      -8.626   8.445  72.288  1.00  0.00    -0.197 C  
BRANCH  36  37
HETATM   37  C   UNL     1      -7.329   8.174  73.096  1.00  0.00    -0.124 C  
HETATM   38  O   UNL     1      -7.143   6.783  73.397  1.00  0.00    -0.076 OA 
HETATM   39  H   UNL     1      -6.349   6.617  73.891  1.00  0.00     0.000 HD 
BRANCH  37  40
HETATM   40  C   UNL     1      -6.055   8.639  72.382  1.00  0.00    -0.076 C  
HETATM   41  O   UNL     1      -5.549   9.814  73.025  1.00  0.00    -0.308 OA 
HETATM   42  H   UNL     1      -4.760  10.103  72.582  1.00  0.00     0.000 HD 
ENDBRANCH  37  40
ENDBRANCH  36  37
ENDBRANCH   4  36
TORSDOF 12
ENDMDL
MODEL      191
REMARK 921   NORMALIZED FREE ENERGY PREDICTED BY IDOCK:    3.74 KCAL/MOL
REMARK 922        TOTAL FREE ENERGY PREDICTED BY IDOCK:    5.16 KCAL/MOL
REMARK 923 INTER-LIGAND FREE ENERGY PREDICTED BY IDOCK:   -2.11 KCAL/MOL
REMARK 924 INTRA-LIGAND FREE ENERGY PREDICTED BY IDOCK:    7.26 KCAL/MOL
REMARK 927      BINDING AFFINITY PREDICTED BY RF-SCORE:    0.00 PKD
ROOT
HETATM    1  C   UNL     1     -13.167   9.659  72.598  1.00  0.00    -0.137 C  
HETATM    2  C   UNL     1     -12.302   8.556  72.050  1.00  0.00    -0.365 C  
HETATM    3  O   UNL     1     -12.568   7.381  72.316  1.00  0.00    -0.186 OA 
HETATM    4  N   UNL     1     -11.208   8.924  71.262  1.00  0.00    -0.274 N  
ENDROOT
BRANCH   4   5
HETATM    5  C   UNL     1     -10.440   7.855  70.697  1.00  0.00    -0.213 A  
HETATM    6  C   UNL     1      -9.277   5.576  69.541  1.00  0.00    -0.121 A  
HETATM    7  C   UNL     1     -10.204   7.821  69.297  1.00  0.00    -0.211 A  
HETATM    8  C   UNL     1      -9.967   6.807  71.527  1.00  0.00    -0.177 A  
HETATM    9  I   UNL     1     -10.124   7.041  73.679  1.00  0.00    -0.361 I  
HETATM   10  I   UNL     1     -10.709   9.592  68.158  1.00  0.00    -0.127 I  
HETATM   11  C   UNL     1      -9.392   5.648  70.956  1.00  0.00    -0.181 A  
HETATM   12  I   UNL     1      -8.805   3.657  68.630  1.00  0.00    -0.212 I  
HETATM   13  C   UNL     1      -9.620   6.683  68.703  1.00  0.00    -0.130 A  
BRANCH  11  14
HETATM   14  C   UNL     1      -9.055   4.491  71.839  1.00  0.00    -0.130 C  
HETATM   15  O   UNL     1      -9.836   4.127  72.711  1.00  0.00    -0.134 OA 
HETATM   16  N   UNL     1      -7.844   3.873  71.621  1.00  0.00    -0.061 N  
HETATM   17  H   UNL     1      -7.242   4.203  70.866  1.00  0.00     0.000 HD 
BRANCH  16  18
HETATM   18  C   UNL     1      -7.407   2.751  72.452  1.00  0.00    -0.046 C  
BRANCH  18  19
HETATM   19  C   UNL     1      -6.551   3.216  73.634  1.00  0.00    -0.030 C  
HETATM   20  H   UNL     1      -5.833   2.408  75.276  1.00  0.00     0.000 HD 
HETATM   21  O   UNL     1      -6.364   2.119  74.543  1.00  0.00    -0.011 OA 
BRANCH  19  22
HETATM   22  C   UNL     1      -5.196   3.767  73.166  1.00  0.00     0.000 C  
HETATM   23  O   UNL     1      -5.362   4.851  72.252  1.00  0.00    -0.004 OA 
HETATM   24  H   UNL     1      -4.524   5.191  71.962  1.00  0.00     0.000 HD 
ENDBRANCH  19  22
ENDBRANCH  18  19
ENDBRANCH  16  18
ENDBRANCH  11  14
BRANCH  13  25
HETATM   25  C   UNL     1      -9.283   6.628  67.242  1.00  0.00    -0.125 C  
HETATM   26  O   UNL     1     -10.051   7.129  66.428  1.00  0.00    -0.122 OA 
HETATM   27  H   UNL     1      -7.467   5.638  67.554  1.00  0.00     0.000 HD 
HETATM   28  N   UNL     1      -8.112   6.001  66.852  1.00  0.00    -0.105 N  
BRANCH  28  29
HETATM   29  C   UNL     1      -7.804   5.863  65.433  1.00  0.00    -0.102 C  
BRANCH  29  30
HETATM   30  C   UNL     1      -6.613   6.727  64.997  1.00  0.00    -0.043 C  
HETATM   31  H   UNL     1      -5.013   7.487  65.854  1.00  0.00     0.000 HD 
HETATM   32  O   UNL     1      -5.750   6.952  66.125  1.00  0.00    -0.028 OA 
BRANCH  30  33
HETATM   33  C   UNL     1      -5.827   6.053  63.859  1.00  0.00    -0.022 C  
HETATM   34  O   UNL     1      -6.533   6.127  62.622  1.00  0.00    -0.028 OA 
HETATM   35  H   UNL     1      -6.049   5.711  61.919  1.00  0.00     0.000 HD 
ENDBRANCH  30  33
ENDBRANCH  29  30
ENDBRANCH  28  29
ENDBRANCH  13  25
ENDBRANCH   4   5
BRANCH   4  36
HETATM   36  C   UNL     1     -10.823  10.325  70.932  1.00  0.00     0.075 C  
BRANCH  36  37
HETATM   37  C   UNL     1     -11.949  11.393  70.931  1.00  0.00    -0.166 C  
HETATM   38  O   UNL     1     -11.502  12.671  71.407  1.00  0.00     1.058 OA 
HETATM   39  H   UNL     1     -12.191  13.325  71.406  1.00  0.00     0.000 HD 
BRANCH  37  40
HETATM   40  C   UNL     1     -12.563  11.633  69.547  1.00  0.00     0.229 C  
HETATM   41  O   UNL     1     -13.338  10.493  69.164  1.00  0.00     0.383 OA 
HETATM   42  H   UNL     1     -13.718  10.642  68.306  1.00  0.00     0.000 HD 
ENDBRANCH  37  40
ENDBRANCH  36  37
ENDBRANCH   4  36
TORSDOF 12
ENDMDL
MODEL      192
REMARK 921   NORMALIZED FREE ENERGY PREDICTED BY IDOCK:    3.79 KCAL/MOL
REMARK 922        TOTAL FREE ENERGY PREDICTED BY IDOCK:    5.25 KCAL/MOL
REMARK 923 INTER-LIGAND FREE ENERGY PREDICTED BY IDOCK:    0.66 KCAL/MOL
REMARK 924 INTRA-LIGAND FREE ENERGY PREDICTED BY IDOCK:    4.59 KCAL/MOL
REMARK 927      BINDING AFFINITY PREDICTED BY RF-SCORE:    0.00 PKD
ROOT
HETATM    1  C   UNL     1      -6.951  11.331  71.355  1.00  0.00     3.666 C  
HETATM    2  C   UNL     1      -6.593   9.875  71.243  1.00  0.00     0.230 C  
HETATM    3  O   UNL     1      -5.718   9.402  71.974  1.00  0.00    -0.114 OA 
HETATM    4  N   UNL     1      -7.272   9.114  70.287  1.00  0.00    -0.063 N  
ENDROOT
BRANCH   4   5
HETATM    5  C   UNL     1      -6.961   7.716  70.246  1.00  0.00    -0.051 A  
HETATM    6  C   UNL     1      -6.726   4.925  70.060  1.00  0.00    -0.037 A  
HETATM    7  C   UNL     1      -6.523   7.128  69.030  1.00  0.00    -0.036 A  
HETATM    8  C   UNL     1      -7.145   6.914  71.401  1.00  0.00    -0.074 A  
HETATM    9  I   UNL     1      -7.558   7.902  73.289  1.00  0.00    -0.194 I  
HETATM   10  I   UNL     1      -5.998   8.465  67.409  1.00  0.00    -0.049 I  
HETATM   11  C   UNL     1      -7.044   5.507  71.317  1.00  0.00    -0.071 A  
HETATM   12  I   UNL     1      -6.987   2.779  69.809  1.00  0.00    -0.033 I  
HETATM   13  C   UNL     1      -6.400   5.727  68.922  1.00  0.00    -0.037 A  
BRANCH  11  14
HETATM   14  C   UNL     1      -7.405   4.678  72.507  1.00  0.00    -0.083 C  
HETATM   15  O   UNL     1      -6.537   4.081  73.134  1.00  0.00    -0.038 OA 
HETATM   16  N   UNL     1      -8.737   4.626  72.849  1.00  0.00    -0.116 N  
HETATM   17  H   UNL     1      -9.416   5.160  72.306  1.00  0.00     0.000 HD 
BRANCH  16  18
HETATM   18  C   UNL     1      -9.197   3.817  73.978  1.00  0.00    -0.088 C  
BRANCH  18  19
HETATM   19  C   UNL     1     -10.723   3.675  73.995  1.00  0.00    -0.210 C  
HETATM   20  H   UNL     1     -12.252   4.670  73.266  1.00  0.00     0.000 HD 
HETATM   21  O   UNL     1     -11.307   4.758  73.255  1.00  0.00    -0.319 OA 
BRANCH  19  22
HETATM   22  C   UNL     1     -11.169   2.323  73.419  1.00  0.00    -0.188 C  
HETATM   23  O   UNL     1     -10.232   1.830  72.462  1.00  0.00    -0.127 OA 
HETATM   24  H   UNL     1     -10.509   0.993  72.106  1.00  0.00     0.000 HD 
ENDBRANCH  19  22
ENDBRANCH  18  19
ENDBRANCH  16  18
ENDBRANCH  11  14
BRANCH  13  25
HETATM   25  C   UNL     1      -5.872   5.063  67.685  1.00  0.00    -0.022 C  
HETATM   26  O   UNL     1      -5.655   5.740  66.685  1.00  0.00    -0.012 OA 
HETATM   27  H   UNL     1      -5.791   3.168  68.566  1.00  0.00     0.000 HD 
HETATM   28  N   UNL     1      -5.651   3.698  67.705  1.00  0.00    -0.020 N  
BRANCH  28  29
HETATM   29  C   UNL     1      -5.216   3.018  66.490  1.00  0.00    -0.012 C  
BRANCH  29  30
HETATM   30  C   UNL     1      -6.203   1.938  66.028  1.00  0.00    -0.023 C  
HETATM   31  H   UNL     1      -7.582   0.813  66.867  1.00  0.00     0.000 HD 
HETATM   32  O   UNL     1      -6.972   1.481  67.153  1.00  0.00    -0.037 OA 
BRANCH  30  33
HETATM   33  C   UNL     1      -7.141   2.476  64.934  1.00  0.00    -0.053 C  
HETATM   34  O   UNL     1      -6.514   3.501  64.166  1.00  0.00    -0.029 OA 
HETATM   35  H   UNL     1      -7.092   3.834  63.490  1.00  0.00     0.000 HD 
ENDBRANCH  30  33
ENDBRANCH  29  30
ENDBRANCH  28  29
ENDBRANCH  13  25
ENDBRANCH   4   5
BRANCH   4  36
HETATM   36  C   UNL     1      -8.314   9.636  69.360  1.00  0.00    -0.145 C  
BRANCH  36  37
HETATM   37  C   UNL     1      -9.687   8.913  69.351  1.00  0.00    -0.169 C  
HETATM   38  O   UNL     1     -10.259   8.792  70.663  1.00  0.00    -0.186 OA 
HETATM   39  H   UNL     1     -11.099   8.349  70.657  1.00  0.00     0.000 HD 
BRANCH  37  40
HETATM   40  C   UNL     1     -10.740   9.607  68.480  1.00  0.00    -0.200 C  
HETATM   41  O   UNL     1     -11.645  10.337  69.314  1.00  0.00    -0.400 OA 
HETATM   42  H   UNL     1     -12.298  10.766  68.774  1.00  0.00     0.000 HD 
ENDBRANCH  37  40
ENDBRANCH  36  37
ENDBRANCH   4  36
TORSDOF 12
ENDMDL
MODEL      193
REMARK 921   NORMALIZED FREE ENERGY PREDICTED BY IDOCK:    3.85 KCAL/MOL
REMARK 922        TOTAL FREE ENERGY PREDICTED BY IDOCK:    5.35 KCAL/MOL
REMARK 923 INTER-LIGAND FREE ENERGY PREDICTED BY IDOCK:   -2.70 KCAL/MOL
REMARK 924 INTRA-LIGAND FREE ENERGY PREDICTED BY IDOCK:    8.05 KCAL/MOL
REMARK 927      BINDING AFFINITY PREDICTED BY RF-SCORE:    0.00 PKD
ROOT
HETATM    1  C   UNL     1      -8.416   7.523  74.081  1.00  0.00    -0.262 C  
HETATM    2  C   UNL     1      -8.397   7.789  72.601  1.00  0.00    -0.132 C  
HETATM    3  O   UNL     1      -8.117   8.916  72.184  1.00  0.00    -0.369 OA 
HETATM    4  N   UNL     1      -8.719   6.727  71.751  1.00  0.00    -0.128 N  
ENDROOT
BRANCH   4   5
HETATM    5  C   UNL     1      -8.629   6.985  70.344  1.00  0.00    -0.142 A  
HETATM    6  C   UNL     1      -8.737   7.225  67.549  1.00  0.00    -0.121 A  
HETATM    7  C   UNL     1      -9.458   7.977  69.756  1.00  0.00    -0.159 A  
HETATM    8  C   UNL     1      -7.756   6.213  69.536  1.00  0.00    -0.099 A  
HETATM    9  I   UNL     1      -6.329   4.904  70.515  1.00  0.00    -0.028 I  
HETATM   10  I   UNL     1     -10.540   9.292  71.094  1.00  0.00    -0.340 I  
HETATM   11  C   UNL     1      -7.811   6.315  68.127  1.00  0.00    -0.104 A  
HETATM   12  I   UNL     1      -9.140   7.087  65.415  1.00  0.00     0.780 I  
HETATM   13  C   UNL     1      -9.522   8.109  68.354  1.00  0.00    -0.146 A  
BRANCH  11  14
HETATM   14  C   UNL     1      -7.000   5.374  67.297  1.00  0.00    -0.065 C  
HETATM   15  O   UNL     1      -7.155   5.328  66.081  1.00  0.00    -0.069 OA 
HETATM   16  N   UNL     1      -6.092   4.580  67.961  1.00  0.00    -0.030 N  
HETATM   17  H   UNL     1      -5.988   4.675  68.972  1.00  0.00     0.000 HD 
BRANCH  16  18
HETATM   18  C   UNL     1      -5.273   3.604  67.243  1.00  0.00    -0.012 C  
BRANCH  18  19
HETATM   19  C   UNL     1      -5.806   3.338  65.831  1.00  0.00    -0.019 C  
HETATM   20  H   UNL     1      -5.484   4.055  64.030  1.00  0.00     0.000 HD 
HETATM   21  O   UNL     1      -5.154   4.220  64.905  1.00  0.00    -0.008 OA 
BRANCH  19  22
HETATM   22  C   UNL     1      -5.602   1.873  65.419  1.00  0.00    -0.012 C  
HETATM   23  O   UNL     1      -5.361   1.755  64.017  1.00  0.00    -0.004 OA 
HETATM   24  H   UNL     1      -5.235   0.849  63.762  1.00  0.00     0.000 HD 
ENDBRANCH  19  22
ENDBRANCH  18  19
ENDBRANCH  16  18
ENDBRANCH  11  14
BRANCH  13  25
HETATM   25  C   UNL     1     -10.324   9.188  67.687  1.00  0.00    -0.255 C  
HETATM   26  O   UNL     1     -11.505   9.330  67.985  1.00  0.00     0.328 OA 
HETATM   27  H   UNL     1      -8.711   9.882  66.553  1.00  0.00     0.000 HD 
HETATM   28  N   UNL     1      -9.707   9.990  66.744  1.00  0.00    -0.181 N  
BRANCH  28  29
HETATM   29  C   UNL     1     -10.487  10.990  66.024  1.00  0.00    -0.245 C  
BRANCH  29  30
HETATM   30  C   UNL     1      -9.631  12.159  65.517  1.00  0.00    -0.128 C  
HETATM   31  H   UNL     1      -9.284  13.027  63.786  1.00  0.00     0.000 HD 
HETATM   32  O   UNL     1      -9.814  12.304  64.099  1.00  0.00    -0.240 OA 
BRANCH  30  33
HETATM   33  C   UNL     1     -10.002  13.469  66.233  1.00  0.00    -0.298 C  
HETATM   34  O   UNL     1     -10.102  14.556  65.314  1.00  0.00    -0.369 OA 
HETATM   35  H   UNL     1     -10.331  15.365  65.756  1.00  0.00     0.000 HD 
ENDBRANCH  30  33
ENDBRANCH  29  30
ENDBRANCH  28  29
ENDBRANCH  13  25
ENDBRANCH   4   5
BRANCH   4  36
HETATM   36  C   UNL     1      -9.093   5.355  72.196  1.00  0.00    -0.136 C  
BRANCH  36  37
HETATM   37  C   UNL     1     -10.432   4.774  71.668  1.00  0.00    -0.093 C  
HETATM   38  O   UNL     1     -10.760   5.244  70.353  1.00  0.00    -0.250 OA 
HETATM   39  H   UNL     1     -11.580   4.888  70.029  1.00  0.00     0.000 HD 
BRANCH  37  40
HETATM   40  C   UNL     1     -10.450   3.243  71.601  1.00  0.00     0.467 C  
HETATM   41  O   UNL     1     -11.263   2.728  72.661  1.00  0.00     0.175 OA 
HETATM   42  H   UNL     1     -11.274   1.779  72.619  1.00  0.00     0.000 HD 
ENDBRANCH  37  40
ENDBRANCH  36  37
ENDBRANCH   4  36
TORSDOF 12
ENDMDL
MODEL      194
REMARK 921   NORMALIZED FREE ENERGY PREDICTED BY IDOCK:    3.93 KCAL/MOL
REMARK 922        TOTAL FREE ENERGY PREDICTED BY IDOCK:    5.49 KCAL/MOL
REMARK 923 INTER-LIGAND FREE ENERGY PREDICTED BY IDOCK:   -2.76 KCAL/MOL
REMARK 924 INTRA-LIGAND FREE ENERGY PREDICTED BY IDOCK:    8.25 KCAL/MOL
REMARK 927      BINDING AFFINITY PREDICTED BY RF-SCORE:    0.00 PKD
ROOT
HETATM    1  C   UNL     1      -6.891   8.866  67.037  1.00  0.00    -0.073 C  
HETATM    2  C   UNL     1      -7.127  10.308  67.394  1.00  0.00    -0.083 C  
HETATM    3  O   UNL     1      -6.362  10.877  68.177  1.00  0.00    -0.056 OA 
HETATM    4  N   UNL     1      -8.234  10.942  66.823  1.00  0.00    -0.135 N  
ENDROOT
BRANCH   4   5
HETATM    5  C   UNL     1      -8.399  12.333  67.125  1.00  0.00    -0.183 A  
HETATM    6  C   UNL     1      -8.662  14.956  68.091  1.00  0.00    -0.164 A  
HETATM    7  C   UNL     1      -7.265  13.186  67.156  1.00  0.00     0.093 A  
HETATM    8  C   UNL     1      -9.684  12.840  67.447  1.00  0.00    -0.197 A  
HETATM    9  I   UNL     1     -11.409  11.564  67.127  1.00  0.00    -0.120 I  
HETATM   10  I   UNL     1      -5.404  12.398  66.378  1.00  0.00     2.270 I  
HETATM   11  C   UNL     1      -9.827  14.154  67.948  1.00  0.00    -0.224 A  
HETATM   12  I   UNL     1      -8.797  16.795  69.247  1.00  0.00     0.500 I  
HETATM   13  C   UNL     1      -7.383  14.506  67.639  1.00  0.00    -0.201 A  
BRANCH  11  14
HETATM   14  C   UNL     1     -11.166  14.606  68.434  1.00  0.00    -0.274 C  
HETATM   15  O   UNL     1     -11.761  15.512  67.861  1.00  0.00    -0.293 OA 
HETATM   16  N   UNL     1     -11.678  13.962  69.538  1.00  0.00    -0.293 N  
HETATM   17  H   UNL     1     -11.150  13.200  69.964  1.00  0.00     0.000 HD 
BRANCH  16  18
HETATM   18  C   UNL     1     -12.967  14.352  70.111  1.00  0.00     0.028 C  
BRANCH  18  19
HETATM   19  C   UNL     1     -12.841  15.584  71.013  1.00  0.00    -0.482 C  
HETATM   20  H   UNL     1     -14.055  16.676  72.107  1.00  0.00     0.000 HD 
HETATM   21  O   UNL     1     -14.133  15.912  71.548  1.00  0.00    -0.374 OA 
BRANCH  19  22
HETATM   22  C   UNL     1     -11.831  15.351  72.146  1.00  0.00    -0.449 C  
HETATM   23  O   UNL     1     -10.643  14.724  71.664  1.00  0.00     0.029 OA 
HETATM   24  H   UNL     1     -10.018  14.580  72.365  1.00  0.00     0.000 HD 
ENDBRANCH  19  22
ENDBRANCH  18  19
ENDBRANCH  16  18
ENDBRANCH  11  14
BRANCH  13  25
HETATM   25  C   UNL     1      -6.231  15.469  67.623  1.00  0.00    -0.149 C  
HETATM   26  O   UNL     1      -5.154  15.110  67.161  1.00  0.00    -0.243 OA 
HETATM   27  H   UNL     1      -7.339  17.026  68.473  1.00  0.00     0.000 HD 
HETATM   28  N   UNL     1      -6.418  16.738  68.142  1.00  0.00    -0.140 N  
BRANCH  28  29
HETATM   29  C   UNL     1      -5.293  17.663  68.212  1.00  0.00    -0.148 C  
BRANCH  29  30
HETATM   30  C   UNL     1      -5.705  19.065  68.682  1.00  0.00    -0.206 C  
HETATM   31  H   UNL     1      -7.318  20.186  68.580  1.00  0.00     0.000 HD 
HETATM   32  O   UNL     1      -7.064  19.319  68.290  1.00  0.00    -0.260 OA 
BRANCH  30  33
HETATM   33  C   UNL     1      -5.563  19.202  70.208  1.00  0.00    -0.238 C  
HETATM   34  O   UNL     1      -6.317  20.306  70.705  1.00  0.00    -0.486 OA 
HETATM   35  H   UNL     1      -6.229  20.391  71.647  1.00  0.00     0.000 HD 
ENDBRANCH  30  33
ENDBRANCH  29  30
ENDBRANCH  28  29
ENDBRANCH  13  25
ENDBRANCH   4   5
BRANCH   4  36
HETATM   36  C   UNL     1      -9.207  10.298  65.896  1.00  0.00    -0.167 C  
BRANCH  36  37
HETATM   37  C   UNL     1      -8.751   9.002  65.172  1.00  0.00    -0.189 C  
HETATM   38  O   UNL     1      -9.823   8.066  64.984  1.00  0.00     0.746 OA 
HETATM   39  H   UNL     1      -9.545   7.273  64.541  1.00  0.00     0.000 HD 
BRANCH  37  40
HETATM   40  C   UNL     1      -8.146   9.255  63.788  1.00  0.00    -0.155 C  
HETATM   41  O   UNL     1      -9.150   9.066  62.785  1.00  0.00    -0.447 OA 
HETATM   42  H   UNL     1      -8.775   9.222  61.927  1.00  0.00     0.000 HD 
ENDBRANCH  37  40
ENDBRANCH  36  37
ENDBRANCH   4  36
TORSDOF 12
ENDMDL
MODEL      195
REMARK 921   NORMALIZED FREE ENERGY PREDICTED BY IDOCK:    3.95 KCAL/MOL
REMARK 922        TOTAL FREE ENERGY PREDICTED BY IDOCK:    5.52 KCAL/MOL
REMARK 923 INTER-LIGAND FREE ENERGY PREDICTED BY IDOCK:   -2.03 KCAL/MOL
REMARK 924 INTRA-LIGAND FREE ENERGY PREDICTED BY IDOCK:    7.55 KCAL/MOL
REMARK 927      BINDING AFFINITY PREDICTED BY RF-SCORE:    0.00 PKD
ROOT
HETATM    1  C   UNL     1     -11.775  14.176  70.851  1.00  0.00    -0.190 C  
HETATM    2  C   UNL     1     -10.987  13.287  69.928  1.00  0.00     0.393 C  
HETATM    3  O   UNL     1      -9.911  13.680  69.469  1.00  0.00     0.399 OA 
HETATM    4  N   UNL     1     -11.530  12.038  69.616  1.00  0.00    -0.276 N  
ENDROOT
BRANCH   4   5
HETATM    5  C   UNL     1     -10.731  11.182  68.790  1.00  0.00    -0.199 A  
HETATM    6  C   UNL     1      -8.862   9.729  67.281  1.00  0.00    -0.132 A  
HETATM    7  C   UNL     1     -10.111  10.036  69.356  1.00  0.00    -0.219 A  
HETATM    8  C   UNL     1     -10.515  11.512  67.428  1.00  0.00    -0.209 A  
HETATM    9  I   UNL     1     -11.691  13.113  66.553  1.00  0.00    -0.453 I  
HETATM   10  I   UNL     1     -10.722   9.455  71.350  1.00  0.00    -0.036 I  
HETATM   11  C   UNL     1      -9.567  10.797  66.662  1.00  0.00    -0.208 A  
HETATM   12  I   UNL     1      -7.116   8.908  66.274  1.00  0.00    -0.084 I  
HETATM   13  C   UNL     1      -9.171   9.297  68.609  1.00  0.00    -0.135 A  
BRANCH  11  14
HETATM   14  C   UNL     1      -9.239  11.269  65.283  1.00  0.00    -0.172 C  
HETATM   15  O   UNL     1      -9.800  12.252  64.813  1.00  0.00    -0.209 OA 
HETATM   16  N   UNL     1      -8.292  10.551  64.587  1.00  0.00    -0.273 N  
HETATM   17  H   UNL     1      -7.839   9.753  65.034  1.00  0.00     0.000 HD 
BRANCH  16  18
HETATM   18  C   UNL     1      -7.923  10.913  63.218  1.00  0.00     0.204 C  
BRANCH  18  19
HETATM   19  C   UNL     1      -7.615   9.678  62.364  1.00  0.00    -0.107 C  
HETATM   20  H   UNL     1      -6.093   8.459  62.123  1.00  0.00     0.000 HD 
HETATM   21  O   UNL     1      -6.284   9.224  62.653  1.00  0.00    -0.094 OA 
BRANCH  19  22
HETATM   22  C   UNL     1      -8.635   8.556  62.609  1.00  0.00    -0.074 C  
HETATM   23  O   UNL     1      -8.077   7.510  63.404  1.00  0.00    -0.260 OA 
HETATM   24  H   UNL     1      -8.708   6.816  63.555  1.00  0.00     0.000 HD 
ENDBRANCH  19  22
ENDBRANCH  18  19
ENDBRANCH  16  18
ENDBRANCH  11  14
BRANCH  13  25
HETATM   25  C   UNL     1      -8.544   8.038  69.134  1.00  0.00    -0.137 C  
HETATM   26  O   UNL     1      -7.352   8.034  69.421  1.00  0.00    -0.076 OA 
HETATM   27  H   UNL     1     -10.333   6.956  69.073  1.00  0.00     0.000 HD 
HETATM   28  N   UNL     1      -9.333   6.910  69.271  1.00  0.00    -0.145 N  
BRANCH  28  29
HETATM   29  C   UNL     1      -8.729   5.654  69.701  1.00  0.00    -0.110 C  
BRANCH  29  30
HETATM   30  C   UNL     1      -8.985   5.348  71.183  1.00  0.00    -0.141 C  
HETATM   31  H   UNL     1     -10.528   4.826  72.286  1.00  0.00     0.000 HD 
HETATM   32  O   UNL     1     -10.371   5.015  71.369  1.00  0.00    -0.209 OA 
BRANCH  30  33
HETATM   33  C   UNL     1      -8.095   4.193  71.673  1.00  0.00    -0.086 C  
HETATM   34  O   UNL     1      -7.222   4.613  72.719  1.00  0.00    -0.074 OA 
HETATM   35  H   UNL     1      -6.672   3.900  73.022  1.00  0.00     0.000 HD 
ENDBRANCH  30  33
ENDBRANCH  29  30
ENDBRANCH  28  29
ENDBRANCH  13  25
ENDBRANCH   4   5
BRANCH   4  36
HETATM   36  C   UNL     1     -12.836  11.522  70.116  1.00  0.00     0.173 C  
BRANCH  36  37
HETATM   37  C   UNL     1     -13.319  12.028  71.501  1.00  0.00    -0.028 C  
HETATM   38  O   UNL     1     -12.236  12.274  72.410  1.00  0.00     0.986 OA 
HETATM   39  H   UNL     1     -12.532  12.584  73.259  1.00  0.00     0.000 HD 
BRANCH  37  40
HETATM   40  C   UNL     1     -14.132  13.325  71.430  1.00  0.00     0.772 C  
HETATM   41  O   UNL     1     -14.232  13.899  72.738  1.00  0.00    -0.620 OA 
HETATM   42  H   UNL     1     -14.736  14.703  72.693  1.00  0.00     0.000 HD 
ENDBRANCH  37  40
ENDBRANCH  36  37
ENDBRANCH   4  36
TORSDOF 12
ENDMDL
MODEL      196
REMARK 921   NORMALIZED FREE ENERGY PREDICTED BY IDOCK:    4.94 KCAL/MOL
REMARK 922        TOTAL FREE ENERGY PREDICTED BY IDOCK:    7.21 KCAL/MOL
REMARK 923 INTER-LIGAND FREE ENERGY PREDICTED BY IDOCK:    3.18 KCAL/MOL
REMARK 924 INTRA-LIGAND FREE ENERGY PREDICTED BY IDOCK:    4.02 KCAL/MOL
REMARK 927      BINDING AFFINITY PREDICTED BY RF-SCORE:    0.00 PKD
ROOT
HETATM    1  C   UNL     1      -9.892  19.934  65.286  1.00  0.00     0.585 C  
HETATM    2  C   UNL     1     -10.458  18.825  66.128  1.00  0.00    -0.446 C  
HETATM    3  O   UNL     1     -11.675  18.623  66.138  1.00  0.00     1.583 OA 
HETATM    4  N   UNL     1      -9.561  18.069  66.888  1.00  0.00    -0.284 N  
ENDROOT
BRANCH   4   5
HETATM    5  C   UNL     1     -10.115  16.975  67.630  1.00  0.00    -0.298 A  
HETATM    6  C   UNL     1     -11.548  14.949  68.941  1.00  0.00    -0.315 A  
HETATM    7  C   UNL     1     -10.266  15.707  67.008  1.00  0.00    -0.274 A  
HETATM    8  C   UNL     1     -10.563  17.176  68.960  1.00  0.00    -0.282 A  
HETATM    9  I   UNL     1     -10.070  19.046  69.945  1.00  0.00     1.704 I  
HETATM   10  I   UNL     1      -9.301  15.417  65.091  1.00  0.00     2.421 I  
HETATM   11  C   UNL     1     -11.298  16.169  69.626  1.00  0.00    -0.316 A  
HETATM   12  I   UNL     1     -13.022  13.575  69.764  1.00  0.00     1.720 I  
HETATM   13  C   UNL     1     -10.984  14.680  67.655  1.00  0.00    -0.296 A  
BRANCH  11  14
HETATM   14  C   UNL     1     -11.899  16.467  70.961  1.00  0.00    -0.029 C  
HETATM   15  O   UNL     1     -11.469  17.390  71.643  1.00  0.00     0.801 OA 
HETATM   16  N   UNL     1     -12.940  15.663  71.369  1.00  0.00    -0.481 N  
HETATM   17  H   UNL     1     -13.274  14.923  70.752  1.00  0.00     0.000 HD 
BRANCH  16  18
HETATM   18  C   UNL     1     -13.576  15.853  72.673  1.00  0.00    -0.461 C  
BRANCH  18  19
HETATM   19  C   UNL     1     -12.600  15.597  73.827  1.00  0.00    -0.614 C  
HETATM   20  H   UNL     1     -11.592  14.060  74.523  1.00  0.00     0.000 HD 
HETATM   21  O   UNL     1     -12.197  14.219  73.808  1.00  0.00    -0.185 OA 
BRANCH  19  22
HETATM   22  C   UNL     1     -11.376  16.520  73.744  1.00  0.00     1.390 C  
HETATM   23  O   UNL     1     -11.577  17.721  74.490  1.00  0.00     0.098 OA 
HETATM   24  H   UNL     1     -10.820  18.292  74.438  1.00  0.00     0.000 HD 
ENDBRANCH  19  22
ENDBRANCH  18  19
ENDBRANCH  16  18
ENDBRANCH  11  14
BRANCH  13  25
HETATM   25  C   UNL     1     -11.108  13.302  67.074  1.00  0.00    -0.282 C  
HETATM   26  O   UNL     1     -11.982  13.076  66.244  1.00  0.00    -0.392 OA 
HETATM   27  H   UNL     1      -9.482  12.549  68.151  1.00  0.00     0.000 HD 
HETATM   28  N   UNL     1     -10.232  12.319  67.499  1.00  0.00    -0.202 N  
BRANCH  28  29
HETATM   29  C   UNL     1     -10.385  10.954  67.010  1.00  0.00    -0.231 C  
BRANCH  29  30
HETATM   30  C   UNL     1      -9.391  10.608  65.892  1.00  0.00    -0.190 C  
HETATM   31  H   UNL     1      -7.718   9.585  65.738  1.00  0.00     0.000 HD 
HETATM   32  O   UNL     1      -8.332   9.798  66.430  1.00  0.00    -0.119 OA 
BRANCH  30  33
HETATM   33  C   UNL     1     -10.089   9.866  64.740  1.00  0.00     0.088 C  
HETATM   34  O   UNL     1     -10.252  10.707  63.600  1.00  0.00    -0.452 OA 
HETATM   35  H   UNL     1     -10.683  10.249  62.888  1.00  0.00     0.000 HD 
ENDBRANCH  30  33
ENDBRANCH  29  30
ENDBRANCH  28  29
ENDBRANCH  13  25
ENDBRANCH   4   5
BRANCH   4  36
HETATM   36  C   UNL     1      -8.088  18.284  66.938  1.00  0.00    -0.245 C  
BRANCH  36  37
HETATM   37  C   UNL     1      -7.266  17.373  67.889  1.00  0.00    -0.188 C  
HETATM   38  O   UNL     1      -6.273  16.602  67.197  1.00  0.00    -0.149 OA 
HETATM   39  H   UNL     1      -5.770  16.044  67.779  1.00  0.00     0.000 HD 
BRANCH  37  40
HETATM   40  C   UNL     1      -6.530  18.143  68.991  1.00  0.00    -0.243 C  
HETATM   41  O   UNL     1      -6.228  19.464  68.530  1.00  0.00    -0.230 OA 
HETATM   42  H   UNL     1      -5.772  19.941  69.213  1.00  0.00     0.000 HD 
ENDBRANCH  37  40
ENDBRANCH  36  37
ENDBRANCH   4  36
TORSDOF 12
ENDMDL
MODEL      197
REMARK 921   NORMALIZED FREE ENERGY PREDICTED BY IDOCK:    4.94 KCAL/MOL
REMARK 922        TOTAL FREE ENERGY PREDICTED BY IDOCK:    7.21 KCAL/MOL
REMARK 923 INTER-LIGAND FREE ENERGY PREDICTED BY IDOCK:   -3.87 KCAL/MOL
REMARK 924 INTRA-LIGAND FREE ENERGY PREDICTED BY IDOCK:   11.08 KCAL/MOL
REMARK 927      BINDING AFFINITY PREDICTED BY RF-SCORE:    0.00 PKD
ROOT
HETATM    1  C   UNL     1      -6.217  10.514  63.719  1.00  0.00    -0.003 C  
HETATM    2  C   UNL     1      -7.406  10.449  64.638  1.00  0.00    -0.026 C  
HETATM    3  O   UNL     1      -8.496  10.888  64.261  1.00  0.00    -0.052 OA 
HETATM    4  N   UNL     1      -7.211   9.898  65.907  1.00  0.00    -0.103 N  
ENDROOT
BRANCH   4   5
HETATM    5  C   UNL     1      -8.372   9.786  66.740  1.00  0.00    -0.124 A  
HETATM    6  C   UNL     1     -10.426   9.726  68.653  1.00  0.00    -0.208 A  
HETATM    7  C   UNL     1      -9.286  10.870  66.823  1.00  0.00    -0.158 A  
HETATM    8  C   UNL     1      -8.576   8.619  67.519  1.00  0.00    -0.135 A  
HETATM    9  I   UNL     1      -7.303   6.899  67.156  1.00  0.00    -0.094 I  
HETATM   10  I   UNL     1      -9.054  12.481  65.394  1.00  0.00     1.091 I  
HETATM   11  C   UNL     1      -9.597   8.582  68.495  1.00  0.00    -0.158 A  
HETATM   12  I   UNL     1     -11.701   9.855  70.411  1.00  0.00    -0.257 I  
HETATM   13  C   UNL     1     -10.322  10.853  67.779  1.00  0.00    -0.218 A  
BRANCH  11  14
HETATM   14  C   UNL     1      -9.685   7.407  69.414  1.00  0.00    -0.159 C  
HETATM   15  O   UNL     1     -10.513   6.524  69.217  1.00  0.00    -0.187 OA 
HETATM   16  N   UNL     1      -8.802   7.375  70.470  1.00  0.00    -0.148 N  
HETATM   17  H   UNL     1      -8.118   8.124  70.576  1.00  0.00     0.000 HD 
BRANCH  16  18
HETATM   18  C   UNL     1      -8.827   6.283  71.445  1.00  0.00    -0.139 C  
BRANCH  18  19
HETATM   19  C   UNL     1      -7.450   6.046  72.073  1.00  0.00    -0.095 C  
HETATM   20  H   UNL     1      -5.907   4.883  71.719  1.00  0.00     0.000 HD 
HETATM   21  O   UNL     1      -6.760   5.030  71.330  1.00  0.00    -0.037 OA 
BRANCH  19  22
HETATM   22  C   UNL     1      -6.622   7.339  72.119  1.00  0.00    -0.051 C  
HETATM   23  O   UNL     1      -5.618   7.351  71.105  1.00  0.00    -0.031 OA 
HETATM   24  H   UNL     1      -5.106   8.151  71.133  1.00  0.00     0.000 HD 
ENDBRANCH  19  22
ENDBRANCH  18  19
ENDBRANCH  16  18
ENDBRANCH  11  14
BRANCH  13  25
HETATM   25  C   UNL     1     -11.356  11.938  67.858  1.00  0.00    -0.291 C  
HETATM   26  O   UNL     1     -12.097  12.133  66.900  1.00  0.00    -0.600 OA 
HETATM   27  H   UNL     1     -10.842  12.479  69.811  1.00  0.00     0.000 HD 
HETATM   28  N   UNL     1     -11.437  12.697  69.012  1.00  0.00    -0.284 N  
BRANCH  28  29
HETATM   29  C   UNL     1     -12.378  13.810  69.080  1.00  0.00    -0.101 C  
BRANCH  29  30
HETATM   30  C   UNL     1     -11.679  15.175  69.146  1.00  0.00    -0.325 C  
HETATM   31  H   UNL     1     -10.218  15.980  70.189  1.00  0.00     0.000 HD 
HETATM   32  O   UNL     1     -10.650  15.136  70.149  1.00  0.00    -0.261 OA 
BRANCH  30  33
HETATM   33  C   UNL     1     -11.073  15.554  67.784  1.00  0.00    -0.315 C  
HETATM   34  O   UNL     1      -9.647  15.543  67.825  1.00  0.00    -0.208 OA 
HETATM   35  H   UNL     1      -9.273  15.778  66.985  1.00  0.00     0.000 HD 
ENDBRANCH  30  33
ENDBRANCH  29  30
ENDBRANCH  28  29
ENDBRANCH  13  25
ENDBRANCH   4   5
BRANCH   4  36
HETATM   36  C   UNL     1      -5.914   9.381  66.427  1.00  0.00    -0.059 C  
BRANCH  36  37
HETATM   37  C   UNL     1      -5.229   8.241  65.626  1.00  0.00    -0.031 C  
HETATM   38  O   UNL     1      -5.136   7.018  66.371  1.00  0.00    -0.020 OA 
HETATM   39  H   UNL     1      -4.717   6.321  65.881  1.00  0.00     0.000 HD 
BRANCH  37  40
HETATM   40  C   UNL     1      -5.943   7.900  64.314  1.00  0.00    -0.053 C  
HETATM   41  O   UNL     1      -5.180   6.925  63.595  1.00  0.00    -0.026 OA 
HETATM   42  H   UNL     1      -5.623   6.714  62.781  1.00  0.00     0.000 HD 
ENDBRANCH  37  40
ENDBRANCH  36  37
ENDBRANCH   4  36
TORSDOF 12
ENDMDL
MODEL      198
REMARK 921   NORMALIZED FREE ENERGY PREDICTED BY IDOCK:    5.85 KCAL/MOL
REMARK 922        TOTAL FREE ENERGY PREDICTED BY IDOCK:    8.76 KCAL/MOL
REMARK 923 INTER-LIGAND FREE ENERGY PREDICTED BY IDOCK:   -3.68 KCAL/MOL
REMARK 924 INTRA-LIGAND FREE ENERGY PREDICTED BY IDOCK:   12.44 KCAL/MOL
REMARK 927      BINDING AFFINITY PREDICTED BY RF-SCORE:    0.00 PKD
ROOT
HETATM    1  C   UNL     1     -11.345  13.356  63.762  1.00  0.00    -0.206 C  
HETATM    2  C   UNL     1     -11.440  12.999  65.220  1.00  0.00    -0.309 C  
HETATM    3  O   UNL     1     -12.151  13.674  65.970  1.00  0.00    -0.389 OA 
HETATM    4  N   UNL     1     -10.693  11.907  65.668  1.00  0.00    -0.271 N  
ENDROOT
BRANCH   4   5
HETATM    5  C   UNL     1     -10.852  11.545  67.045  1.00  0.00    -0.273 A  
HETATM    6  C   UNL     1     -11.545  10.792  69.660  1.00  0.00    -0.316 A  
HETATM    7  C   UNL     1     -10.758  10.182  67.431  1.00  0.00    -0.277 A  
HETATM    8  C   UNL     1     -11.159  12.540  68.008  1.00  0.00    -0.245 A  
HETATM    9  I   UNL     1     -11.030  14.625  67.418  1.00  0.00    -0.349 I  
HETATM   10  I   UNL     1     -10.009   8.780  65.960  1.00  0.00     0.537 I  
HETATM   11  C   UNL     1     -11.523  12.173  69.323  1.00  0.00    -0.363 A  
HETATM   12  I   UNL     1     -12.505  10.185  71.516  1.00  0.00    -0.444 I  
HETATM   13  C   UNL     1     -11.103   9.789  68.741  1.00  0.00    -0.140 A  
BRANCH  11  14
HETATM   14  C   UNL     1     -12.001  13.226  70.269  1.00  0.00    -0.300 C  
HETATM   15  O   UNL     1     -12.244  12.948  71.438  1.00  0.00    -0.109 OA 
HETATM   16  N   UNL     1     -12.150  14.498  69.762  1.00  0.00    -0.320 N  
HETATM   17  H   UNL     1     -11.912  14.680  68.786  1.00  0.00     0.000 HD 
BRANCH  16  18
HETATM   18  C   UNL     1     -12.642  15.593  70.598  1.00  0.00    -0.414 C  
BRANCH  18  19
HETATM   19  C   UNL     1     -14.089  15.364  71.046  1.00  0.00    -0.144 C  
HETATM   20  H   UNL     1     -15.290  13.821  71.243  1.00  0.00     0.000 HD 
HETATM   21  O   UNL     1     -14.393  13.963  70.965  1.00  0.00     0.249 OA 
BRANCH  19  22
HETATM   22  C   UNL     1     -14.327  15.888  72.470  1.00  0.00    -0.082 C  
HETATM   23  O   UNL     1     -13.805  14.991  73.449  1.00  0.00    -0.500 OA 
HETATM   24  H   UNL     1     -13.953  15.315  74.330  1.00  0.00     0.000 HD 
ENDBRANCH  19  22
ENDBRANCH  18  19
ENDBRANCH  16  18
ENDBRANCH  11  14
BRANCH  13  25
HETATM   25  C   UNL     1     -10.950   8.374  69.218  1.00  0.00     0.046 C  
HETATM   26  O   UNL     1     -10.554   8.164  70.359  1.00  0.00    -0.215 OA 
HETATM   27  H   UNL     1     -11.630   7.547  67.422  1.00  0.00     0.000 HD 
HETATM   28  N   UNL     1     -11.254   7.343  68.348  1.00  0.00     0.216 N  
BRANCH  28  29
HETATM   29  C   UNL     1     -11.035   5.961  68.761  1.00  0.00    -0.241 C  
BRANCH  29  30
HETATM   30  C   UNL     1     -10.812   5.014  67.574  1.00  0.00     0.442 C  
HETATM   31  H   UNL     1     -10.828   5.159  65.612  1.00  0.00     0.000 HD 
HETATM   32  O   UNL     1     -10.966   5.745  66.346  1.00  0.00    -0.206 OA 
BRANCH  30  33
HETATM   33  C   UNL     1      -9.416   4.372  67.633  1.00  0.00    -0.165 C  
HETATM   34  O   UNL     1      -8.388   5.359  67.696  1.00  0.00    -0.100 OA 
HETATM   35  H   UNL     1      -7.526   4.963  67.732  1.00  0.00     0.000 HD 
ENDBRANCH  30  33
ENDBRANCH  29  30
ENDBRANCH  28  29
ENDBRANCH  13  25
ENDBRANCH   4   5
BRANCH   4  36
HETATM   36  C   UNL     1      -9.797  11.075  64.816  1.00  0.00    -0.276 C  
BRANCH  36  37
HETATM   37  C   UNL     1      -8.740  11.816  63.956  1.00  0.00     0.854 C  
HETATM   38  O   UNL     1      -7.413  11.709  64.492  1.00  0.00     1.079 OA 
HETATM   39  H   UNL     1      -6.766  12.163  63.966  1.00  0.00     0.000 HD 
BRANCH  37  40
HETATM   40  C   UNL     1      -8.667  11.316  62.509  1.00  0.00    -0.181 C  
HETATM   41  O   UNL     1      -9.213   9.994  62.433  1.00  0.00    -0.271 OA 
HETATM   42  H   UNL     1      -9.168   9.684  61.537  1.00  0.00     0.000 HD 
ENDBRANCH  37  40
ENDBRANCH  36  37
ENDBRANCH   4  36
TORSDOF 12
ENDMDL
MODEL      199
REMARK 921   NORMALIZED FREE ENERGY PREDICTED BY IDOCK:    6.07 KCAL/MOL
REMARK 922        TOTAL FREE ENERGY PREDICTED BY IDOCK:    9.13 KCAL/MOL
REMARK 923 INTER-LIGAND FREE ENERGY PREDICTED BY IDOCK:    4.12 KCAL/MOL
REMARK 924 INTRA-LIGAND FREE ENERGY PREDICTED BY IDOCK:    5.01 KCAL/MOL
REMARK 927      BINDING AFFINITY PREDICTED BY RF-SCORE:    0.00 PKD
ROOT
HETATM    1  C   UNL     1      -7.134  11.813  70.380  1.00  0.00     1.560 C  
HETATM    2  C   UNL     1      -7.707  12.815  69.416  1.00  0.00     0.642 C  
HETATM    3  O   UNL     1      -8.885  13.163  69.522  1.00  0.00     1.028 OA 
HETATM    4  N   UNL     1      -6.861  13.303  68.415  1.00  0.00    -0.088 N  
ENDROOT
BRANCH   4   5
HETATM    5  C   UNL     1      -7.409  14.306  67.550  1.00  0.00    -0.179 A  
HETATM    6  C   UNL     1      -8.754  16.322  66.133  1.00  0.00    -0.318 A  
HETATM    7  C   UNL     1      -6.993  15.657  67.687  1.00  0.00    -0.172 A  
HETATM    8  C   UNL     1      -8.403  13.958  66.601  1.00  0.00     0.263 A  
HETATM    9  I   UNL     1      -8.807  11.854  66.251  1.00  0.00     0.118 I  
HETATM   10  I   UNL     1      -5.279  16.048  68.952  1.00  0.00    -0.112 I  
HETATM   11  C   UNL     1      -9.097  14.964  65.892  1.00  0.00     0.022 A  
HETATM   12  I   UNL     1     -10.079  17.881  65.392  1.00  0.00     1.492 I  
HETATM   13  C   UNL     1      -7.660  16.680  66.982  1.00  0.00    -0.237 A  
BRANCH  11  14
HETATM   14  C   UNL     1     -10.250  14.581  65.023  1.00  0.00    -0.365 C  
HETATM   15  O   UNL     1     -11.322  15.169  65.118  1.00  0.00    -0.368 OA 
HETATM   16  N   UNL     1     -10.043  13.553  64.130  1.00  0.00    -0.549 N  
HETATM   17  H   UNL     1      -9.125  13.112  64.077  1.00  0.00     0.000 HD 
BRANCH  16  18
HETATM   18  C   UNL     1     -11.118  13.081  63.257  1.00  0.00     0.231 C  
BRANCH  18  19
HETATM   19  C   UNL     1     -12.324  12.577  64.057  1.00  0.00    -0.469 C  
HETATM   20  H   UNL     1     -12.696  12.114  65.930  1.00  0.00     0.000 HD 
HETATM   21  O   UNL     1     -11.949  12.426  65.434  1.00  0.00    -0.408 OA 
BRANCH  19  22
HETATM   22  C   UNL     1     -13.524  13.528  63.924  1.00  0.00     2.435 C  
HETATM   23  O   UNL     1     -13.120  14.814  63.455  1.00  0.00     0.042 OA 
HETATM   24  H   UNL     1     -13.862  15.402  63.374  1.00  0.00     0.000 HD 
ENDBRANCH  19  22
ENDBRANCH  18  19
ENDBRANCH  16  18
ENDBRANCH  11  14
BRANCH  13  25
HETATM   25  C   UNL     1      -7.212  18.111  67.036  1.00  0.00    -0.201 C  
HETATM   26  O   UNL     1      -6.359  18.505  66.248  1.00  0.00    -0.172 OA 
HETATM   27  H   UNL     1      -8.516  18.607  68.593  1.00  0.00     0.000 HD 
HETATM   28  N   UNL     1      -7.772  18.948  67.985  1.00  0.00    -0.264 N  
BRANCH  28  29
HETATM   29  C   UNL     1      -7.294  20.320  68.110  1.00  0.00    -0.209 C  
BRANCH  29  30
HETATM   30  C   UNL     1      -6.794  20.648  69.524  1.00  0.00     0.459 C  
HETATM   31  H   UNL     1      -7.504  20.512  71.354  1.00  0.00     0.000 HD 
HETATM   32  O   UNL     1      -7.813  20.309  70.480  1.00  0.00     0.698 OA 
BRANCH  30  33
HETATM   33  C   UNL     1      -5.497  19.887  69.844  1.00  0.00    -0.235 C  
HETATM   34  O   UNL     1      -5.139  20.019  71.219  1.00  0.00    -0.222 OA 
HETATM   35  H   UNL     1      -4.338  19.549  71.417  1.00  0.00     0.000 HD 
ENDBRANCH  30  33
ENDBRANCH  29  30
ENDBRANCH  28  29
ENDBRANCH  13  25
ENDBRANCH   4   5
BRANCH   4  36
HETATM   36  C   UNL     1      -5.441  12.898  68.220  1.00  0.00    -0.075 C  
BRANCH  36  37
HETATM   37  C   UNL     1      -5.158  11.395  67.955  1.00  0.00    -0.044 C  
HETATM   38  O   UNL     1      -6.083  10.529  68.629  1.00  0.00    -0.044 OA 
HETATM   39  H   UNL     1      -5.909   9.609  68.467  1.00  0.00     0.000 HD 
BRANCH  37  40
HETATM   40  C   UNL     1      -5.207  11.016  66.471  1.00  0.00    -0.099 C  
HETATM   41  O   UNL     1      -5.131   9.592  66.340  1.00  0.00    -0.038 OA 
HETATM   42  H   UNL     1      -5.161   9.357  65.420  1.00  0.00     0.000 HD 
ENDBRANCH  37  40
ENDBRANCH  36  37
ENDBRANCH   4  36
TORSDOF 12
ENDMDL
MODEL      200
REMARK 921   NORMALIZED FREE ENERGY PREDICTED BY IDOCK:    8.73 KCAL/MOL
REMARK 922        TOTAL FREE ENERGY PREDICTED BY IDOCK:   13.65 KCAL/MOL
REMARK 923 INTER-LIGAND FREE ENERGY PREDICTED BY IDOCK:    0.36 KCAL/MOL
REMARK 924 INTRA-LIGAND FREE ENERGY PREDICTED BY IDOCK:   13.29 KCAL/MOL
REMARK 927      BINDING AFFINITY PREDICTED BY RF-SCORE:    0.00 PKD
ROOT
HETATM    1  C   UNL     1     -11.651  10.616  64.879  1.00  0.00     1.559 C  
HETATM    2  C   UNL     1     -11.045  11.734  65.683  1.00  0.00    -0.285 C  
HETATM    3  O   UNL     1     -11.548  12.859  65.643  1.00  0.00    -0.328 OA 
HETATM    4  N   UNL     1      -9.908  11.440  66.441  1.00  0.00    -0.206 N  
ENDROOT
BRANCH   4   5
HETATM    5  C   UNL     1      -9.389  12.503  67.251  1.00  0.00    -0.190 A  
HETATM    6  C   UNL     1      -8.056  14.569  68.605  1.00  0.00    -0.150 A  
HETATM    7  C   UNL     1      -9.617  13.853  66.871  1.00  0.00    -0.269 A  
HETATM    8  C   UNL     1      -8.603  12.205  68.393  1.00  0.00    -0.141 A  
HETATM    9  I   UNL     1      -8.509  10.147  69.074  1.00  0.00    -0.180 I  
HETATM   10  I   UNL     1     -11.054  14.215  65.292  1.00  0.00    -0.413 I  
HETATM   11  C   UNL     1      -7.916  13.235  69.075  1.00  0.00     0.258 A  
HETATM   12  I   UNL     1      -6.689  16.088  69.356  1.00  0.00    -0.136 I  
HETATM   13  C   UNL     1      -8.954  14.900  67.543  1.00  0.00    -0.190 A  
BRANCH  11  14
HETATM   14  C   UNL     1      -6.966  12.876  70.171  1.00  0.00     0.911 C  
HETATM   15  O   UNL     1      -6.087  13.660  70.513  1.00  0.00    -0.163 OA 
HETATM   16  N   UNL     1      -7.131  11.642  70.759  1.00  0.00     1.562 N  
HETATM   17  H   UNL     1      -7.892  11.037  70.451  1.00  0.00     0.000 HD 
BRANCH  16  18
HETATM   18  C   UNL     1      -6.233  11.183  71.819  1.00  0.00     1.801 C  
BRANCH  18  19
HETATM   19  C   UNL     1      -5.314  10.055  71.341  1.00  0.00    -0.075 C  
HETATM   20  H   UNL     1      -4.596   8.388  72.094  1.00  0.00     0.000 HD 
HETATM   21  O   UNL     1      -5.166   9.087  72.391  1.00  0.00    -0.051 OA 
BRANCH  19  22
HETATM   22  C   UNL     1      -5.855   9.391  70.066  1.00  0.00    -0.035 C  
HETATM   23  O   UNL     1      -6.719   8.298  70.374  1.00  0.00    -0.036 OA 
HETATM   24  H   UNL     1      -7.053   7.887  69.585  1.00  0.00     0.000 HD 
ENDBRANCH  19  22
ENDBRANCH  18  19
ENDBRANCH  16  18
ENDBRANCH  11  14
BRANCH  13  25
HETATM   25  C   UNL     1      -9.217  16.344  67.230  1.00  0.00    -0.215 C  
HETATM   26  O   UNL     1      -8.530  16.911  66.387  1.00  0.00    -0.246 OA 
HETATM   27  H   UNL     1     -10.816  16.490  68.570  1.00  0.00     0.000 HD 
HETATM   28  N   UNL     1     -10.227  17.000  67.911  1.00  0.00    -0.303 N  
BRANCH  28  29
HETATM   29  C   UNL     1     -10.447  18.423  67.683  1.00  0.00    -0.419 C  
BRANCH  29  30
HETATM   30  C   UNL     1      -9.524  19.310  68.529  1.00  0.00    -0.389 C  
HETATM   31  H   UNL     1      -8.329  19.062  70.072  1.00  0.00     0.000 HD 
HETATM   32  O   UNL     1      -8.900  18.513  69.549  1.00  0.00     0.309 OA 
BRANCH  30  33
HETATM   33  C   UNL     1      -8.451  19.984  67.658  1.00  0.00    -0.326 C  
HETATM   34  O   UNL     1      -8.652  19.706  66.273  1.00  0.00    -0.349 OA 
HETATM   35  H   UNL     1      -7.989  20.122  65.734  1.00  0.00     0.000 HD 
ENDBRANCH  30  33
ENDBRANCH  29  30
ENDBRANCH  28  29
ENDBRANCH  13  25
ENDBRANCH   4   5
BRANCH   4  36
HETATM   36  C   UNL     1      -9.240  10.110  66.506  1.00  0.00    -0.153 C  
BRANCH  36  37
HETATM   37  C   UNL     1      -8.315   9.719  65.323  1.00  0.00    -0.142 C  
HETATM   38  O   UNL     1      -6.964  10.168  65.504  1.00  0.00    -0.117 OA 
HETATM   39  H   UNL     1      -6.397   9.929  64.779  1.00  0.00     0.000 HD 
BRANCH  37  40
HETATM   40  C   UNL     1      -8.242   8.208  65.076  1.00  0.00    -0.154 C  
HETATM   41  O   UNL     1      -8.593   7.929  63.716  1.00  0.00    -0.381 OA 
HETATM   42  H   UNL     1      -8.549   6.993  63.563  1.00  0.00     0.000 HD 
ENDBRANCH  37  40
ENDBRANCH  36  37
ENDBRANCH   4  36
TORSDOF 12
ENDMDL
MODEL      201
REMARK 921   NORMALIZED FREE ENERGY PREDICTED BY IDOCK:    9.40 KCAL/MOL
REMARK 922        TOTAL FREE ENERGY PREDICTED BY IDOCK:   14.79 KCAL/MOL
REMARK 923 INTER-LIGAND FREE ENERGY PREDICTED BY IDOCK:    0.62 KCAL/MOL
REMARK 924 INTRA-LIGAND FREE ENERGY PREDICTED BY IDOCK:   14.17 KCAL/MOL
REMARK 927      BINDING AFFINITY PREDICTED BY RF-SCORE:    0.00 PKD
ROOT
HETATM    1  C   UNL     1     -12.882  13.543  73.566  1.00  0.00     1.956 C  
HETATM    2  C   UNL     1     -12.318  13.883  72.214  1.00  0.00     0.099 C  
HETATM    3  O   UNL     1     -11.552  14.843  72.094  1.00  0.00    -0.345 OA 
HETATM    4  N   UNL     1     -12.709  13.088  71.133  1.00  0.00    -0.336 N  
ENDROOT
BRANCH   4   5
HETATM    5  C   UNL     1     -12.106  13.389  69.868  1.00  0.00    -0.322 A  
HETATM    6  C   UNL     1     -10.584  13.941  67.575  1.00  0.00    -0.256 A  
HETATM    7  C   UNL     1     -11.760  12.332  68.984  1.00  0.00    -0.324 A  
HETATM    8  C   UNL     1     -11.807  14.732  69.527  1.00  0.00    -0.326 A  
HETATM    9  I   UNL     1     -12.593  16.317  70.785  1.00  0.00     2.322 I  
HETATM   10  I   UNL     1     -12.507  10.355  69.454  1.00  0.00     1.238 I  
HETATM   11  C   UNL     1     -11.029  15.022  68.383  1.00  0.00    -0.266 A  
HETATM   12  I   UNL     1      -9.048  14.321  66.080  1.00  0.00     0.514 I  
HETATM   13  C   UNL     1     -10.995  12.596  67.829  1.00  0.00    -0.266 A  
BRANCH  11  14
HETATM   14  C   UNL     1     -10.590  16.429  68.139  1.00  0.00    -0.318 C  
HETATM   15  O   UNL     1     -11.221  17.154  67.377  1.00  0.00    -0.026 OA 
HETATM   16  N   UNL     1      -9.461  16.854  68.803  1.00  0.00    -0.262 N  
HETATM   17  H   UNL     1      -8.986  16.216  69.442  1.00  0.00     0.000 HD 
BRANCH  16  18
HETATM   18  C   UNL     1      -8.930  18.203  68.607  1.00  0.00    -0.275 C  
BRANCH  18  19
HETATM   19  C   UNL     1      -8.080  18.304  67.337  1.00  0.00    -0.232 C  
HETATM   20  H   UNL     1      -7.857  17.259  65.687  1.00  0.00     0.000 HD 
HETATM   21  O   UNL     1      -8.384  17.197  66.474  1.00  0.00    -0.230 OA 
BRANCH  19  22
HETATM   22  C   UNL     1      -8.311  19.636  66.608  1.00  0.00    -0.321 C  
HETATM   23  O   UNL     1      -8.290  20.737  67.517  1.00  0.00    -0.293 OA 
HETATM   24  H   UNL     1      -8.434  21.561  67.066  1.00  0.00     0.000 HD 
ENDBRANCH  19  22
ENDBRANCH  18  19
ENDBRANCH  16  18
ENDBRANCH  11  14
BRANCH  13  25
HETATM   25  C   UNL     1     -10.667  11.528  66.827  1.00  0.00    -0.270 C  
HETATM   26  O   UNL     1     -11.148  10.408  66.962  1.00  0.00    -0.210 OA 
HETATM   27  H   UNL     1      -9.474  12.791  65.662  1.00  0.00     0.000 HD 
HETATM   28  N   UNL     1      -9.819  11.838  65.779  1.00  0.00    -0.234 N  
BRANCH  28  29
HETATM   29  C   UNL     1      -9.420  10.795  64.840  1.00  0.00    -0.242 C  
BRANCH  29  30
HETATM   30  C   UNL     1      -8.034  10.214  65.151  1.00  0.00    -0.146 C  
HETATM   31  H   UNL     1      -6.542  10.652  66.357  1.00  0.00     0.000 HD 
HETATM   32  O   UNL     1      -7.399  11.012  66.164  1.00  0.00    -0.129 OA 
BRANCH  30  33
HETATM   33  C   UNL     1      -8.138   8.753  65.619  1.00  0.00    -0.108 C  
HETATM   34  O   UNL     1      -9.315   8.535  66.395  1.00  0.00    -0.181 OA 
HETATM   35  H   UNL     1      -9.379   7.633  66.685  1.00  0.00     0.000 HD 
ENDBRANCH  30  33
ENDBRANCH  29  30
ENDBRANCH  28  29
ENDBRANCH  13  25
ENDBRANCH   4   5
BRANCH   4  36
HETATM   36  C   UNL     1     -13.651  11.937  71.213  1.00  0.00     0.718 C  
BRANCH  36  37
HETATM   37  C   UNL     1     -13.038  10.525  71.413  1.00  0.00    -0.410 C  
HETATM   38  O   UNL     1     -11.958  10.519  72.359  1.00  0.00     0.995 OA 
HETATM   39  H   UNL     1     -11.582   9.655  72.482  1.00  0.00     0.000 HD 
BRANCH  37  40
HETATM   40  C   UNL     1     -14.049   9.481  71.899  1.00  0.00    -0.080 C  
HETATM   41  O   UNL     1     -13.954   9.350  73.322  1.00  0.00    -0.815 OA 
HETATM   42  H   UNL     1     -14.580   8.703  73.623  1.00  0.00     0.000 HD 
ENDBRANCH  37  40
ENDBRANCH  36  37
ENDBRANCH   4  36
TORSDOF 12
ENDMDL
MODEL      202
REMARK 921   NORMALIZED FREE ENERGY PREDICTED BY IDOCK:   10.37 KCAL/MOL
REMARK 922        TOTAL FREE ENERGY PREDICTED BY IDOCK:   16.45 KCAL/MOL
REMARK 923 INTER-LIGAND FREE ENERGY PREDICTED BY IDOCK:    7.25 KCAL/MOL
REMARK 924 INTRA-LIGAND FREE ENERGY PREDICTED BY IDOCK:    9.20 KCAL/MOL
REMARK 927      BINDING AFFINITY PREDICTED BY RF-SCORE:    0.00 PKD
ROOT
HETATM    1  C   UNL     1     -10.372  10.631  62.408  1.00  0.00     0.706 C  
HETATM    2  C   UNL     1      -9.407  10.629  63.561  1.00  0.00    -0.290 C  
HETATM    3  O   UNL     1      -8.447   9.854  63.555  1.00  0.00    -0.153 OA 
HETATM    4  N   UNL     1      -9.658  11.512  64.615  1.00  0.00    -0.202 N  
ENDROOT
BRANCH   4   5
HETATM    5  C   UNL     1      -8.689  11.539  65.670  1.00  0.00     0.050 A  
HETATM    6  C   UNL     1      -7.097  11.616  67.981  1.00  0.00    -0.080 A  
HETATM    7  C   UNL     1      -8.278  10.324  66.280  1.00  0.00    -0.131 A  
HETATM    8  C   UNL     1      -8.188  12.780  66.140  1.00  0.00     0.924 A  
HETATM    9  I   UNL     1      -8.642  14.574  65.008  1.00  0.00     7.136 I  
HETATM   10  I   UNL     1      -8.870   8.477  65.317  1.00  0.00     0.087 I  
HETATM   11  C   UNL     1      -7.397  12.832  67.311  1.00  0.00    -0.095 A  
HETATM   12  I   UNL     1      -6.263  11.709  69.989  1.00  0.00     0.100 I  
HETATM   13  C   UNL     1      -7.478  10.348  67.441  1.00  0.00    -0.094 A  
BRANCH  11  14
HETATM   14  C   UNL     1      -7.021  14.163  67.877  1.00  0.00    -0.165 C  
HETATM   15  O   UNL     1      -6.345  14.235  68.898  1.00  0.00    -0.082 OA 
HETATM   16  N   UNL     1      -7.466  15.277  67.200  1.00  0.00    -0.198 N  
HETATM   17  H   UNL     1      -8.006  15.160  66.343  1.00  0.00     0.000 HD 
BRANCH  16  18
HETATM   18  C   UNL     1      -7.178  16.625  67.690  1.00  0.00    -0.138 C  
BRANCH  18  19
HETATM   19  C   UNL     1      -8.166  17.061  68.777  1.00  0.00    -0.245 C  
HETATM   20  H   UNL     1      -8.049  17.877  70.561  1.00  0.00     0.000 HD 
HETATM   21  O   UNL     1      -7.437  17.606  69.888  1.00  0.00     0.579 OA 
BRANCH  19  22
HETATM   22  C   UNL     1      -9.178  18.084  68.240  1.00  0.00    -0.293 C  
HETATM   23  O   UNL     1      -8.639  19.405  68.252  1.00  0.00    -0.318 OA 
HETATM   24  H   UNL     1      -9.265  20.038  67.920  1.00  0.00     0.000 HD 
ENDBRANCH  19  22
ENDBRANCH  18  19
ENDBRANCH  16  18
ENDBRANCH  11  14
BRANCH  13  25
HETATM   25  C   UNL     1      -6.957   9.093  68.079  1.00  0.00    -0.077 C  
HETATM   26  O   UNL     1      -5.784   9.040  68.431  1.00  0.00    -0.038 OA 
HETATM   27  H   UNL     1      -8.802   8.113  67.987  1.00  0.00     0.000 HD 
HETATM   28  N   UNL     1      -7.819   8.023  68.243  1.00  0.00    -0.120 N  
BRANCH  28  29
HETATM   29  C   UNL     1      -7.315   6.766  68.785  1.00  0.00    -0.094 C  
BRANCH  29  30
HETATM   30  C   UNL     1      -7.120   5.691  67.707  1.00  0.00    -0.071 C  
HETATM   31  H   UNL     1      -7.218   3.728  67.616  1.00  0.00     0.000 HD 
HETATM   32  O   UNL     1      -7.339   4.393  68.283  1.00  0.00    -0.063 OA 
BRANCH  30  33
HETATM   33  C   UNL     1      -8.078   5.911  66.524  1.00  0.00    -0.102 C  
HETATM   34  O   UNL     1      -9.395   5.457  66.828  1.00  0.00    -0.126 OA 
HETATM   35  H   UNL     1      -9.987   5.592  66.097  1.00  0.00     0.000 HD 
ENDBRANCH  30  33
ENDBRANCH  29  30
ENDBRANCH  28  29
ENDBRANCH  13  25
ENDBRANCH   4   5
BRANCH   4  36
HETATM   36  C   UNL     1     -10.815  12.448  64.691  1.00  0.00    -0.309 C  
BRANCH  36  37
HETATM   37  C   UNL     1     -12.130  11.908  65.313  1.00  0.00     0.098 C  
HETATM   38  O   UNL     1     -12.878  12.923  65.998  1.00  0.00    -0.249 OA 
HETATM   39  H   UNL     1     -13.683  12.593  66.379  1.00  0.00     0.000 HD 
BRANCH  37  40
HETATM   40  C   UNL     1     -13.081  11.283  64.287  1.00  0.00     2.024 C  
HETATM   41  O   UNL     1     -12.994  12.005  63.053  1.00  0.00    -0.724 OA 
HETATM   42  H   UNL     1     -13.584  11.618  62.418  1.00  0.00     0.000 HD 
ENDBRANCH  37  40
ENDBRANCH  36  37
ENDBRANCH   4  36
TORSDOF 12
ENDMDL
MODEL      203
REMARK 921   NORMALIZED FREE ENERGY PREDICTED BY IDOCK:   11.46 KCAL/MOL
REMARK 922        TOTAL FREE ENERGY PREDICTED BY IDOCK:   18.30 KCAL/MOL
REMARK 923 INTER-LIGAND FREE ENERGY PREDICTED BY IDOCK:    8.72 KCAL/MOL
REMARK 924 INTRA-LIGAND FREE ENERGY PREDICTED BY IDOCK:    9.58 KCAL/MOL
REMARK 927      BINDING AFFINITY PREDICTED BY RF-SCORE:    0.00 PKD
ROOT
HETATM    1  C   UNL     1      -6.595  12.899  72.625  1.00  0.00     4.808 C  
HETATM    2  C   UNL     1      -6.489  11.739  71.674  1.00  0.00     3.147 C  
HETATM    3  O   UNL     1      -6.273  10.606  72.112  1.00  0.00     0.501 OA 
HETATM    4  N   UNL     1      -6.629  12.008  70.310  1.00  0.00     0.238 N  
ENDROOT
BRANCH   4   5
HETATM    5  C   UNL     1      -6.591  10.878  69.429  1.00  0.00    -0.095 A  
HETATM    6  C   UNL     1      -6.878   8.771  67.596  1.00  0.00    -0.071 A  
HETATM    7  C   UNL     1      -6.129  11.039  68.096  1.00  0.00    -0.049 A  
HETATM    8  C   UNL     1      -7.066   9.618  69.872  1.00  0.00    -0.095 A  
HETATM    9  I   UNL     1      -7.509   9.363  71.982  1.00  0.00     1.614 I  
HETATM   10  I   UNL     1      -5.161  12.912  67.597  1.00  0.00     0.075 I  
HETATM   11  C   UNL     1      -7.229   8.554  68.956  1.00  0.00    -0.073 A  
HETATM   12  I   UNL     1      -7.515   7.315  66.109  1.00  0.00    -0.090 I  
HETATM   13  C   UNL     1      -6.267   9.989  67.165  1.00  0.00    -0.066 A  
BRANCH  11  14
HETATM   14  C   UNL     1      -7.886   7.292  69.414  1.00  0.00    -0.122 C  
HETATM   15  O   UNL     1      -9.036   7.309  69.839  1.00  0.00    -0.142 OA 
HETATM   16  N   UNL     1      -7.142   6.136  69.332  1.00  0.00    -0.067 N  
HETATM   17  H   UNL     1      -6.197   6.175  68.949  1.00  0.00     0.000 HD 
BRANCH  16  18
HETATM   18  C   UNL     1      -7.683   4.854  69.784  1.00  0.00    -0.056 C  
BRANCH  18  19
HETATM   19  C   UNL     1      -7.513   3.758  68.727  1.00  0.00    -0.054 C  
HETATM   20  H   UNL     1      -7.762   1.811  68.645  1.00  0.00     0.000 HD 
HETATM   21  O   UNL     1      -7.867   2.490  69.300  1.00  0.00    -0.043 OA 
BRANCH  19  22
HETATM   22  C   UNL     1      -8.362   4.044  67.479  1.00  0.00    -0.098 C  
HETATM   23  O   UNL     1      -9.507   4.833  67.797  1.00  0.00    -0.133 OA 
HETATM   24  H   UNL     1     -10.032   5.009  67.025  1.00  0.00     0.000 HD 
ENDBRANCH  19  22
ENDBRANCH  18  19
ENDBRANCH  16  18
ENDBRANCH  11  14
BRANCH  13  25
HETATM   25  C   UNL     1      -5.728  10.084  65.767  1.00  0.00    -0.064 C  
HETATM   26  O   UNL     1      -5.161  11.111  65.409  1.00  0.00    -0.236 OA 
HETATM   27  H   UNL     1      -6.327   8.147  65.255  1.00  0.00     0.000 HD 
HETATM   28  N   UNL     1      -5.897   9.007  64.915  1.00  0.00    -0.062 N  
BRANCH  28  29
HETATM   29  C   UNL     1      -5.456   9.107  63.528  1.00  0.00    -0.067 C  
BRANCH  29  30
HETATM   30  C   UNL     1      -6.624   9.150  62.535  1.00  0.00    -0.093 C  
HETATM   31  H   UNL     1      -7.961   7.878  61.849  1.00  0.00     0.000 HD 
HETATM   32  O   UNL     1      -7.238   7.852  62.464  1.00  0.00    -0.087 OA 
BRANCH  30  33
HETATM   33  C   UNL     1      -7.666  10.203  62.949  1.00  0.00    -0.148 C  
HETATM   34  O   UNL     1      -8.961   9.624  63.103  1.00  0.00    -0.239 OA 
HETATM   35  H   UNL     1      -9.605  10.275  63.359  1.00  0.00     0.000 HD 
ENDBRANCH  30  33
ENDBRANCH  29  30
ENDBRANCH  28  29
ENDBRANCH  13  25
ENDBRANCH   4   5
BRANCH   4  36
HETATM   36  C   UNL     1      -6.861  13.357  69.722  1.00  0.00     0.204 C  
BRANCH  36  37
HETATM   37  C   UNL     1      -8.332  13.834  69.593  1.00  0.00     1.139 C  
HETATM   38  O   UNL     1      -8.523  15.176  70.065  1.00  0.00    -0.351 OA 
HETATM   39  H   UNL     1      -9.424  15.469  69.987  1.00  0.00     0.000 HD 
BRANCH  37  40
HETATM   40  C   UNL     1      -8.864  13.798  68.156  1.00  0.00    -0.185 C  
HETATM   41  O   UNL     1     -10.127  14.471  68.097  1.00  0.00    -0.218 OA 
HETATM   42  H   UNL     1     -10.457  14.448  67.207  1.00  0.00     0.000 HD 
ENDBRANCH  37  40
ENDBRANCH  36  37
ENDBRANCH   4  36
TORSDOF 12
ENDMDL
MODEL      204
REMARK 921   NORMALIZED FREE ENERGY PREDICTED BY IDOCK:   11.67 KCAL/MOL
REMARK 922        TOTAL FREE ENERGY PREDICTED BY IDOCK:   18.65 KCAL/MOL
REMARK 923 INTER-LIGAND FREE ENERGY PREDICTED BY IDOCK:   13.28 KCAL/MOL
REMARK 924 INTRA-LIGAND FREE ENERGY PREDICTED BY IDOCK:    5.37 KCAL/MOL
REMARK 927      BINDING AFFINITY PREDICTED BY RF-SCORE:    0.00 PKD
ROOT
HETATM    1  C   UNL     1      -6.117  13.732  65.088  1.00  0.00    13.897 C  
HETATM    2  C   UNL     1      -6.977  12.893  65.993  1.00  0.00     3.454 C  
HETATM    3  O   UNL     1      -7.383  11.794  65.605  1.00  0.00     0.734 OA 
HETATM    4  N   UNL     1      -7.294  13.415  67.250  1.00  0.00    -0.098 N  
ENDROOT
BRANCH   4   5
HETATM    5  C   UNL     1      -8.057  12.570  68.119  1.00  0.00    -0.167 A  
HETATM    6  C   UNL     1      -9.696  10.752  69.494  1.00  0.00     0.017 A  
HETATM    7  C   UNL     1      -7.528  11.315  68.524  1.00  0.00    -0.115 A  
HETATM    8  C   UNL     1      -9.359  12.961  68.525  1.00  0.00    -0.074 A  
HETATM    9  I   UNL     1     -10.009  14.987  68.099  1.00  0.00    -0.231 I  
HETATM   10  I   UNL     1      -5.440  10.930  68.098  1.00  0.00    -0.037 I  
HETATM   11  C   UNL     1     -10.198  12.050  69.205  1.00  0.00     0.127 A  
HETATM   12  I   UNL     1     -11.093   9.213  70.141  1.00  0.00    -0.132 I  
HETATM   13  C   UNL     1      -8.340  10.393  69.216  1.00  0.00    -0.161 A  
BRANCH  11  14
HETATM   14  C   UNL     1     -11.618  12.428  69.474  1.00  0.00    -0.286 C  
HETATM   15  O   UNL     1     -12.537  11.741  69.040  1.00  0.00    -0.042 OA 
HETATM   16  N   UNL     1     -11.829  13.566  70.219  1.00  0.00    -0.490 N  
HETATM   17  H   UNL     1     -11.028  14.089  70.575  1.00  0.00     0.000 HD 
BRANCH  16  18
HETATM   18  C   UNL     1     -13.183  14.039  70.511  1.00  0.00     0.078 C  
BRANCH  18  19
HETATM   19  C   UNL     1     -13.387  14.300  72.007  1.00  0.00    -0.398 C  
HETATM   20  H   UNL     1     -13.333  13.234  73.657  1.00  0.00     0.000 HD 
HETATM   21  O   UNL     1     -13.207  13.072  72.730  1.00  0.00    -0.384 OA 
BRANCH  19  22
HETATM   22  C   UNL     1     -12.426  15.380  72.526  1.00  0.00    -0.377 C  
HETATM   23  O   UNL     1     -12.077  16.305  71.497  1.00  0.00    -0.612 OA 
HETATM   24  H   UNL     1     -11.482  16.972  71.819  1.00  0.00     0.000 HD 
ENDBRANCH  19  22
ENDBRANCH  18  19
ENDBRANCH  16  18
ENDBRANCH  11  14
BRANCH  13  25
HETATM   25  C   UNL     1      -7.807   9.087  69.729  1.00  0.00    -0.086 C  
HETATM   26  O   UNL     1      -7.538   8.193  68.934  1.00  0.00    -0.094 OA 
HETATM   27  H   UNL     1      -7.827   9.704  71.727  1.00  0.00     0.000 HD 
HETATM   28  N   UNL     1      -7.643   8.926  71.094  1.00  0.00    -0.119 N  
BRANCH  28  29
HETATM   29  C   UNL     1      -7.205   7.639  71.622  1.00  0.00    -0.064 C  
BRANCH  29  30
HETATM   30  C   UNL     1      -5.684   7.452  71.545  1.00  0.00    -0.036 C  
HETATM   31  H   UNL     1      -4.197   7.314  72.826  1.00  0.00     0.000 HD 
HETATM   32  O   UNL     1      -5.138   7.429  72.874  1.00  0.00    -0.037 OA 
BRANCH  30  33
HETATM   33  C   UNL     1      -5.322   6.153  70.805  1.00  0.00    -0.014 C  
HETATM   34  O   UNL     1      -6.230   5.100  71.124  1.00  0.00    -0.021 OA 
HETATM   35  H   UNL     1      -6.006   4.298  70.667  1.00  0.00     0.000 HD 
ENDBRANCH  30  33
ENDBRANCH  29  30
ENDBRANCH  28  29
ENDBRANCH  13  25
ENDBRANCH   4   5
BRANCH   4  36
HETATM   36  C   UNL     1      -6.857  14.745  67.759  1.00  0.00    -0.177 C  
BRANCH  36  37
HETATM   37  C   UNL     1      -7.345  16.000  66.987  1.00  0.00    -0.223 C  
HETATM   38  O   UNL     1      -8.658  16.421  67.386  1.00  0.00    -0.174 OA 
HETATM   39  H   UNL     1      -8.957  17.189  66.913  1.00  0.00     0.000 HD 
BRANCH  37  40
HETATM   40  C   UNL     1      -6.428  17.216  67.153  1.00  0.00    -0.178 C  
HETATM   41  O   UNL     1      -7.210  18.358  67.519  1.00  0.00    -0.207 OA 
HETATM   42  H   UNL     1      -6.641  19.112  67.622  1.00  0.00     0.000 HD 
ENDBRANCH  37  40
ENDBRANCH  36  37
ENDBRANCH   4  36
TORSDOF 12
ENDMDL
MODEL      205
REMARK 921   NORMALIZED FREE ENERGY PREDICTED BY IDOCK:   12.74 KCAL/MOL
REMARK 922        TOTAL FREE ENERGY PREDICTED BY IDOCK:   20.47 KCAL/MOL
REMARK 923 INTER-LIGAND FREE ENERGY PREDICTED BY IDOCK:   13.66 KCAL/MOL
REMARK 924 INTRA-LIGAND FREE ENERGY PREDICTED BY IDOCK:    6.81 KCAL/MOL
REMARK 927      BINDING AFFINITY PREDICTED BY RF-SCORE:    0.00 PKD
ROOT
HETATM    1  C   UNL     1      -7.349   5.685  71.507  1.00  0.00    -0.087 C  
HETATM    2  C   UNL     1      -8.061   6.190  70.282  1.00  0.00    -0.112 C  
HETATM    3  O   UNL     1      -9.135   5.685  69.946  1.00  0.00    -0.132 OA 
HETATM    4  N   UNL     1      -7.451   7.220  69.560  1.00  0.00    -0.089 N  
ENDROOT
BRANCH   4   5
HETATM    5  C   UNL     1      -8.179   7.731  68.437  1.00  0.00    -0.124 A  
HETATM    6  C   UNL     1      -9.929   8.635  66.437  1.00  0.00    -0.260 A  
HETATM    7  C   UNL     1      -8.579   9.094  68.417  1.00  0.00    -0.129 A  
HETATM    8  C   UNL     1      -8.547   6.864  67.377  1.00  0.00    -0.121 A  
HETATM    9  I   UNL     1      -7.691   4.870  67.328  1.00  0.00    -0.091 I  
HETATM   10  I   UNL     1      -7.735  10.401  69.924  1.00  0.00     0.376 I  
HETATM   11  C   UNL     1      -9.439   7.303  66.372  1.00  0.00    -0.185 A  
HETATM   12  I   UNL     1     -11.611   9.190  65.171  1.00  0.00    12.299 I  
HETATM   13  C   UNL     1      -9.457   9.561  67.419  1.00  0.00    -0.164 A  
BRANCH  11  14
HETATM   14  C   UNL     1      -9.940   6.322  65.363  1.00  0.00     1.162 C  
HETATM   15  O   UNL     1     -11.000   5.732  65.543  1.00  0.00     0.813 OA 
HETATM   16  N   UNL     1      -9.160   6.124  64.245  1.00  0.00     0.091 N  
HETATM   17  H   UNL     1      -8.297   6.657  64.135  1.00  0.00     0.000 HD 
BRANCH  16  18
HETATM   18  C   UNL     1      -9.547   5.161  63.214  1.00  0.00     0.613 C  
BRANCH  18  19
HETATM   19  C   UNL     1     -10.865   4.458  63.553  1.00  0.00     0.400 C  
HETATM   20  H   UNL     1     -12.541   4.045  62.614  1.00  0.00     0.000 HD 
HETATM   21  O   UNL     1     -11.724   4.481  62.403  1.00  0.00     0.610 OA 
BRANCH  19  22
HETATM   22  C   UNL     1     -10.628   3.015  64.022  1.00  0.00    -0.081 C  
HETATM   23  O   UNL     1     -10.673   2.915  65.445  1.00  0.00     0.660 OA 
HETATM   24  H   UNL     1     -10.526   2.022  65.735  1.00  0.00     0.000 HD 
ENDBRANCH  19  22
ENDBRANCH  18  19
ENDBRANCH  16  18
ENDBRANCH  11  14
BRANCH  13  25
HETATM   25  C   UNL     1      -9.850  11.006  67.312  1.00  0.00    -0.178 C  
HETATM   26  O   UNL     1     -10.656  11.471  68.111  1.00  0.00    -0.182 OA 
HETATM   27  H   UNL     1      -8.589  11.374  65.685  1.00  0.00     0.000 HD 
HETATM   28  N   UNL     1      -9.295  11.773  66.303  1.00  0.00    -0.222 N  
BRANCH  28  29
HETATM   29  C   UNL     1      -9.722  13.157  66.129  1.00  0.00    -0.248 C  
BRANCH  29  30
HETATM   30  C   UNL     1      -8.678  14.168  66.621  1.00  0.00    -0.044 C  
HETATM   31  H   UNL     1      -8.272  16.067  66.303  1.00  0.00     0.000 HD 
HETATM   32  O   UNL     1      -8.918  15.442  65.999  1.00  0.00    -0.310 OA 
BRANCH  30  33
HETATM   33  C   UNL     1      -8.723  14.312  68.151  1.00  0.00    -0.174 C  
HETATM   34  O   UNL     1      -7.428  14.574  68.690  1.00  0.00    -0.114 OA 
HETATM   35  H   UNL     1      -7.456  14.662  69.635  1.00  0.00     0.000 HD 
ENDBRANCH  30  33
ENDBRANCH  29  30
ENDBRANCH  28  29
ENDBRANCH  13  25
ENDBRANCH   4   5
BRANCH   4  36
HETATM   36  C   UNL     1      -6.143   7.848  69.901  1.00  0.00    -0.026 C  
BRANCH  36  37
HETATM   37  C   UNL     1      -5.846   8.105  71.403  1.00  0.00    -0.035 C  
HETATM   38  O   UNL     1      -5.329   9.421  71.648  1.00  0.00    -0.054 OA 
HETATM   39  H   UNL     1      -5.147   9.579  72.567  1.00  0.00     0.000 HD 
BRANCH  37  40
HETATM   40  C   UNL     1      -7.073   7.943  72.306  1.00  0.00    -0.081 C  
HETATM   41  O   UNL     1      -6.756   8.395  73.628  1.00  0.00    -0.119 OA 
HETATM   42  H   UNL     1      -7.516   8.294  74.188  1.00  0.00     0.000 HD 
ENDBRANCH  37  40
ENDBRANCH  36  37
ENDBRANCH   4  36
TORSDOF 12
ENDMDL
MODEL      206
REMARK 921   NORMALIZED FREE ENERGY PREDICTED BY IDOCK:   13.00 KCAL/MOL
REMARK 922        TOTAL FREE ENERGY PREDICTED BY IDOCK:   20.91 KCAL/MOL
REMARK 923 INTER-LIGAND FREE ENERGY PREDICTED BY IDOCK:   10.20 KCAL/MOL
REMARK 924 INTRA-LIGAND FREE ENERGY PREDICTED BY IDOCK:   10.72 KCAL/MOL
REMARK 927      BINDING AFFINITY PREDICTED BY RF-SCORE:    0.00 PKD
ROOT
HETATM    1  C   UNL     1      -6.595  12.899  72.625  1.00  0.00     4.808 C  
HETATM    2  C   UNL     1      -6.469  11.744  71.670  1.00  0.00     3.147 C  
HETATM    3  O   UNL     1      -6.229  10.615  72.103  1.00  0.00     0.501 OA 
HETATM    4  N   UNL     1      -6.620  12.015  70.307  1.00  0.00     0.238 N  
ENDROOT
BRANCH   4   5
HETATM    5  C   UNL     1      -6.563  10.889  69.422  1.00  0.00    -0.095 A  
HETATM    6  C   UNL     1      -6.814   8.783  67.583  1.00  0.00    -0.071 A  
HETATM    7  C   UNL     1      -6.109  11.065  68.088  1.00  0.00    -0.049 A  
HETATM    8  C   UNL     1      -7.011   9.618  69.863  1.00  0.00    -0.081 A  
HETATM    9  I   UNL     1      -7.440   9.348  71.973  1.00  0.00     1.614 I  
HETATM   10  I   UNL     1      -5.182  12.958  67.591  1.00  0.00     0.075 I  
HETATM   11  C   UNL     1      -7.155   8.554  68.944  1.00  0.00    -0.062 A  
HETATM   12  I   UNL     1      -7.428   7.320  66.093  1.00  0.00    -0.090 I  
HETATM   13  C   UNL     1      -6.230  10.015  67.154  1.00  0.00    -0.066 A  
BRANCH  11  14
HETATM   14  C   UNL     1      -7.785   7.278  69.399  1.00  0.00    -0.107 C  
HETATM   15  O   UNL     1      -7.257   6.200  69.146  1.00  0.00    -0.077 OA 
HETATM   16  N   UNL     1      -8.964   7.381  70.103  1.00  0.00    -0.148 N  
HETATM   17  H   UNL     1      -9.348   8.304  70.305  1.00  0.00     0.000 HD 
BRANCH  16  18
HETATM   18  C   UNL     1      -9.675   6.189  70.565  1.00  0.00    -0.173 C  
BRANCH  18  19
HETATM   19  C   UNL     1     -11.031   6.538  71.187  1.00  0.00    -0.266 C  
HETATM   20  H   UNL     1     -12.779   5.659  71.374  1.00  0.00     0.000 HD 
HETATM   21  O   UNL     1     -11.938   5.443  70.989  1.00  0.00     0.929 OA 
BRANCH  19  22
HETATM   22  C   UNL     1     -10.898   6.866  72.681  1.00  0.00    -0.257 C  
HETATM   23  O   UNL     1     -11.999   7.647  73.144  1.00  0.00    -0.596 OA 
HETATM   24  H   UNL     1     -11.916   7.850  74.068  1.00  0.00     0.000 HD 
ENDBRANCH  19  22
ENDBRANCH  18  19
ENDBRANCH  16  18
ENDBRANCH  11  14
BRANCH  13  25
HETATM   25  C   UNL     1      -5.699  10.126  65.754  1.00  0.00    -0.072 C  
HETATM   26  O   UNL     1      -5.354  11.222  65.326  1.00  0.00    -0.219 OA 
HETATM   27  H   UNL     1      -5.868   8.075  65.378  1.00  0.00     0.000 HD 
HETATM   28  N   UNL     1      -5.622   8.982  64.979  1.00  0.00    -0.053 N  
BRANCH  28  29
HETATM   29  C   UNL     1      -5.188   9.077  63.590  1.00  0.00    -0.061 C  
BRANCH  29  30
HETATM   30  C   UNL     1      -6.230   8.535  62.603  1.00  0.00    -0.088 C  
HETATM   31  H   UNL     1      -7.282   6.884  62.404  1.00  0.00     0.000 HD 
HETATM   32  O   UNL     1      -6.638   7.220  63.015  1.00  0.00    -0.052 OA 
BRANCH  30  33
HETATM   33  C   UNL     1      -7.453   9.464  62.522  1.00  0.00    -0.105 C  
HETATM   34  O   UNL     1      -7.087  10.828  62.721  1.00  0.00    -0.324 OA 
HETATM   35  H   UNL     1      -7.842  11.402  62.671  1.00  0.00     0.000 HD 
ENDBRANCH  30  33
ENDBRANCH  29  30
ENDBRANCH  28  29
ENDBRANCH  13  25
ENDBRANCH   4   5
BRANCH   4  36
HETATM   36  C   UNL     1      -6.882  13.361  69.724  1.00  0.00     0.204 C  
BRANCH  36  37
HETATM   37  C   UNL     1      -8.155  14.109  70.202  1.00  0.00     1.457 C  
HETATM   38  O   UNL     1      -7.886  15.461  70.602  1.00  0.00     0.570 OA 
HETATM   39  H   UNL     1      -8.666  15.919  70.895  1.00  0.00     0.000 HD 
BRANCH  37  40
HETATM   40  C   UNL     1      -9.259  14.179  69.142  1.00  0.00     0.212 C  
HETATM   41  O   UNL     1     -10.539  14.094  69.777  1.00  0.00    -0.445 OA 
HETATM   42  H   UNL     1     -11.222  14.137  69.120  1.00  0.00     0.000 HD 
ENDBRANCH  37  40
ENDBRANCH  36  37
ENDBRANCH   4  36
TORSDOF 12
ENDMDL
MODEL      207
REMARK 921   NORMALIZED FREE ENERGY PREDICTED BY IDOCK:   13.71 KCAL/MOL
REMARK 922        TOTAL FREE ENERGY PREDICTED BY IDOCK:   22.12 KCAL/MOL
REMARK 923 INTER-LIGAND FREE ENERGY PREDICTED BY IDOCK:   13.62 KCAL/MOL
REMARK 924 INTRA-LIGAND FREE ENERGY PREDICTED BY IDOCK:    8.50 KCAL/MOL
REMARK 927      BINDING AFFINITY PREDICTED BY RF-SCORE:    0.00 PKD
ROOT
HETATM    1  C   UNL     1      -9.787  16.727  71.487  1.00  0.00     5.100 C  
HETATM    2  C   UNL     1      -9.362  15.430  70.857  1.00  0.00     1.924 C  
HETATM    3  O   UNL     1      -8.467  14.760  71.379  1.00  0.00     2.874 OA 
HETATM    4  N   UNL     1     -10.004  15.045  69.676  1.00  0.00    -0.154 N  
ENDROOT
BRANCH   4   5
HETATM    5  C   UNL     1      -9.629  13.773  69.131  1.00  0.00     0.319 A  
HETATM    6  C   UNL     1      -8.762  11.485  67.756  1.00  0.00    -0.142 A  
HETATM    7  C   UNL     1      -8.328  13.259  69.375  1.00  0.00     0.977 A  
HETATM    8  C   UNL     1     -10.536  13.061  68.306  1.00  0.00    -0.250 A  
HETATM    9  I   UNL     1     -12.587  13.758  68.183  1.00  0.00     1.823 I  
HETATM   10  I   UNL     1      -7.123  14.264  70.868  1.00  0.00     2.550 I  
HETATM   11  C   UNL     1     -10.107  11.916  67.597  1.00  0.00    -0.202 A  
HETATM   12  I   UNL     1      -7.968  10.009  66.367  1.00  0.00    -0.128 I  
HETATM   13  C   UNL     1      -7.880  12.110  68.692  1.00  0.00    -0.078 A  
BRANCH  11  14
HETATM   14  C   UNL     1     -11.031  11.283  66.608  1.00  0.00    -0.268 C  
HETATM   15  O   UNL     1     -11.471  10.155  66.804  1.00  0.00     0.141 OA 
HETATM   16  N   UNL     1     -11.351  12.022  65.492  1.00  0.00    -0.341 N  
HETATM   17  H   UNL     1     -10.974  12.964  65.389  1.00  0.00     0.000 HD 
BRANCH  16  18
HETATM   18  C   UNL     1     -12.222  11.479  64.449  1.00  0.00     0.240 C  
BRANCH  18  19
HETATM   19  C   UNL     1     -11.708  11.811  63.045  1.00  0.00     0.111 C  
HETATM   20  H   UNL     1     -10.713  13.282  62.205  1.00  0.00     0.000 HD 
HETATM   21  O   UNL     1     -11.032  13.077  63.076  1.00  0.00     0.272 OA 
BRANCH  19  22
HETATM   22  C   UNL     1     -10.776  10.712  62.513  1.00  0.00     1.309 C  
HETATM   23  O   UNL     1      -9.787  10.356  63.478  1.00  0.00    -0.379 OA 
HETATM   24  H   UNL     1      -9.210   9.677  63.148  1.00  0.00     0.000 HD 
ENDBRANCH  19  22
ENDBRANCH  18  19
ENDBRANCH  16  18
ENDBRANCH  11  14
BRANCH  13  25
HETATM   25  C   UNL     1      -6.543  11.485  68.969  1.00  0.00    -0.089 C  
HETATM   26  O   UNL     1      -5.582  11.788  68.271  1.00  0.00    -0.046 OA 
HETATM   27  H   UNL     1      -7.242  10.379  70.600  1.00  0.00     0.000 HD 
HETATM   28  N   UNL     1      -6.437  10.574  70.004  1.00  0.00    -0.119 N  
BRANCH  28  29
HETATM   29  C   UNL     1      -5.169   9.893  70.240  1.00  0.00    -0.037 C  
BRANCH  29  30
HETATM   30  C   UNL     1      -5.271   8.802  71.315  1.00  0.00    -0.033 C  
HETATM   31  H   UNL     1      -6.243   8.556  73.008  1.00  0.00     0.000 HD 
HETATM   32  O   UNL     1      -6.180   9.230  72.343  1.00  0.00    -0.283 OA 
BRANCH  30  33
HETATM   33  C   UNL     1      -5.749   7.471  70.711  1.00  0.00    -0.030 C  
HETATM   34  O   UNL     1      -5.274   6.356  71.462  1.00  0.00    -0.024 OA 
HETATM   35  H   UNL     1      -5.569   5.533  71.089  1.00  0.00     0.000 HD 
ENDBRANCH  30  33
ENDBRANCH  29  30
ENDBRANCH  28  29
ENDBRANCH  13  25
ENDBRANCH   4   5
BRANCH   4  36
HETATM   36  C   UNL     1     -11.068  15.826  68.986  1.00  0.00    -0.282 C  
BRANCH  36  37
HETATM   37  C   UNL     1     -10.617  16.839  67.900  1.00  0.00    -0.350 C  
HETATM   38  O   UNL     1     -10.458  18.170  68.416  1.00  0.00    -0.359 OA 
HETATM   39  H   UNL     1     -10.182  18.790  67.751  1.00  0.00     0.000 HD 
BRANCH  37  40
HETATM   40  C   UNL     1      -9.290  16.470  67.230  1.00  0.00    -0.222 C  
HETATM   41  O   UNL     1      -8.230  17.233  67.815  1.00  0.00    -0.198 OA 
HETATM   42  H   UNL     1      -7.407  17.004  67.399  1.00  0.00     0.000 HD 
ENDBRANCH  37  40
ENDBRANCH  36  37
ENDBRANCH   4  36
TORSDOF 12
ENDMDL
MODEL      208
REMARK 921   NORMALIZED FREE ENERGY PREDICTED BY IDOCK:   15.99 KCAL/MOL
REMARK 922        TOTAL FREE ENERGY PREDICTED BY IDOCK:   26.00 KCAL/MOL
REMARK 923 INTER-LIGAND FREE ENERGY PREDICTED BY IDOCK:   20.15 KCAL/MOL
REMARK 924 INTRA-LIGAND FREE ENERGY PREDICTED BY IDOCK:    5.85 KCAL/MOL
REMARK 927      BINDING AFFINITY PREDICTED BY RF-SCORE:    0.00 PKD
ROOT
HETATM    1  C   UNL     1      -9.836  10.118  62.453  1.00  0.00     0.177 C  
HETATM    2  C   UNL     1      -9.137  10.127  63.784  1.00  0.00    -0.261 C  
HETATM    3  O   UNL     1      -8.404   9.185  64.097  1.00  0.00    -0.161 OA 
HETATM    4  N   UNL     1      -9.367  11.219  64.627  1.00  0.00    -0.180 N  
ENDROOT
BRANCH   4   5
HETATM    5  C   UNL     1      -8.638  11.238  65.860  1.00  0.00    -0.096 A  
HETATM    6  C   UNL     1      -7.534  11.426  68.434  1.00  0.00    -0.111 A  
HETATM    7  C   UNL     1      -8.711  10.124  66.739  1.00  0.00    -0.125 A  
HETATM    8  C   UNL     1      -7.892  12.387  66.225  1.00  0.00     0.721 A  
HETATM    9  I   UNL     1      -7.598  13.943  64.740  1.00  0.00    16.808 I  
HETATM   10  I   UNL     1      -9.628   8.315  65.980  1.00  0.00     0.244 I  
HETATM   11  C   UNL     1      -7.344  12.500  67.523  1.00  0.00    -0.151 A  
HETATM   12  I   UNL     1      -7.083  11.752  70.539  1.00  0.00     3.474 I  
HETATM   13  C   UNL     1      -8.161  10.205  68.034  1.00  0.00    -0.113 A  
BRANCH  11  14
HETATM   14  C   UNL     1      -6.708  13.788  67.936  1.00  0.00    -0.158 C  
HETATM   15  O   UNL     1      -5.742  13.788  68.691  1.00  0.00    -0.077 OA 
HETATM   16  N   UNL     1      -7.257  14.945  67.431  1.00  0.00    -0.200 N  
HETATM   17  H   UNL     1      -8.047  14.886  66.788  1.00  0.00     0.000 HD 
BRANCH  16  18
HETATM   18  C   UNL     1      -6.726  16.257  67.799  1.00  0.00    -0.142 C  
BRANCH  18  19
HETATM   19  C   UNL     1      -6.567  16.404  69.316  1.00  0.00    -0.206 C  
HETATM   20  H   UNL     1      -5.421  17.437  70.533  1.00  0.00     0.000 HD 
HETATM   21  O   UNL     1      -5.520  17.346  69.593  1.00  0.00    -0.175 OA 
BRANCH  19  22
HETATM   22  C   UNL     1      -7.881  16.845  69.979  1.00  0.00     1.542 C  
HETATM   23  O   UNL     1      -8.092  18.249  69.834  1.00  0.00     0.916 OA 
HETATM   24  H   UNL     1      -8.904  18.522  70.245  1.00  0.00     0.000 HD 
ENDBRANCH  19  22
ENDBRANCH  18  19
ENDBRANCH  16  18
ENDBRANCH  11  14
BRANCH  13  25
HETATM   25  C   UNL     1      -8.148   9.034  68.972  1.00  0.00    -0.107 C  
HETATM   26  O   UNL     1      -7.109   8.402  69.132  1.00  0.00    -0.061 OA 
HETATM   27  H   UNL     1     -10.154   9.266  69.515  1.00  0.00     0.000 HD 
HETATM   28  N   UNL     1      -9.318   8.693  69.627  1.00  0.00    -0.160 N  
BRANCH  28  29
HETATM   29  C   UNL     1      -9.351   7.509  70.479  1.00  0.00    -0.160 C  
BRANCH  29  30
HETATM   30  C   UNL     1     -10.629   6.680  70.295  1.00  0.00    -0.222 C  
HETATM   31  H   UNL     1     -11.816   5.614  71.447  1.00  0.00     0.000 HD 
HETATM   32  O   UNL     1     -11.025   6.127  71.561  1.00  0.00    -0.254 OA 
BRANCH  30  33
HETATM   33  C   UNL     1     -11.767   7.536  69.714  1.00  0.00     0.327 C  
HETATM   34  O   UNL     1     -12.069   8.645  70.558  1.00  0.00    -0.489 OA 
HETATM   35  H   UNL     1     -12.772   9.174  70.200  1.00  0.00     0.000 HD 
ENDBRANCH  30  33
ENDBRANCH  29  30
ENDBRANCH  28  29
ENDBRANCH  13  25
ENDBRANCH   4   5
BRANCH   4  36
HETATM   36  C   UNL     1     -10.262  12.368  64.315  1.00  0.00    -0.332 C  
BRANCH  36  37
HETATM   37  C   UNL     1     -11.733  12.279  64.801  1.00  0.00    -0.358 C  
HETATM   38  O   UNL     1     -12.444  13.516  64.648  1.00  0.00    -0.536 OA 
HETATM   39  H   UNL     1     -13.345  13.462  64.945  1.00  0.00     0.000 HD 
BRANCH  37  40
HETATM   40  C   UNL     1     -12.555  11.210  64.073  1.00  0.00     1.452 C  
HETATM   41  O   UNL     1     -12.396  11.367  62.658  1.00  0.00    -0.678 OA 
HETATM   42  H   UNL     1     -12.906  10.706  62.207  1.00  0.00     0.000 HD 
ENDBRANCH  37  40
ENDBRANCH  36  37
ENDBRANCH   4  36
TORSDOF 12
ENDMDL
MODEL      209
REMARK 921   NORMALIZED FREE ENERGY PREDICTED BY IDOCK:   18.05 KCAL/MOL
REMARK 922        TOTAL FREE ENERGY PREDICTED BY IDOCK:   29.51 KCAL/MOL
REMARK 923 INTER-LIGAND FREE ENERGY PREDICTED BY IDOCK:   20.45 KCAL/MOL
REMARK 924 INTRA-LIGAND FREE ENERGY PREDICTED BY IDOCK:    9.06 KCAL/MOL
REMARK 927      BINDING AFFINITY PREDICTED BY RF-SCORE:    0.00 PKD
ROOT
HETATM    1  C   UNL     1     -13.648  14.200  68.656  1.00  0.00     5.235 C  
HETATM    2  C   UNL     1     -13.004  12.841  68.657  1.00  0.00     2.231 C  
HETATM    3  O   UNL     1     -13.606  11.878  69.141  1.00  0.00     2.947 OA 
HETATM    4  N   UNL     1     -11.721  12.734  68.113  1.00  0.00    -0.332 N  
ENDROOT
BRANCH   4   5
HETATM    5  C   UNL     1     -11.155  11.418  68.064  1.00  0.00    -0.257 A  
HETATM    6  C   UNL     1     -10.417   8.713  67.938  1.00  0.00    -0.209 A  
HETATM    7  C   UNL     1     -10.836  10.836  66.809  1.00  0.00    -0.194 A  
HETATM    8  C   UNL     1     -10.970  10.681  69.261  1.00  0.00    -0.245 A  
HETATM    9  I   UNL     1     -11.223  11.708  71.156  1.00  0.00     3.968 I  
HETATM   10  I   UNL     1     -10.881  12.127  65.070  1.00  0.00    -0.390 I  
HETATM   11  C   UNL     1     -10.612   9.315  69.210  1.00  0.00    -0.234 A  
HETATM   12  I   UNL     1     -10.294   6.543  67.819  1.00  0.00    -0.383 I  
HETATM   13  C   UNL     1     -10.463   9.478  66.731  1.00  0.00    -0.263 A  
BRANCH  11  14
HETATM   14  C   UNL     1     -10.585   8.521  70.476  1.00  0.00    -0.213 C  
HETATM   15  O   UNL     1     -10.095   8.995  71.495  1.00  0.00    -0.301 OA 
HETATM   16  N   UNL     1     -11.129   7.257  70.430  1.00  0.00    -0.263 N  
HETATM   17  H   UNL     1     -11.544   6.921  69.561  1.00  0.00     0.000 HD 
BRANCH  16  18
HETATM   18  C   UNL     1     -11.123   6.388  71.607  1.00  0.00    -0.267 C  
BRANCH  18  19
HETATM   19  C   UNL     1     -11.692   7.095  72.842  1.00  0.00     0.027 C  
HETATM   20  H   UNL     1     -12.646   6.559  74.475  1.00  0.00     0.000 HD 
HETATM   21  O   UNL     1     -12.293   6.121  73.709  1.00  0.00     2.169 OA 
BRANCH  19  22
HETATM   22  C   UNL     1     -10.607   7.887  73.587  1.00  0.00     0.402 C  
HETATM   23  O   UNL     1      -9.457   7.081  73.843  1.00  0.00    -0.199 OA 
HETATM   24  H   UNL     1      -8.787   7.571  74.304  1.00  0.00     0.000 HD 
ENDBRANCH  19  22
ENDBRANCH  18  19
ENDBRANCH  16  18
ENDBRANCH  11  14
BRANCH  13  25
HETATM   25  C   UNL     1     -10.045   8.836  65.440  1.00  0.00     1.023 C  
HETATM   26  O   UNL     1      -9.474   9.511  64.590  1.00  0.00    -0.228 OA 
HETATM   27  H   UNL     1     -10.756   6.947  65.987  1.00  0.00     0.000 HD 
HETATM   28  N   UNL     1     -10.326   7.496  65.242  1.00  0.00     2.889 N  
BRANCH  28  29
HETATM   29  C   UNL     1     -10.003   6.871  63.964  1.00  0.00     5.138 C  
BRANCH  29  30
HETATM   30  C   UNL     1      -9.076   5.657  64.114  1.00  0.00     0.513 C  
HETATM   31  H   UNL     1      -7.841   4.966  65.481  1.00  0.00     0.000 HD 
HETATM   32  O   UNL     1      -8.415   5.717  65.389  1.00  0.00    -0.139 OA 
BRANCH  30  33
HETATM   33  C   UNL     1      -9.861   4.341  63.989  1.00  0.00    -0.050 C  
HETATM   34  O   UNL     1     -10.986   4.318  64.866  1.00  0.00    -0.662 OA 
HETATM   35  H   UNL     1     -11.472   3.505  64.789  1.00  0.00     0.000 HD 
ENDBRANCH  30  33
ENDBRANCH  29  30
ENDBRANCH  28  29
ENDBRANCH  13  25
ENDBRANCH   4   5
BRANCH   4  36
HETATM   36  C   UNL     1     -10.935  13.864  67.543  1.00  0.00    -0.276 C  
BRANCH  36  37
HETATM   37  C   UNL     1      -9.450  13.591  67.185  1.00  0.00    -0.244 C  
HETATM   38  O   UNL     1      -8.773  14.760  66.699  1.00  0.00    -0.341 OA 
HETATM   39  H   UNL     1      -7.863  14.593  66.480  1.00  0.00     0.000 HD 
BRANCH  37  40
HETATM   40  C   UNL     1      -8.623  13.067  68.363  1.00  0.00    -0.116 C  
HETATM   41  O   UNL     1      -8.007  14.167  69.042  1.00  0.00    -0.281 OA 
HETATM   42  H   UNL     1      -7.494  13.842  69.772  1.00  0.00     0.000 HD 
ENDBRANCH  37  40
ENDBRANCH  36  37
ENDBRANCH   4  36
TORSDOF 12
ENDMDL
MODEL      210
REMARK 921   NORMALIZED FREE ENERGY PREDICTED BY IDOCK:   18.21 KCAL/MOL
REMARK 922        TOTAL FREE ENERGY PREDICTED BY IDOCK:   29.79 KCAL/MOL
REMARK 923 INTER-LIGAND FREE ENERGY PREDICTED BY IDOCK:   23.85 KCAL/MOL
REMARK 924 INTRA-LIGAND FREE ENERGY PREDICTED BY IDOCK:    5.94 KCAL/MOL
REMARK 927      BINDING AFFINITY PREDICTED BY RF-SCORE:    0.00 PKD
ROOT
HETATM    1  C   UNL     1      -9.868  10.006  62.396  1.00  0.00     0.281 C  
HETATM    2  C   UNL     1      -9.392  10.523  63.726  1.00  0.00    -0.281 C  
HETATM    3  O   UNL     1      -8.441   9.976  64.291  1.00  0.00    -0.152 OA 
HETATM    4  N   UNL     1     -10.075  11.611  64.278  1.00  0.00    -0.269 N  
ENDROOT
BRANCH   4   5
HETATM    5  C   UNL     1      -9.561  12.127  65.512  1.00  0.00    -0.128 A  
HETATM    6  C   UNL     1      -8.930  13.202  68.027  1.00  0.00    -0.195 A  
HETATM    7  C   UNL     1      -9.403  11.260  66.626  1.00  0.00    -0.180 A  
HETATM    8  C   UNL     1      -9.268  13.509  65.635  1.00  0.00     0.448 A  
HETATM    9  I   UNL     1      -9.275  14.730  63.841  1.00  0.00    12.628 I  
HETATM   10  I   UNL     1      -9.599   9.133  66.270  1.00  0.00    -0.334 I  
HETATM   11  C   UNL     1      -8.962  14.065  66.898  1.00  0.00    -0.243 A  
HETATM   12  I   UNL     1      -8.892  14.088  70.015  1.00  0.00     3.015 I  
HETATM   13  C   UNL     1      -9.085  11.787  67.895  1.00  0.00    -0.181 A  
BRANCH  11  14
HETATM   14  C   UNL     1      -8.821  15.546  67.028  1.00  0.00    -0.230 C  
HETATM   15  O   UNL     1      -8.041  16.026  67.843  1.00  0.00    -0.139 OA 
HETATM   16  N   UNL     1      -9.598  16.322  66.197  1.00  0.00    -0.310 N  
HETATM   17  H   UNL     1     -10.214  15.870  65.521  1.00  0.00     0.000 HD 
BRANCH  16  18
HETATM   18  C   UNL     1      -9.556  17.783  66.268  1.00  0.00    -0.243 C  
BRANCH  18  19
HETATM   19  C   UNL     1      -9.765  18.292  67.698  1.00  0.00    -0.300 C  
HETATM   20  H   UNL     1      -9.283  19.899  68.720  1.00  0.00     0.000 HD 
HETATM   21  O   UNL     1      -9.153  19.584  67.834  1.00  0.00    -0.310 OA 
BRANCH  19  22
HETATM   22  C   UNL     1     -11.256  18.359  68.059  1.00  0.00     0.488 C  
HETATM   23  O   UNL     1     -11.875  19.519  67.505  1.00  0.00     0.743 OA 
HETATM   24  H   UNL     1     -12.798  19.560  67.729  1.00  0.00     0.000 HD 
ENDBRANCH  19  22
ENDBRANCH  18  19
ENDBRANCH  16  18
ENDBRANCH  11  14
BRANCH  13  25
HETATM   25  C   UNL     1      -8.835  10.908  69.086  1.00  0.00    -0.037 C  
HETATM   26  O   UNL     1      -7.682  10.709  69.454  1.00  0.00    -0.139 OA 
HETATM   27  H   UNL     1     -10.867  10.562  69.435  1.00  0.00     0.000 HD 
HETATM   28  N   UNL     1      -9.917  10.338  69.731  1.00  0.00    -0.215 N  
BRANCH  28  29
HETATM   29  C   UNL     1      -9.695   9.416  70.839  1.00  0.00    -0.250 C  
BRANCH  29  30
HETATM   30  C   UNL     1     -10.609   8.185  70.780  1.00  0.00    -0.214 C  
HETATM   31  H   UNL     1     -11.563   7.053  72.077  1.00  0.00     0.000 HD 
HETATM   32  O   UNL     1     -10.997   7.814  72.113  1.00  0.00    -0.235 OA 
BRANCH  30  33
HETATM   33  C   UNL     1     -11.858   8.462  69.926  1.00  0.00     0.581 C  
HETATM   34  O   UNL     1     -12.602   9.569  70.433  1.00  0.00    -0.488 OA 
HETATM   35  H   UNL     1     -13.373   9.741  69.906  1.00  0.00     0.000 HD 
ENDBRANCH  30  33
ENDBRANCH  29  30
ENDBRANCH  28  29
ENDBRANCH  13  25
ENDBRANCH   4   5
BRANCH   4  36
HETATM   36  C   UNL     1     -11.246  12.291  63.658  1.00  0.00    -0.466 C  
BRANCH  36  37
HETATM   37  C   UNL     1     -12.658  11.822  64.097  1.00  0.00    -0.102 C  
HETATM   38  O   UNL     1     -13.711  12.566  63.466  1.00  0.00     0.684 OA 
HETATM   39  H   UNL     1     -14.576  12.279  63.735  1.00  0.00     0.000 HD 
BRANCH  37  40
HETATM   40  C   UNL     1     -12.932  10.343  63.801  1.00  0.00     6.725 C  
HETATM   41  O   UNL     1     -12.574  10.053  62.445  1.00  0.00     3.894 OA 
HETATM   42  H   UNL     1     -12.744   9.137  62.262  1.00  0.00     0.000 HD 
ENDBRANCH  37  40
ENDBRANCH  36  37
ENDBRANCH   4  36
TORSDOF 12
ENDMDL
MODEL      211
REMARK 921   NORMALIZED FREE ENERGY PREDICTED BY IDOCK:   20.99 KCAL/MOL
REMARK 922        TOTAL FREE ENERGY PREDICTED BY IDOCK:   34.52 KCAL/MOL
REMARK 923 INTER-LIGAND FREE ENERGY PREDICTED BY IDOCK:   20.50 KCAL/MOL
REMARK 924 INTRA-LIGAND FREE ENERGY PREDICTED BY IDOCK:   14.02 KCAL/MOL
REMARK 927      BINDING AFFINITY PREDICTED BY RF-SCORE:    0.00 PKD
ROOT
HETATM    1  C   UNL     1      -7.676  11.663  71.097  1.00  0.00     6.526 C  
HETATM    2  C   UNL     1      -8.230  12.594  70.053  1.00  0.00     3.048 C  
HETATM    3  O   UNL     1      -8.682  13.692  70.390  1.00  0.00     3.070 OA 
HETATM    4  N   UNL     1      -8.218  12.157  68.726  1.00  0.00    -0.017 N  
ENDROOT
BRANCH   4   5
HETATM    5  C   UNL     1      -8.687  13.088  67.742  1.00  0.00    -0.188 A  
HETATM    6  C   UNL     1      -9.899  14.986  66.067  1.00  0.00    -0.319 A  
HETATM    7  C   UNL     1      -8.267  14.443  67.799  1.00  0.00    -0.168 A  
HETATM    8  C   UNL     1      -9.612  12.667  66.753  1.00  0.00    -0.241 A  
HETATM    9  I   UNL     1     -10.013  10.544  66.549  1.00  0.00    -0.290 I  
HETATM   10  I   UNL     1      -6.647  14.928  69.152  1.00  0.00    -0.153 I  
HETATM   11  C   UNL     1     -10.239  13.615  65.913  1.00  0.00    -0.318 A  
HETATM   12  I   UNL     1     -11.147  16.485  65.102  1.00  0.00     0.403 I  
HETATM   13  C   UNL     1      -8.867  15.407  66.963  1.00  0.00    -0.252 A  
BRANCH  11  14
HETATM   14  C   UNL     1     -11.329  13.167  64.995  1.00  0.00    -0.299 C  
HETATM   15  O   UNL     1     -12.421  13.725  65.007  1.00  0.00    -0.459 OA 
HETATM   16  N   UNL     1     -11.042  12.115  64.153  1.00  0.00    -0.334 N  
HETATM   17  H   UNL     1     -10.110  11.701  64.168  1.00  0.00     0.000 HD 
BRANCH  16  18
HETATM   18  C   UNL     1     -12.051  11.581  63.238  1.00  0.00     0.034 C  
BRANCH  18  19
HETATM   19  C   UNL     1     -13.469  11.736  63.798  1.00  0.00     0.766 C  
HETATM   20  H   UNL     1     -14.312  11.680  65.573  1.00  0.00     0.000 HD 
HETATM   21  O   UNL     1     -13.433  11.584  65.226  1.00  0.00     3.099 OA 
BRANCH  19  22
HETATM   22  C   UNL     1     -14.081  13.091  63.413  1.00  0.00     5.630 C  
HETATM   23  O   UNL     1     -13.712  14.112  64.340  1.00  0.00     1.473 OA 
HETATM   24  H   UNL     1     -14.091  14.949  64.102  1.00  0.00     0.000 HD 
ENDBRANCH  19  22
ENDBRANCH  18  19
ENDBRANCH  16  18
ENDBRANCH  11  14
BRANCH  13  25
HETATM   25  C   UNL     1      -8.407  16.836  66.932  1.00  0.00    -0.209 C  
HETATM   26  O   UNL     1      -7.432  17.139  66.253  1.00  0.00    -0.280 OA 
HETATM   27  H   UNL     1      -9.935  17.501  68.195  1.00  0.00     0.000 HD 
HETATM   28  N   UNL     1      -9.097  17.772  67.681  1.00  0.00    -0.244 N  
BRANCH  28  29
HETATM   29  C   UNL     1      -8.620  19.150  67.732  1.00  0.00    -0.301 C  
BRANCH  29  30
HETATM   30  C   UNL     1      -9.452  20.032  68.673  1.00  0.00    -0.107 C  
HETATM   31  H   UNL     1     -10.158  21.869  68.653  1.00  0.00     0.000 HD 
HETATM   32  O   UNL     1      -9.643  21.323  68.070  1.00  0.00     0.179 OA 
BRANCH  30  33
HETATM   33  C   UNL     1     -10.814  19.387  68.978  1.00  0.00     0.992 C  
HETATM   34  O   UNL     1     -10.663  18.156  69.684  1.00  0.00    -0.133 OA 
HETATM   35  H   UNL     1     -11.504  17.757  69.872  1.00  0.00     0.000 HD 
ENDBRANCH  30  33
ENDBRANCH  29  30
ENDBRANCH  28  29
ENDBRANCH  13  25
ENDBRANCH   4   5
BRANCH   4  36
HETATM   36  C   UNL     1      -7.712  10.834  68.264  1.00  0.00    -0.109 C  
BRANCH  36  37
HETATM   37  C   UNL     1      -7.739   9.664  69.285  1.00  0.00    -0.095 C  
HETATM   38  O   UNL     1      -8.255   8.449  68.721  1.00  0.00    -0.116 OA 
HETATM   39  H   UNL     1      -8.272   7.733  69.346  1.00  0.00     0.000 HD 
BRANCH  37  40
HETATM   40  C   UNL     1      -6.362   9.326  69.866  1.00  0.00    -0.043 C  
HETATM   41  O   UNL     1      -5.562   8.694  68.861  1.00  0.00    -0.038 OA 
HETATM   42  H   UNL     1      -4.709   8.484  69.221  1.00  0.00     0.000 HD 
ENDBRANCH  37  40
ENDBRANCH  36  37
ENDBRANCH   4  36
TORSDOF 12
ENDMDL
MODEL      212
REMARK 921   NORMALIZED FREE ENERGY PREDICTED BY IDOCK:   22.17 KCAL/MOL
REMARK 922        TOTAL FREE ENERGY PREDICTED BY IDOCK:   36.53 KCAL/MOL
REMARK 923 INTER-LIGAND FREE ENERGY PREDICTED BY IDOCK:   27.99 KCAL/MOL
REMARK 924 INTRA-LIGAND FREE ENERGY PREDICTED BY IDOCK:    8.53 KCAL/MOL
REMARK 927      BINDING AFFINITY PREDICTED BY RF-SCORE:    0.00 PKD
ROOT
HETATM    1  C   UNL     1     -13.716   6.750  66.950  1.00  0.00    18.528 C  
HETATM    2  C   UNL     1     -12.283   7.111  67.226  1.00  0.00     4.531 C  
HETATM    3  O   UNL     1     -11.460   7.100  66.307  1.00  0.00     1.367 OA 
HETATM    4  N   UNL     1     -11.941   7.434  68.543  1.00  0.00     1.707 N  
ENDROOT
BRANCH   4   5
HETATM    5  C   UNL     1     -10.586   7.840  68.769  1.00  0.00    -0.135 A  
HETATM    6  C   UNL     1      -8.069   8.828  69.525  1.00  0.00    -0.105 A  
HETATM    7  C   UNL     1      -9.747   7.057  69.606  1.00  0.00    -0.157 A  
HETATM    8  C   UNL     1     -10.104   9.049  68.205  1.00  0.00    -0.192 A  
HETATM    9  I   UNL     1     -11.331  10.062  66.730  1.00  0.00     2.132 I  
HETATM   10  I   UNL     1     -10.467   5.099  70.186  1.00  0.00     0.129 I  
HETATM   11  C   UNL     1      -8.845   9.563  68.588  1.00  0.00    -0.132 A  
HETATM   12  I   UNL     1      -6.351   9.796  70.446  1.00  0.00    -0.114 I  
HETATM   13  C   UNL     1      -8.480   7.541  69.994  1.00  0.00    -0.137 A  
BRANCH  11  14
HETATM   14  C   UNL     1      -8.433  10.917  68.108  1.00  0.00    -0.131 C  
HETATM   15  O   UNL     1      -8.530  11.210  66.921  1.00  0.00    -0.137 OA 
HETATM   16  N   UNL     1      -7.951  11.794  69.053  1.00  0.00    -0.347 N  
HETATM   17  H   UNL     1      -7.913  11.506  70.031  1.00  0.00     0.000 HD 
BRANCH  16  18
HETATM   18  C   UNL     1      -7.493  13.132  68.679  1.00  0.00    -0.092 C  
BRANCH  18  19
HETATM   19  C   UNL     1      -6.508  13.706  69.703  1.00  0.00    -0.083 C  
HETATM   20  H   UNL     1      -4.555  13.819  69.891  1.00  0.00     0.000 HD 
HETATM   21  O   UNL     1      -5.166  13.464  69.256  1.00  0.00    -0.074 OA 
BRANCH  19  22
HETATM   22  C   UNL     1      -6.741  15.208  69.927  1.00  0.00    -0.165 C  
HETATM   23  O   UNL     1      -6.068  15.670  71.098  1.00  0.00     0.339 OA 
HETATM   24  H   UNL     1      -6.213  16.599  71.237  1.00  0.00     0.000 HD 
ENDBRANCH  19  22
ENDBRANCH  18  19
ENDBRANCH  16  18
ENDBRANCH  11  14
BRANCH  13  25
HETATM   25  C   UNL     1      -7.528   6.721  70.815  1.00  0.00    -0.083 C  
HETATM   26  O   UNL     1      -6.372   6.581  70.432  1.00  0.00    -0.040 OA 
HETATM   27  H   UNL     1      -8.941   6.314  72.302  1.00  0.00     0.000 HD 
HETATM   28  N   UNL     1      -7.988   6.138  71.982  1.00  0.00    -0.106 N  
BRANCH  28  29
HETATM   29  C   UNL     1      -7.105   5.271  72.753  1.00  0.00    -0.088 C  
BRANCH  29  30
HETATM   30  C   UNL     1      -5.625   5.647  72.604  1.00  0.00    -0.026 C  
HETATM   31  H   UNL     1      -4.281   5.609  71.167  1.00  0.00     0.000 HD 
HETATM   32  O   UNL     1      -5.197   5.377  71.259  1.00  0.00    -0.008 OA 
BRANCH  30  33
HETATM   33  C   UNL     1      -5.393   7.129  72.943  1.00  0.00    -0.038 C  
HETATM   34  O   UNL     1      -5.640   7.395  74.322  1.00  0.00    -0.060 OA 
HETATM   35  H   UNL     1      -5.497   8.310  74.532  1.00  0.00     0.000 HD 
ENDBRANCH  30  33
ENDBRANCH  29  30
ENDBRANCH  28  29
ENDBRANCH  13  25
ENDBRANCH   4   5
BRANCH   4  36
HETATM   36  C   UNL     1     -12.884   7.437  69.697  1.00  0.00     2.612 C  
BRANCH  36  37
HETATM   37  C   UNL     1     -12.738   8.582  70.734  1.00  0.00     0.250 C  
HETATM   38  O   UNL     1     -12.228   9.793  70.155  1.00  0.00    -0.470 OA 
HETATM   39  H   UNL     1     -12.139  10.494  70.790  1.00  0.00     0.000 HD 
BRANCH  37  40
HETATM   40  C   UNL     1     -14.054   8.951  71.428  1.00  0.00    -0.212 C  
HETATM   41  O   UNL     1     -13.833  10.052  72.315  1.00  0.00    -0.471 OA 
HETATM   42  H   UNL     1     -14.649  10.281  72.745  1.00  0.00     0.000 HD 
ENDBRANCH  37  40
ENDBRANCH  36  37
ENDBRANCH   4  36
TORSDOF 12
ENDMDL
MODEL      213
REMARK 921   NORMALIZED FREE ENERGY PREDICTED BY IDOCK:   30.10 KCAL/MOL
REMARK 922        TOTAL FREE ENERGY PREDICTED BY IDOCK:   50.01 KCAL/MOL
REMARK 923 INTER-LIGAND FREE ENERGY PREDICTED BY IDOCK:   38.48 KCAL/MOL
REMARK 924 INTRA-LIGAND FREE ENERGY PREDICTED BY IDOCK:   11.53 KCAL/MOL
REMARK 927      BINDING AFFINITY PREDICTED BY RF-SCORE:    0.00 PKD
ROOT
HETATM    1  C   UNL     1      -9.249  16.140  71.742  1.00  0.00     6.725 C  
HETATM    2  C   UNL     1      -9.171  14.752  71.169  1.00  0.00     3.196 C  
HETATM    3  O   UNL     1      -8.452  13.906  71.708  1.00  0.00     6.456 OA 
HETATM    4  N   UNL     1      -9.921  14.485  70.020  1.00  0.00     0.432 N  
ENDROOT
BRANCH   4   5
HETATM    5  C   UNL     1      -9.884  13.138  69.532  1.00  0.00     1.121 A  
HETATM    6  C   UNL     1      -9.597  10.642  68.279  1.00  0.00    -0.162 A  
HETATM    7  C   UNL     1      -8.814  12.282  69.908  1.00  0.00     2.889 A  
HETATM    8  C   UNL     1     -10.881  12.681  68.633  1.00  0.00    -0.249 A  
HETATM    9  I   UNL     1     -12.625  13.931  68.304  1.00  0.00     1.785 I  
HETATM   10  I   UNL     1      -7.505  12.961  71.495  1.00  0.00    10.690 I  
HETATM   11  C   UNL     1     -10.741  11.433  67.986  1.00  0.00    -0.240 A  
HETATM   12  I   UNL     1      -9.146   8.945  66.994  1.00  0.00    -0.200 I  
HETATM   13  C   UNL     1      -8.658  11.026  69.287  1.00  0.00     0.072 A  
BRANCH  11  14
HETATM   14  C   UNL     1     -11.718  11.051  66.922  1.00  0.00     0.552 C  
HETATM   15  O   UNL     1     -12.509  10.132  67.107  1.00  0.00     3.583 OA 
HETATM   16  N   UNL     1     -11.678  11.772  65.750  1.00  0.00    -0.146 N  
HETATM   17  H   UNL     1     -11.014  12.541  65.657  1.00  0.00     0.000 HD 
BRANCH  16  18
HETATM   18  C   UNL     1     -12.572  11.456  64.636  1.00  0.00     1.277 C  
BRANCH  18  19
HETATM   19  C   UNL     1     -12.840  12.679  63.753  1.00  0.00    -0.118 C  
HETATM   20  H   UNL     1     -14.390  13.804  63.313  1.00  0.00     0.000 HD 
HETATM   21  O   UNL     1     -14.224  13.046  63.860  1.00  0.00     3.482 OA 
BRANCH  19  22
HETATM   22  C   UNL     1     -11.936  13.859  64.138  1.00  0.00    -0.428 C  
HETATM   23  O   UNL     1     -10.556  13.533  63.978  1.00  0.00    -0.543 OA 
HETATM   24  H   UNL     1      -9.997  14.263  64.216  1.00  0.00     0.000 HD 
ENDBRANCH  19  22
ENDBRANCH  18  19
ENDBRANCH  16  18
ENDBRANCH  11  14
BRANCH  13  25
HETATM   25  C   UNL     1      -7.589  10.057  69.700  1.00  0.00    -0.147 C  
HETATM   26  O   UNL     1      -7.769   9.347  70.683  1.00  0.00    -0.143 OA 
HETATM   27  H   UNL     1      -6.321  10.563  68.116  1.00  0.00     0.000 HD 
HETATM   28  N   UNL     1      -6.422   9.998  68.959  1.00  0.00    -0.044 N  
BRANCH  28  29
HETATM   29  C   UNL     1      -5.337   9.124  69.389  1.00  0.00    -0.035 C  
BRANCH  29  30
HETATM   30  C   UNL     1      -5.220   7.856  68.531  1.00  0.00    -0.027 C  
HETATM   31  H   UNL     1      -5.942   6.027  68.583  1.00  0.00     0.000 HD 
HETATM   32  O   UNL     1      -6.015   6.810  69.114  1.00  0.00    -0.021 OA 
BRANCH  30  33
HETATM   33  C   UNL     1      -5.677   8.121  67.086  1.00  0.00    -0.038 C  
HETATM   34  O   UNL     1      -6.534   7.084  66.611  1.00  0.00    -0.047 OA 
HETATM   35  H   UNL     1      -6.816   7.247  65.718  1.00  0.00     0.000 HD 
ENDBRANCH  30  33
ENDBRANCH  29  30
ENDBRANCH  28  29
ENDBRANCH  13  25
ENDBRANCH   4   5
BRANCH   4  36
HETATM   36  C   UNL     1     -10.782  15.472  69.311  1.00  0.00    -0.245 C  
BRANCH  36  37
HETATM   37  C   UNL     1     -10.294  15.980  67.928  1.00  0.00    -0.269 C  
HETATM   38  O   UNL     1     -10.724  17.320  67.646  1.00  0.00    -0.359 OA 
HETATM   39  H   UNL     1     -10.425  17.631  66.799  1.00  0.00     0.000 HD 
BRANCH  37  40
HETATM   40  C   UNL     1      -8.769  15.971  67.776  1.00  0.00    -0.167 C  
HETATM   41  O   UNL     1      -8.312  14.623  67.623  1.00  0.00    -0.153 OA 
HETATM   42  H   UNL     1      -7.367  14.617  67.529  1.00  0.00     0.000 HD 
ENDBRANCH  37  40
ENDBRANCH  36  37
ENDBRANCH   4  36
TORSDOF 12
ENDMDL
MODEL      214
REMARK 921   NORMALIZED FREE ENERGY PREDICTED BY IDOCK:   30.80 KCAL/MOL
REMARK 922        TOTAL FREE ENERGY PREDICTED BY IDOCK:   51.21 KCAL/MOL
REMARK 923 INTER-LIGAND FREE ENERGY PREDICTED BY IDOCK:   39.09 KCAL/MOL
REMARK 924 INTRA-LIGAND FREE ENERGY PREDICTED BY IDOCK:   12.13 KCAL/MOL
REMARK 927      BINDING AFFINITY PREDICTED BY RF-SCORE:    0.00 PKD
ROOT
HETATM    1  C   UNL     1     -13.938   5.973  66.667  1.00  0.00    18.864 C  
HETATM    2  C   UNL     1     -12.513   6.396  66.898  1.00  0.00     5.950 C  
HETATM    3  O   UNL     1     -11.762   6.566  65.934  1.00  0.00     2.276 OA 
HETATM    4  N   UNL     1     -12.096   6.565  68.221  1.00  0.00     1.879 N  
ENDROOT
BRANCH   4   5
HETATM    5  C   UNL     1     -10.755   7.033  68.413  1.00  0.00    -0.179 A  
HETATM    6  C   UNL     1      -8.260   8.106  69.123  1.00  0.00    -0.123 A  
HETATM    7  C   UNL     1      -9.827   6.235  69.133  1.00  0.00    -0.144 A  
HETATM    8  C   UNL     1     -10.376   8.313  67.934  1.00  0.00    -0.219 A  
HETATM    9  I   UNL     1     -11.741   9.372  66.621  1.00  0.00     6.593 I  
HETATM   10  I   UNL     1     -10.400   4.193  69.572  1.00  0.00     1.810 I  
HETATM   11  C   UNL     1      -9.128   8.870  68.297  1.00  0.00    -0.140 A  
HETATM   12  I   UNL     1      -6.551   9.097  70.037  1.00  0.00    -0.065 I  
HETATM   13  C   UNL     1      -8.570   6.761  69.496  1.00  0.00    -0.133 A  
BRANCH  11  14
HETATM   14  C   UNL     1      -8.823  10.282  67.918  1.00  0.00    -0.122 C  
HETATM   15  O   UNL     1      -7.857  10.540  67.208  1.00  0.00    -0.105 OA 
HETATM   16  N   UNL     1      -9.670  11.254  68.401  1.00  0.00    -0.188 N  
HETATM   17  H   UNL     1     -10.472  10.983  68.970  1.00  0.00     0.000 HD 
BRANCH  16  18
HETATM   18  C   UNL     1      -9.439  12.670  68.114  1.00  0.00    -0.218 C  
BRANCH  18  19
HETATM   19  C   UNL     1     -10.030  13.082  66.761  1.00  0.00    -0.245 C  
HETATM   20  H   UNL     1     -10.687  14.744  65.943  1.00  0.00     0.000 HD 
HETATM   21  O   UNL     1     -10.321  14.488  66.781  1.00  0.00    -0.264 OA 
BRANCH  19  22
HETATM   22  C   UNL     1      -9.078  12.743  65.605  1.00  0.00     0.432 C  
HETATM   23  O   UNL     1      -9.797  12.451  64.407  1.00  0.00    -0.491 OA 
HETATM   24  H   UNL     1      -9.208  12.241  63.692  1.00  0.00     0.000 HD 
ENDBRANCH  19  22
ENDBRANCH  18  19
ENDBRANCH  16  18
ENDBRANCH  11  14
BRANCH  13  25
HETATM   25  C   UNL     1      -7.528   5.934  70.191  1.00  0.00    -0.082 C  
HETATM   26  O   UNL     1      -7.793   5.415  71.270  1.00  0.00    -0.103 OA 
HETATM   27  H   UNL     1      -6.113   6.189  68.673  1.00  0.00     0.000 HD 
HETATM   28  N   UNL     1      -6.288   5.788  69.594  1.00  0.00    -0.035 N  
BRANCH  28  29
HETATM   29  C   UNL     1      -5.234   5.058  70.289  1.00  0.00    -0.004 C  
BRANCH  29  30
HETATM   30  C   UNL     1      -5.780   4.085  71.342  1.00  0.00    -0.012 C  
HETATM   31  H   UNL     1      -6.715   4.227  73.067  1.00  0.00     0.000 HD 
HETATM   32  O   UNL     1      -6.378   4.830  72.416  1.00  0.00    -0.030 OA 
BRANCH  30  33
HETATM   33  C   UNL     1      -6.813   3.125  70.727  1.00  0.00    -0.033 C  
HETATM   34  O   UNL     1      -6.215   2.264  69.760  1.00  0.00    -0.023 OA 
HETATM   35  H   UNL     1      -6.853   1.671  69.380  1.00  0.00     0.000 HD 
ENDBRANCH  30  33
ENDBRANCH  29  30
ENDBRANCH  28  29
ENDBRANCH  13  25
ENDBRANCH   4   5
BRANCH   4  36
HETATM   36  C   UNL     1     -12.949   6.346  69.423  1.00  0.00     5.219 C  
BRANCH  36  37
HETATM   37  C   UNL     1     -12.413   6.870  70.782  1.00  0.00    -0.197 C  
HETATM   38  O   UNL     1     -10.981   6.963  70.815  1.00  0.00    -0.239 OA 
HETATM   39  H   UNL     1     -10.653   7.283  71.647  1.00  0.00     0.000 HD 
BRANCH  37  40
HETATM   40  C   UNL     1     -12.948   8.255  71.159  1.00  0.00    -0.050 C  
HETATM   41  O   UNL     1     -12.641   8.530  72.530  1.00  0.00    -0.491 OA 
HETATM   42  H   UNL     1     -12.973   9.388  72.764  1.00  0.00     0.000 HD 
ENDBRANCH  37  40
ENDBRANCH  36  37
ENDBRANCH   4  36
TORSDOF 12
ENDMDL
MODEL      215
REMARK 921   NORMALIZED FREE ENERGY PREDICTED BY IDOCK:   32.63 KCAL/MOL
REMARK 922        TOTAL FREE ENERGY PREDICTED BY IDOCK:   54.32 KCAL/MOL
REMARK 923 INTER-LIGAND FREE ENERGY PREDICTED BY IDOCK:   49.23 KCAL/MOL
REMARK 924 INTRA-LIGAND FREE ENERGY PREDICTED BY IDOCK:    5.09 KCAL/MOL
REMARK 927      BINDING AFFINITY PREDICTED BY RF-SCORE:    0.00 PKD
ROOT
HETATM    1  C   UNL     1     -13.963  12.001  73.566  1.00  0.00     5.748 C  
HETATM    2  C   UNL     1     -13.394  11.620  72.227  1.00  0.00    -0.027 C  
HETATM    3  O   UNL     1     -13.782  10.591  71.667  1.00  0.00    -0.128 OA 
HETATM    4  N   UNL     1     -12.420  12.458  71.677  1.00  0.00    -0.045 N  
ENDROOT
BRANCH   4   5
HETATM    5  C   UNL     1     -11.941  12.111  70.372  1.00  0.00    -0.272 A  
HETATM    6  C   UNL     1     -10.687  11.642  67.904  1.00  0.00    -0.202 A  
HETATM    7  C   UNL     1     -11.138  10.952  70.202  1.00  0.00    -0.161 A  
HETATM    8  C   UNL     1     -12.224  12.952  69.266  1.00  0.00    -0.065 A  
HETATM    9  I   UNL     1     -13.666  14.553  69.527  1.00  0.00     5.266 I  
HETATM   10  I   UNL     1     -10.999   9.582  71.874  1.00  0.00     1.081 I  
HETATM   11  C   UNL     1     -11.587  12.735  68.023  1.00  0.00    -0.388 A  
HETATM   12  I   UNL     1      -9.387  11.545  66.162  1.00  0.00    -0.206 I  
HETATM   13  C   UNL     1     -10.502  10.704  68.968  1.00  0.00    -0.237 A  
BRANCH  11  14
HETATM   14  C   UNL     1     -11.774  13.731  66.925  1.00  0.00    -0.395 C  
HETATM   15  O   UNL     1     -11.717  13.380  65.751  1.00  0.00    -0.324 OA 
HETATM   16  N   UNL     1     -12.006  15.036  67.299  1.00  0.00    -0.343 N  
HETATM   17  H   UNL     1     -12.065  15.270  68.291  1.00  0.00     0.000 HD 
BRANCH  16  18
HETATM   18  C   UNL     1     -12.170  16.092  66.300  1.00  0.00     1.774 C  
BRANCH  18  19
HETATM   19  C   UNL     1     -12.246  17.480  66.944  1.00  0.00     3.924 C  
HETATM   20  H   UNL     1     -11.025  18.999  67.196  1.00  0.00     0.000 HD 
HETATM   21  O   UNL     1     -10.978  18.139  66.797  1.00  0.00    -0.142 OA 
BRANCH  19  22
HETATM   22  C   UNL     1     -13.369  18.326  66.326  1.00  0.00    13.138 C  
HETATM   23  O   UNL     1     -13.280  18.352  64.902  1.00  0.00    12.300 OA 
HETATM   24  H   UNL     1     -13.974  18.875  64.520  1.00  0.00     0.000 HD 
ENDBRANCH  19  22
ENDBRANCH  18  19
ENDBRANCH  16  18
ENDBRANCH  11  14
BRANCH  13  25
HETATM   25  C   UNL     1      -9.704   9.458  68.716  1.00  0.00    -0.156 C  
HETATM   26  O   UNL     1      -9.855   8.850  67.662  1.00  0.00    -0.164 OA 
HETATM   27  H   UNL     1      -8.679   9.578  70.535  1.00  0.00     0.000 HD 
HETATM   28  N   UNL     1      -8.822   9.025  69.690  1.00  0.00    -0.139 N  
BRANCH  28  29
HETATM   29  C   UNL     1      -8.097   7.773  69.502  1.00  0.00    -0.126 C  
BRANCH  29  30
HETATM   30  C   UNL     1      -7.840   7.033  70.822  1.00  0.00    -0.096 C  
HETATM   31  H   UNL     1      -8.585   7.063  72.643  1.00  0.00     0.000 HD 
HETATM   32  O   UNL     1      -8.744   7.521  71.827  1.00  0.00    -0.114 OA 
BRANCH  30  33
HETATM   33  C   UNL     1      -8.015   5.514  70.648  1.00  0.00    -0.103 C  
HETATM   34  O   UNL     1      -8.821   5.208  69.512  1.00  0.00    -0.097 OA 
HETATM   35  H   UNL     1      -8.930   4.270  69.404  1.00  0.00     0.000 HD 
ENDBRANCH  30  33
ENDBRANCH  29  30
ENDBRANCH  28  29
ENDBRANCH  13  25
ENDBRANCH   4   5
BRANCH   4  36
HETATM   36  C   UNL     1     -11.892  13.694  72.319  1.00  0.00     1.503 C  
BRANCH  36  37
HETATM   37  C   UNL     1     -11.836  13.724  73.870  1.00  0.00     3.300 C  
HETATM   38  O   UNL     1     -10.503  13.568  74.380  1.00  0.00     5.756 OA 
HETATM   39  H   UNL     1     -10.469  13.586  75.329  1.00  0.00     0.000 HD 
BRANCH  37  40
HETATM   40  C   UNL     1     -12.386  15.019  74.478  1.00  0.00    -0.166 C  
HETATM   41  O   UNL     1     -12.604  15.979  73.439  1.00  0.00    -0.462 OA 
HETATM   42  H   UNL     1     -12.945  16.782  73.816  1.00  0.00     0.000 HD 
ENDBRANCH  37  40
ENDBRANCH  36  37
ENDBRANCH   4  36
TORSDOF 12
ENDMDL
MODEL      216
REMARK 921   NORMALIZED FREE ENERGY PREDICTED BY IDOCK:   33.75 KCAL/MOL
REMARK 922        TOTAL FREE ENERGY PREDICTED BY IDOCK:   56.22 KCAL/MOL
REMARK 923 INTER-LIGAND FREE ENERGY PREDICTED BY IDOCK:   49.72 KCAL/MOL
REMARK 924 INTRA-LIGAND FREE ENERGY PREDICTED BY IDOCK:    6.50 KCAL/MOL
REMARK 927      BINDING AFFINITY PREDICTED BY RF-SCORE:    0.00 PKD
ROOT
HETATM    1  C   UNL     1     -13.963  12.001  73.566  1.00  0.00     5.748 C  
HETATM    2  C   UNL     1     -13.394  11.620  72.227  1.00  0.00    -0.027 C  
HETATM    3  O   UNL     1     -13.782  10.591  71.667  1.00  0.00    -0.128 OA 
HETATM    4  N   UNL     1     -12.420  12.458  71.677  1.00  0.00    -0.045 N  
ENDROOT
BRANCH   4   5
HETATM    5  C   UNL     1     -11.941  12.111  70.372  1.00  0.00    -0.272 A  
HETATM    6  C   UNL     1     -10.687  11.642  67.904  1.00  0.00    -0.202 A  
HETATM    7  C   UNL     1     -11.138  10.952  70.202  1.00  0.00    -0.161 A  
HETATM    8  C   UNL     1     -12.224  12.952  69.266  1.00  0.00    -0.065 A  
HETATM    9  I   UNL     1     -13.666  14.553  69.527  1.00  0.00     5.266 I  
HETATM   10  I   UNL     1     -10.999   9.582  71.874  1.00  0.00     1.081 I  
HETATM   11  C   UNL     1     -11.587  12.735  68.023  1.00  0.00    -0.388 A  
HETATM   12  I   UNL     1      -9.387  11.545  66.162  1.00  0.00    -0.206 I  
HETATM   13  C   UNL     1     -10.502  10.704  68.968  1.00  0.00    -0.237 A  
BRANCH  11  14
HETATM   14  C   UNL     1     -11.774  13.731  66.925  1.00  0.00    -0.395 C  
HETATM   15  O   UNL     1     -11.717  13.380  65.751  1.00  0.00    -0.324 OA 
HETATM   16  N   UNL     1     -12.006  15.036  67.299  1.00  0.00    -0.343 N  
HETATM   17  H   UNL     1     -12.065  15.270  68.291  1.00  0.00     0.000 HD 
BRANCH  16  18
HETATM   18  C   UNL     1     -12.170  16.092  66.300  1.00  0.00     1.774 C  
BRANCH  18  19
HETATM   19  C   UNL     1     -12.246  17.480  66.944  1.00  0.00     3.924 C  
HETATM   20  H   UNL     1     -11.025  18.999  67.196  1.00  0.00     0.000 HD 
HETATM   21  O   UNL     1     -10.978  18.139  66.797  1.00  0.00    -0.142 OA 
BRANCH  19  22
HETATM   22  C   UNL     1     -13.369  18.326  66.326  1.00  0.00    13.138 C  
HETATM   23  O   UNL     1     -13.578  17.994  64.954  1.00  0.00    12.796 OA 
HETATM   24  H   UNL     1     -14.272  18.517  64.572  1.00  0.00     0.000 HD 
ENDBRANCH  19  22
ENDBRANCH  18  19
ENDBRANCH  16  18
ENDBRANCH  11  14
BRANCH  13  25
HETATM   25  C   UNL     1      -9.704   9.458  68.716  1.00  0.00    -0.156 C  
HETATM   26  O   UNL     1     -10.069   8.399  69.215  1.00  0.00    -0.191 OA 
HETATM   27  H   UNL     1      -8.318  10.427  67.486  1.00  0.00     0.000 HD 
HETATM   28  N   UNL     1      -8.569   9.543  67.930  1.00  0.00    -0.119 N  
BRANCH  28  29
HETATM   29  C   UNL     1      -7.732   8.364  67.738  1.00  0.00    -0.103 C  
BRANCH  29  30
HETATM   30  C   UNL     1      -6.769   8.505  66.551  1.00  0.00    -0.067 C  
HETATM   31  H   UNL     1      -5.456   7.360  65.637  1.00  0.00     0.000 HD 
HETATM   32  O   UNL     1      -6.051   7.273  66.371  1.00  0.00    -0.037 OA 
BRANCH  30  33
HETATM   33  C   UNL     1      -7.527   8.866  65.263  1.00  0.00    -0.089 C  
HETATM   34  O   UNL     1      -8.905   8.508  65.349  1.00  0.00    -0.243 OA 
HETATM   35  H   UNL     1      -9.373   8.730  64.553  1.00  0.00     0.000 HD 
ENDBRANCH  30  33
ENDBRANCH  29  30
ENDBRANCH  28  29
ENDBRANCH  13  25
ENDBRANCH   4   5
BRANCH   4  36
HETATM   36  C   UNL     1     -11.892  13.694  72.319  1.00  0.00     1.503 C  
BRANCH  36  37
HETATM   37  C   UNL     1     -11.836  13.724  73.870  1.00  0.00     3.300 C  
HETATM   38  O   UNL     1     -10.503  13.568  74.380  1.00  0.00     5.756 OA 
HETATM   39  H   UNL     1     -10.469  13.586  75.329  1.00  0.00     0.000 HD 
BRANCH  37  40
HETATM   40  C   UNL     1     -12.386  15.019  74.478  1.00  0.00    -0.166 C  
HETATM   41  O   UNL     1     -12.604  15.979  73.439  1.00  0.00    -0.462 OA 
HETATM   42  H   UNL     1     -12.945  16.782  73.816  1.00  0.00     0.000 HD 
ENDBRANCH  37  40
ENDBRANCH  36  37
ENDBRANCH   4  36
TORSDOF 12
ENDMDL
MODEL      217
REMARK 921   NORMALIZED FREE ENERGY PREDICTED BY IDOCK:   35.62 KCAL/MOL
REMARK 922        TOTAL FREE ENERGY PREDICTED BY IDOCK:   59.40 KCAL/MOL
REMARK 923 INTER-LIGAND FREE ENERGY PREDICTED BY IDOCK:   44.57 KCAL/MOL
REMARK 924 INTRA-LIGAND FREE ENERGY PREDICTED BY IDOCK:   14.84 KCAL/MOL
REMARK 927      BINDING AFFINITY PREDICTED BY RF-SCORE:    0.00 PKD
ROOT
HETATM    1  C   UNL     1      -9.251  16.142  71.754  1.00  0.00     6.725 C  
HETATM    2  C   UNL     1      -9.175  14.742  71.209  1.00  0.00     3.542 C  
HETATM    3  O   UNL     1      -8.537  13.881  71.821  1.00  0.00     6.725 OA 
HETATM    4  N   UNL     1      -9.832  14.483  70.003  1.00  0.00     0.497 N  
ENDROOT
BRANCH   4   5
HETATM    5  C   UNL     1      -9.802  13.127  69.539  1.00  0.00     1.121 A  
HETATM    6  C   UNL     1      -9.427  10.578  68.424  1.00  0.00    -0.157 A  
HETATM    7  C   UNL     1      -9.037  12.159  70.242  1.00  0.00     4.681 A  
HETATM    8  C   UNL     1     -10.488  12.770  68.351  1.00  0.00    -0.243 A  
HETATM    9  I   UNL     1     -11.848  14.213  67.469  1.00  0.00    -0.299 I  
HETATM   10  I   UNL     1      -8.264  12.720  72.186  1.00  0.00    21.533 I  
HETATM   11  C   UNL     1     -10.296  11.495  67.772  1.00  0.00    -0.204 A  
HETATM   12  I   UNL     1      -8.786   8.801  67.344  1.00  0.00    -0.155 I  
HETATM   13  C   UNL     1      -8.840  10.875  69.693  1.00  0.00     0.398 A  
BRANCH  11  14
HETATM   14  C   UNL     1     -10.899  11.203  66.436  1.00  0.00    -0.225 C  
HETATM   15  O   UNL     1     -12.116  11.191  66.293  1.00  0.00     0.433 OA 
HETATM   16  N   UNL     1     -10.027  10.953  65.400  1.00  0.00    -0.247 N  
HETATM   17  H   UNL     1      -9.022  10.997  65.569  1.00  0.00     0.000 HD 
BRANCH  16  18
HETATM   18  C   UNL     1     -10.517  10.626  64.061  1.00  0.00    -0.080 C  
BRANCH  18  19
HETATM   19  C   UNL     1      -9.492  10.975  62.977  1.00  0.00    -0.363 C  
HETATM   20  H   UNL     1      -8.497  12.577  62.422  1.00  0.00     0.000 HD 
HETATM   21  O   UNL     1      -9.132  12.360  63.095  1.00  0.00     0.314 OA 
BRANCH  19  22
HETATM   22  C   UNL     1      -8.246  10.082  63.071  1.00  0.00    -0.156 C  
HETATM   23  O   UNL     1      -7.082  10.762  62.603  1.00  0.00    -0.308 OA 
HETATM   24  H   UNL     1      -6.311  10.209  62.661  1.00  0.00     0.000 HD 
ENDBRANCH  19  22
ENDBRANCH  18  19
ENDBRANCH  16  18
ENDBRANCH  11  14
BRANCH  13  25
HETATM   25  C   UNL     1      -8.103   9.795  70.430  1.00  0.00    -0.101 C  
HETATM   26  O   UNL     1      -8.689   9.145  71.289  1.00  0.00    -0.270 OA 
HETATM   27  H   UNL     1      -6.326  10.089  69.368  1.00  0.00     0.000 HD 
HETATM   28  N   UNL     1      -6.773   9.568  70.123  1.00  0.00    -0.067 N  
BRANCH  28  29
HETATM   29  C   UNL     1      -6.014   8.581  70.881  1.00  0.00    -0.034 C  
BRANCH  29  30
HETATM   30  C   UNL     1      -5.611   7.364  70.037  1.00  0.00    -0.023 C  
HETATM   31  H   UNL     1      -6.366   5.591  69.639  1.00  0.00     0.000 HD 
HETATM   32  O   UNL     1      -6.616   6.344  70.162  1.00  0.00    -0.042 OA 
BRANCH  30  33
HETATM   33  C   UNL     1      -5.433   7.750  68.559  1.00  0.00    -0.027 C  
HETATM   34  O   UNL     1      -5.453   9.165  68.382  1.00  0.00    -0.037 OA 
HETATM   35  H   UNL     1      -5.343   9.404  67.469  1.00  0.00     0.000 HD 
ENDBRANCH  30  33
ENDBRANCH  29  30
ENDBRANCH  28  29
ENDBRANCH  13  25
ENDBRANCH   4   5
BRANCH   4  36
HETATM   36  C   UNL     1     -10.591  15.487  69.208  1.00  0.00    -0.236 C  
BRANCH  36  37
HETATM   37  C   UNL     1     -10.805  16.887  69.844  1.00  0.00     0.029 C  
HETATM   38  O   UNL     1     -10.746  17.949  68.880  1.00  0.00    -0.334 OA 
HETATM   39  H   UNL     1     -10.877  18.806  69.269  1.00  0.00     0.000 HD 
BRANCH  37  40
HETATM   40  C   UNL     1     -12.147  17.031  70.570  1.00  0.00     2.725 C  
HETATM   41  O   UNL     1     -12.185  16.134  71.685  1.00  0.00    -0.550 OA 
HETATM   42  H   UNL     1     -13.017  16.223  72.135  1.00  0.00     0.000 HD 
ENDBRANCH  37  40
ENDBRANCH  36  37
ENDBRANCH   4  36
TORSDOF 12
ENDMDL
MODEL      218
REMARK 921   NORMALIZED FREE ENERGY PREDICTED BY IDOCK:   52.23 KCAL/MOL
REMARK 922        TOTAL FREE ENERGY PREDICTED BY IDOCK:   87.67 KCAL/MOL
REMARK 923 INTER-LIGAND FREE ENERGY PREDICTED BY IDOCK:   79.36 KCAL/MOL
REMARK 924 INTRA-LIGAND FREE ENERGY PREDICTED BY IDOCK:    8.31 KCAL/MOL
REMARK 927      BINDING AFFINITY PREDICTED BY RF-SCORE:    0.00 PKD
ROOT
HETATM    1  C   UNL     1     -14.000  14.256  68.538  1.00  0.00     8.377 C  
HETATM    2  C   UNL     1     -13.321  12.914  68.550  1.00  0.00     4.489 C  
HETATM    3  O   UNL     1     -13.632  12.078  69.403  1.00  0.00     2.636 OA 
HETATM    4  N   UNL     1     -12.338  12.679  67.584  1.00  0.00     0.153 N  
ENDROOT
BRANCH   4   5
HETATM    5  C   UNL     1     -11.754  11.371  67.574  1.00  0.00    -0.140 A  
HETATM    6  C   UNL     1     -10.910   8.701  67.780  1.00  0.00    -0.005 A  
HETATM    7  C   UNL     1     -12.148  10.431  66.584  1.00  0.00     3.510 A  
HETATM    8  C   UNL     1     -10.828  11.000  68.582  1.00  0.00    -0.215 A  
HETATM    9  I   UNL     1     -10.063  12.544  69.902  1.00  0.00     3.175 I  
HETATM   10  I   UNL     1     -13.337  11.167  64.930  1.00  0.00     8.861 I  
HETATM   11  C   UNL     1     -10.407   9.656  68.705  1.00  0.00    -0.226 A  
HETATM   12  I   UNL     1     -10.623   6.586  68.206  1.00  0.00    -0.383 I  
HETATM   13  C   UNL     1     -11.731   9.087  66.676  1.00  0.00     4.028 A  
BRANCH  11  14
HETATM   14  C   UNL     1      -9.563   9.261  69.873  1.00  0.00    -0.199 C  
HETATM   15  O   UNL     1      -8.656   9.990  70.259  1.00  0.00    -0.116 OA 
HETATM   16  N   UNL     1      -9.857   8.058  70.476  1.00  0.00    -0.182 N  
HETATM   17  H   UNL     1     -10.637   7.501  70.127  1.00  0.00     0.000 HD 
BRANCH  16  18
HETATM   18  C   UNL     1      -9.070   7.567  71.607  1.00  0.00    -0.134 C  
BRANCH  18  19
HETATM   19  C   UNL     1      -9.114   8.532  72.796  1.00  0.00    -0.148 C  
HETATM   20  H   UNL     1      -8.694   8.447  74.714  1.00  0.00     0.000 HD 
HETATM   21  O   UNL     1      -8.667   7.848  73.977  1.00  0.00    -0.257 OA 
BRANCH  19  22
HETATM   22  C   UNL     1      -8.258   9.781  72.538  1.00  0.00     3.481 C  
HETATM   23  O   UNL     1      -6.948   9.432  72.090  1.00  0.00    -0.270 OA 
HETATM   24  H   UNL     1      -6.419  10.205  71.931  1.00  0.00     0.000 HD 
ENDBRANCH  19  22
ENDBRANCH  18  19
ENDBRANCH  16  18
ENDBRANCH  11  14
BRANCH  13  25
HETATM   25  C   UNL     1     -12.060   8.075  65.618  1.00  0.00    11.343 C  
HETATM   26  O   UNL     1     -12.455   8.457  64.521  1.00  0.00    17.250 OA 
HETATM   27  H   UNL     1     -11.536   6.444  66.817  1.00  0.00     0.000 HD 
HETATM   28  N   UNL     1     -11.915   6.731  65.915  1.00  0.00     4.387 N  
BRANCH  28  29
HETATM   29  C   UNL     1     -12.306   5.727  64.932  1.00  0.00     6.174 C  
BRANCH  29  30
HETATM   30  C   UNL     1     -11.125   4.870  64.456  1.00  0.00     1.016 C  
HETATM   31  H   UNL     1      -9.183   5.108  64.249  1.00  0.00     0.000 HD 
HETATM   32  O   UNL     1      -9.913   5.638  64.544  1.00  0.00     1.080 OA 
BRANCH  30  33
HETATM   33  C   UNL     1     -10.998   3.588  65.295  1.00  0.00     1.204 C  
HETATM   34  O   UNL     1     -10.928   3.880  66.690  1.00  0.00     0.879 OA 
HETATM   35  H   UNL     1     -10.850   3.088  67.208  1.00  0.00     0.000 HD 
ENDBRANCH  30  33
ENDBRANCH  29  30
ENDBRANCH  28  29
ENDBRANCH  13  25
ENDBRANCH   4   5
BRANCH   4  36
HETATM   36  C   UNL     1     -11.901  13.659  66.551  1.00  0.00    -0.404 C  
BRANCH  36  37
HETATM   37  C   UNL     1     -10.658  13.288  65.698  1.00  0.00    -0.283 C  
HETATM   38  O   UNL     1     -10.265  14.341  64.805  1.00  0.00    -0.471 OA 
HETATM   39  H   UNL     1      -9.504  14.114  64.283  1.00  0.00     0.000 HD 
BRANCH  37  40
HETATM   40  C   UNL     1      -9.422  12.942  66.535  1.00  0.00    -0.251 C  
HETATM   41  O   UNL     1      -8.240  13.304  65.813  1.00  0.00     0.998 OA 
HETATM   42  H   UNL     1      -7.474  13.088  66.332  1.00  0.00     0.000 HD 
ENDBRANCH  37  40
ENDBRANCH  36  37
ENDBRANCH   4  36
TORSDOF 12
ENDMDL
